TITL C-39235-6490-4 -523.278572708714 125000 -479.031636163205 0 0 71 (C1) n - 1
REM
REM in /rds/project/t2_vol4/rds-t2-cs072/BORA/CARBON/from-Arr/AIRSS/Generating-Clusters/GAP-ML-2020/Only-C1/SD-CG/HFTN-CG
REM
REM
REM
REM
REM
REM ./C.cell (11c1c37f851c82e70ff6c80c92926a4b)
REM AIRSS Version 0.9.1 bugfix July 2018 build 013d7b7c2542+ Fri, 06 Jul 2018 19:26:36 +0100
REM compiler GCC version 9.3.0
REM options -cpp -mtune=generic -march=x86-64 -g -O0
REM seed -133968550 -1766878736 -700476486 732423047 2098589886 -1830936868 -1312629380 1544286764 -1667729776 406894613 -2004719211 -912998161 1404088616 1825548333 -50498416 -219853811 1218900986 501757990 2103431685 -1211816430 -721332003 -811318065 2139447377 -825884812 555364791 349976322 -1604325414 1193368257 2010945755 -1279188363 903447469 -720738195 1483219336
REM
CELL 1.54180   50.00000   50.00000   50.00000   90.00000   90.00000   90.00000
LATT -1
SFAC C  
C      1  0.4485380000000  0.4474150000000  0.4878850000000 1.0
C      1  0.5274670000000  0.4434520000000  0.5197010000000 1.0
C      1  0.5054540000000  0.4391110000000  0.5374360000000 1.0
C      1  0.5090440000000  0.4580640000000  0.4510550000000 1.0
C      1  0.5619280000000  0.4766060000000  0.4747650000000 1.0
C      1  0.4663740000000  0.4745970000000  0.4387810000000 1.0
C      1  0.4249720000000  0.4970100000000  0.4858270000000 1.0
C      1  0.4937350000000  0.4268550000000  0.4930310000000 1.0
C      1  0.4338440000000  0.5051470000000  0.4593640000000 1.0
C      1  0.5223840000000  0.4319460000000  0.4940520000000 1.0
C      1  0.4837550000000  0.4728820000000  0.5081540000000 1.0
C      1  0.4795740000000  0.4793340000000  0.5644240000000 1.0
C      1  0.5374080000000  0.4864570000000  0.4913610000000 1.0
C      1  0.5459310000000  0.4837370000000  0.5444400000000 1.0
C      1  0.4812670000000  0.4527130000000  0.4514760000000 1.0
C      1  0.5182770000000  0.5480010000000  0.5520500000000 1.0
C      1  0.5262520000000  0.4782020000000  0.5640950000000 1.0
C      1  0.5485280000000  0.5211820000000  0.4510820000000 1.0
C      1  0.5421400000000  0.5453420000000  0.4589010000000 1.0
C      1  0.4836590000000  0.5000440000000  0.4389630000000 1.0
C      1  0.4550760000000  0.5586030000000  0.5053780000000 1.0
C      1  0.4415960000000  0.4827460000000  0.4452600000000 1.0
C      1  0.4215650000000  0.5165120000000  0.5059190000000 1.0
C      1  0.4761880000000  0.5267930000000  0.5641060000000 1.0
C      1  0.4898590000000  0.5044870000000  0.5745570000000 1.0
C      1  0.4503710000000  0.4405730000000  0.5165700000000 1.0
C      1  0.5166720000000  0.4817050000000  0.4680650000000 1.0
C      1  0.5049950000000  0.4819950000000  0.5248610000000 1.0
C      1  0.5562810000000  0.5106850000000  0.5490110000000 1.0
C      1  0.5029420000000  0.5231940000000  0.4802510000000 1.0
C      1  0.5862980000000  0.5362560000000  0.5180290000000 1.0
C      1  0.4327350000000  0.5428340000000  0.5089310000000 1.0
C      1  0.5118600000000  0.5717230000000  0.4828320000000 1.0
C      1  0.4748170000000  0.5200580000000  0.4939470000000 1.0
C      1  0.5421580000000  0.4365510000000  0.4739800000000 1.0
C      1  0.5660710000000  0.4495500000000  0.4805270000000 1.0
C      1  0.4542880000000  0.4688340000000  0.5228240000000 1.0
C      1  0.4795210000000  0.5552390000000  0.5230970000000 1.0
C      1  0.5024600000000  0.4645040000000  0.5530690000000 1.0
C      1  0.4580490000000  0.5412180000000  0.4827810000000 1.0
C      1  0.4582140000000  0.5145500000000  0.5422030000000 1.0
C      1  0.4981340000000  0.5386760000000  0.4379600000000 1.0
C      1  0.5119430000000  0.5479470000000  0.4627040000000 1.0
C      1  0.4859560000000  0.4248680000000  0.5214220000000 1.0
C      1  0.4804580000000  0.5236950000000  0.5217190000000 1.0
C      1  0.5802790000000  0.5216990000000  0.5390180000000 1.0
C      1  0.5509610000000  0.4745250000000  0.4468280000000 1.0
C      1  0.4436070000000  0.4762560000000  0.4935300000000 1.0
C      1  0.4599560000000  0.4173870000000  0.5269650000000 1.0
C      1  0.5097300000000  0.5114730000000  0.4308280000000 1.0
C      1  0.4492530000000  0.5304940000000  0.4571380000000 1.0
C      1  0.5178750000000  0.5036190000000  0.5743630000000 1.0
C      1  0.4901460000000  0.5492190000000  0.5532740000000 1.0
C      1  0.5404370000000  0.5386090000000  0.5079810000000 1.0
C      1  0.5335650000000  0.4989970000000  0.4445180000000 1.0
C      1  0.5563870000000  0.5610240000000  0.4788070000000 1.0
C      1  0.5030530000000  0.5657870000000  0.5104660000000 1.0
C      1  0.5352720000000  0.4492580000000  0.4484360000000 1.0
C      1  0.5344850000000  0.4723530000000  0.5186600000000 1.0
C      1  0.4932440000000  0.4978690000000  0.4676550000000 1.0
C      1  0.5067730000000  0.5102340000000  0.5241230000000 1.0
C      1  0.4580450000000  0.4851630000000  0.5466850000000 1.0
C      1  0.5243730000000  0.5152160000000  0.4995980000000 1.0
C      1  0.4712350000000  0.5276730000000  0.4399800000000 1.0
C      1  0.5673540000000  0.5450700000000  0.5002850000000 1.0
C      1  0.5379100000000  0.5819230000000  0.4831620000000 1.0
C      1  0.4727180000000  0.4387770000000  0.4746470000000 1.0
C      1  0.4725590000000  0.4906920000000  0.4876430000000 1.0
C      1  0.5330260000000  0.5250970000000  0.5629620000000 1.0
C      1  0.4333070000000  0.5235510000000  0.5300750000000 1.0
C      1  0.5254110000000  0.5561440000000  0.5255310000000 1.0
END
