TITL C-3970-7750-6 -0.0119289775862375 125000 -599.88465885582 0 0 86 (C1) n - 1
REM
REM in /rds/project/t2_vol4/rds-t2-cs072/BORA/CARBON/from-Arr/AIRSS/Generating-Clusters/GAP-ML-2020/Only-C1/SD-CG/HFTN-CG
REM
REM
REM
REM
REM
REM ./C.cell (11c1c37f851c82e70ff6c80c92926a4b)
REM AIRSS Version 0.9.1 bugfix July 2018 build 013d7b7c2542+ Fri, 06 Jul 2018 19:26:36 +0100
REM compiler GCC version 9.3.0
REM options -cpp -mtune=generic -march=x86-64 -g -O0
REM seed 2005079499 2122571103 1582418160 -118089094 -1314587363 -1913902829 -1378285676 733037805 -405922500 -227961139 -11329539 -1678880279 -1048527603 1092618042 -444828653 -1626084073 615383048 920011328 -1627961720 -1914854877 755606000 686960151 1258601902 -157100508 1335819837 2055383873 1683360210 1810956341 -839557499 1877453883 -1690491817 875862072 -1932244811
REM
CELL 1.54180   50.00000   50.00000   50.00000   90.00000   90.00000   90.00000
LATT -1
SFAC C  
C      1  0.4719760000000  0.5846200000000  0.5028630000000 1.0
C      1  0.4200580000000  0.4845180000000  0.5335960000000 1.0
C      1  0.5721980000000  0.4753450000000  0.4878010000000 1.0
C      1  0.4342710000000  0.4636620000000  0.5230640000000 1.0
C      1  0.4761400000000  0.5063110000000  0.4777200000000 1.0
C      1  0.4828450000000  0.5125600000000  0.4248080000000 1.0
C      1  0.4935320000000  0.4190070000000  0.5080480000000 1.0
C      1  0.5098020000000  0.4228950000000  0.4847790000000 1.0
C      1  0.5400220000000  0.5508300000000  0.5354650000000 1.0
C      1  0.5354810000000  0.4295760000000  0.5330420000000 1.0
C      1  0.4519730000000  0.5150190000000  0.4607030000000 1.0
C      1  0.5656150000000  0.4630440000000  0.5129700000000 1.0
C      1  0.4704290000000  0.5544730000000  0.5475590000000 1.0
C      1  0.4385570000000  0.5293780000000  0.4841250000000 1.0
C      1  0.5429300000000  0.4719130000000  0.5578660000000 1.0
C      1  0.4761710000000  0.4499360000000  0.5557780000000 1.0
C      1  0.4895720000000  0.4628760000000  0.4753440000000 1.0
C      1  0.4640200000000  0.4953570000000  0.5547120000000 1.0
C      1  0.4391480000000  0.4675760000000  0.4912320000000 1.0
C      1  0.5160530000000  0.5380090000000  0.5726620000000 1.0
C      1  0.4952770000000  0.5699760000000  0.5438170000000 1.0
C      1  0.5372500000000  0.4317020000000  0.4864200000000 1.0
C      1  0.4353480000000  0.5573990000000  0.4784100000000 1.0
C      1  0.5486570000000  0.5640810000000  0.5112570000000 1.0
C      1  0.5287660000000  0.4926370000000  0.5726690000000 1.0
C      1  0.5266310000000  0.5731740000000  0.4728630000000 1.0
C      1  0.5536500000000  0.4920370000000  0.4461320000000 1.0
C      1  0.4762240000000  0.4429500000000  0.4453690000000 1.0
C      1  0.4313780000000  0.5101710000000  0.5363630000000 1.0
C      1  0.5194400000000  0.4966370000000  0.4854530000000 1.0
C      1  0.4612670000000  0.4903850000000  0.4995330000000 1.0
C      1  0.5175420000000  0.5324520000000  0.5162740000000 1.0
C      1  0.5121000000000  0.5156290000000  0.4267480000000 1.0
C      1  0.4696150000000  0.4875380000000  0.4266650000000 1.0
C      1  0.4479640000000  0.5183700000000  0.5115240000000 1.0
C      1  0.5223340000000  0.4454430000000  0.4451540000000 1.0
C      1  0.5767210000000  0.5030050000000  0.4854110000000 1.0
C      1  0.4454500000000  0.5163430000000  0.5616020000000 1.0
C      1  0.4850820000000  0.4642320000000  0.4273210000000 1.0
C      1  0.4317820000000  0.5621850000000  0.4497490000000 1.0
C      1  0.4559470000000  0.4455710000000  0.5334470000000 1.0
C      1  0.5662050000000  0.5138240000000  0.4609430000000 1.0
C      1  0.5619310000000  0.4802960000000  0.5362940000000 1.0
C      1  0.5292450000000  0.4917380000000  0.4291930000000 1.0
C      1  0.5371200000000  0.5549420000000  0.4549310000000 1.0
C      1  0.4470400000000  0.4896310000000  0.4457340000000 1.0
C      1  0.4849480000000  0.5125480000000  0.5413110000000 1.0
C      1  0.5189090000000  0.5596100000000  0.5543870000000 1.0
C      1  0.5443020000000  0.4456970000000  0.4623130000000 1.0
C      1  0.5177340000000  0.4875250000000  0.5122820000000 1.0
C      1  0.5081720000000  0.4198150000000  0.5315390000000 1.0
C      1  0.4507410000000  0.4417470000000  0.4581030000000 1.0
C      1  0.4506530000000  0.5744170000000  0.4941530000000 1.0
C      1  0.4914280000000  0.5462320000000  0.5078030000000 1.0
C      1  0.5541100000000  0.5282220000000  0.5488500000000 1.0
C      1  0.4490670000000  0.4383650000000  0.4868540000000 1.0
C      1  0.4976220000000  0.4885690000000  0.4689480000000 1.0
C      1  0.5734780000000  0.5207210000000  0.5071430000000 1.0
C      1  0.5108080000000  0.5083170000000  0.5300680000000 1.0
C      1  0.5376520000000  0.5196440000000  0.5701360000000 1.0
C      1  0.5497700000000  0.4387970000000  0.5111090000000 1.0
C      1  0.5603920000000  0.4685190000000  0.4623230000000 1.0
C      1  0.4674930000000  0.5336100000000  0.4394150000000 1.0
C      1  0.4917460000000  0.5227620000000  0.5727930000000 1.0
C      1  0.5162440000000  0.5409650000000  0.4400650000000 1.0
C      1  0.5009830000000  0.4367180000000  0.5540990000000 1.0
C      1  0.4917870000000  0.5338900000000  0.4804120000000 1.0
C      1  0.4708670000000  0.5340410000000  0.5246860000000 1.0
C      1  0.4641950000000  0.5371340000000  0.5695320000000 1.0
C      1  0.4805440000000  0.4646030000000  0.5034410000000 1.0
C      1  0.5203840000000  0.5248460000000  0.4874470000000 1.0
C      1  0.4970550000000  0.5757580000000  0.5141550000000 1.0
C      1  0.5001760000000  0.4932800000000  0.5775130000000 1.0
C      1  0.5144470000000  0.4664800000000  0.4281760000000 1.0
C      1  0.5051060000000  0.4648050000000  0.5159030000000 1.0
C      1  0.5669660000000  0.5091730000000  0.5325840000000 1.0
C      1  0.4908780000000  0.5456400000000  0.4536490000000 1.0
C      1  0.4466470000000  0.5536760000000  0.4305340000000 1.0
C      1  0.4999580000000  0.4355430000000  0.4604860000000 1.0
C      1  0.5256300000000  0.5772680000000  0.4992110000000 1.0
C      1  0.5645250000000  0.5458490000000  0.4954820000000 1.0
C      1  0.5600280000000  0.5413100000000  0.4669870000000 1.0
C      1  0.4378070000000  0.4676950000000  0.4597490000000 1.0
C      1  0.4791540000000  0.4755690000000  0.5691030000000 1.0
C      1  0.4673680000000  0.4343180000000  0.5087880000000 1.0
C      1  0.5294730000000  0.4470700000000  0.5550560000000 1.0
END
