TITL C-3977-8870-4 -3.71364220370277 125000 -849.468306279599 0 0 121 (C1) n - 1
REM
REM in /rds/project/t2_vol4/rds-t2-cs072/BORA/CARBON/from-Arr/AIRSS/Generating-Clusters/GAP-ML-2020/Only-C1/SD-CG/HFTN-CG
REM
REM
REM
REM
REM
REM ./C.cell (11c1c37f851c82e70ff6c80c92926a4b)
REM AIRSS Version 0.9.1 bugfix July 2018 build 013d7b7c2542+ Fri, 06 Jul 2018 19:26:36 +0100
REM compiler GCC version 9.3.0
REM options -cpp -mtune=generic -march=x86-64 -g -O0
REM seed 1351771561 -735991681 869307331 24304272 -1875271822 -578375244 -1619404938 -1148389686 -115730015 -175925372 1418876726 -2056257325 1503820779 1524584565 -807791891 1952441226 -2045836449 -1022984416 -61014394 -939452899 1692742655 1615270434 -874321319 382889724 -1034174205 -1857554605 -1395888273 1683418781 -1911452900 -153771861 -217791790 1139814086 32620021
REM
CELL 1.54180   50.00000   50.00000   50.00000   90.00000   90.00000   90.00000
LATT -1
SFAC C  
C      1  0.4582870000000  0.4404370000000  0.5671040000000 1.0
C      1  0.5551360000000  0.5237260000000  0.4729160000000 1.0
C      1  0.5235390000000  0.4829810000000  0.5502340000000 1.0
C      1  0.4696480000000  0.5169800000000  0.5820520000000 1.0
C      1  0.5007030000000  0.4500180000000  0.4273980000000 1.0
C      1  0.5647090000000  0.5608600000000  0.5208780000000 1.0
C      1  0.4726450000000  0.4525390000000  0.4336780000000 1.0
C      1  0.4780260000000  0.5175940000000  0.5223580000000 1.0
C      1  0.5205340000000  0.4148710000000  0.5322420000000 1.0
C      1  0.5672740000000  0.5048310000000  0.4533920000000 1.0
C      1  0.5148920000000  0.3996460000000  0.5085230000000 1.0
C      1  0.5869700000000  0.5143250000000  0.5098750000000 1.0
C      1  0.4355880000000  0.4452370000000  0.4650150000000 1.0
C      1  0.4524500000000  0.5169490000000  0.5373770000000 1.0
C      1  0.4140310000000  0.4411100000000  0.5113010000000 1.0
C      1  0.5875390000000  0.4905660000000  0.4697920000000 1.0
C      1  0.4706070000000  0.4015680000000  0.4899990000000 1.0
C      1  0.4673900000000  0.4880930000000  0.5856570000000 1.0
C      1  0.4432720000000  0.4053300000000  0.4924820000000 1.0
C      1  0.4653750000000  0.5717120000000  0.5416670000000 1.0
C      1  0.4824880000000  0.5962590000000  0.5051330000000 1.0
C      1  0.6176670000000  0.5306070000000  0.4722380000000 1.0
C      1  0.5834360000000  0.5055740000000  0.5543860000000 1.0
C      1  0.4652520000000  0.5214220000000  0.4173660000000 1.0
C      1  0.5473790000000  0.4786640000000  0.5686600000000 1.0
C      1  0.5085450000000  0.4409070000000  0.5213340000000 1.0
C      1  0.4246990000000  0.5443540000000  0.5291410000000 1.0
C      1  0.4194520000000  0.4852830000000  0.5309870000000 1.0
C      1  0.5865290000000  0.4909130000000  0.5294890000000 1.0
C      1  0.5453940000000  0.4525530000000  0.4438010000000 1.0
C      1  0.4494950000000  0.4317390000000  0.5429490000000 1.0
C      1  0.4725990000000  0.4949040000000  0.4099020000000 1.0
C      1  0.5123540000000  0.4796280000000  0.4762920000000 1.0
C      1  0.4900080000000  0.4754410000000  0.4940240000000 1.0
C      1  0.5224870000000  0.4979130000000  0.5265400000000 1.0
C      1  0.4034130000000  0.5096530000000  0.4803280000000 1.0
C      1  0.5575770000000  0.5139690000000  0.5014430000000 1.0
C      1  0.5936420000000  0.5326540000000  0.5511560000000 1.0
C      1  0.5795730000000  0.4678080000000  0.4839330000000 1.0
C      1  0.5160500000000  0.5756430000000  0.5349090000000 1.0
C      1  0.4817530000000  0.5134330000000  0.4660210000000 1.0
C      1  0.4424010000000  0.5196830000000  0.4365340000000 1.0
C      1  0.5525290000000  0.5007630000000  0.4293970000000 1.0
C      1  0.5606400000000  0.5681540000000  0.4938450000000 1.0
C      1  0.4557970000000  0.4697080000000  0.5652500000000 1.0
C      1  0.4233840000000  0.5545190000000  0.5021770000000 1.0
C      1  0.4703230000000  0.4912940000000  0.4796020000000 1.0
C      1  0.4621600000000  0.4399950000000  0.4566030000000 1.0
C      1  0.4842150000000  0.4469570000000  0.5030260000000 1.0
C      1  0.5487380000000  0.5653700000000  0.4521540000000 1.0
C      1  0.5978250000000  0.5458740000000  0.4658720000000 1.0
C      1  0.4480000000000  0.4922580000000  0.4936770000000 1.0
C      1  0.4936320000000  0.5687070000000  0.5512440000000 1.0
C      1  0.4607430000000  0.5830560000000  0.5156690000000 1.0
C      1  0.5146150000000  0.4815570000000  0.5969040000000 1.0
C      1  0.4450300000000  0.5525990000000  0.5487080000000 1.0
C      1  0.4227430000000  0.4710660000000  0.4576850000000 1.0
C      1  0.4958380000000  0.5276100000000  0.5853700000000 1.0
C      1  0.4917380000000  0.4921150000000  0.5224140000000 1.0
C      1  0.5095050000000  0.5053080000000  0.4640890000000 1.0
C      1  0.5198060000000  0.4377920000000  0.4448220000000 1.0
C      1  0.5357840000000  0.4678130000000  0.4866000000000 1.0
C      1  0.5158340000000  0.5349600000000  0.4979930000000 1.0
C      1  0.4096750000000  0.4682960000000  0.5056710000000 1.0
C      1  0.5152390000000  0.4705810000000  0.4137810000000 1.0
C      1  0.4754230000000  0.5382770000000  0.4781800000000 1.0
C      1  0.4814100000000  0.4282250000000  0.4768060000000 1.0
C      1  0.4234800000000  0.4408410000000  0.5393390000000 1.0
C      1  0.4878680000000  0.5362180000000  0.5028850000000 1.0
C      1  0.5098020000000  0.4238630000000  0.4665790000000 1.0
C      1  0.4528050000000  0.5290810000000  0.5633260000000 1.0
C      1  0.5254970000000  0.5264290000000  0.4731650000000 1.0
C      1  0.4061490000000  0.4817380000000  0.4795180000000 1.0
C      1  0.4793260000000  0.4695480000000  0.5413910000000 1.0
C      1  0.5181040000000  0.5105330000000  0.5913190000000 1.0
C      1  0.5416470000000  0.4740380000000  0.4247430000000 1.0
C      1  0.4579030000000  0.4757140000000  0.4242840000000 1.0
C      1  0.6021630000000  0.5105940000000  0.4841660000000 1.0
C      1  0.5619520000000  0.5023610000000  0.5727710000000 1.0
C      1  0.4182990000000  0.5357390000000  0.4786050000000 1.0
C      1  0.5006910000000  0.4924870000000  0.4047730000000 1.0
C      1  0.5372940000000  0.5243970000000  0.4204690000000 1.0
C      1  0.5420100000000  0.5815850000000  0.4758860000000 1.0
C      1  0.5122930000000  0.5181370000000  0.4077860000000 1.0
C      1  0.4366410000000  0.4887870000000  0.4386250000000 1.0
C      1  0.5573150000000  0.4578180000000  0.4691010000000 1.0
C      1  0.5550600000000  0.4444860000000  0.5230870000000 1.0
C      1  0.5055110000000  0.5501440000000  0.5703390000000 1.0
C      1  0.4911860000000  0.5361140000000  0.4139750000000 1.0
C      1  0.5413410000000  0.5216610000000  0.5794570000000 1.0
C      1  0.5690230000000  0.5500920000000  0.4693940000000 1.0
C      1  0.4889850000000  0.5792330000000  0.4342030000000 1.0
C      1  0.5183010000000  0.5943470000000  0.4853630000000 1.0
C      1  0.4438250000000  0.5715560000000  0.4950060000000 1.0
C      1  0.5261540000000  0.4427800000000  0.5653650000000 1.0
C      1  0.4882980000000  0.4767440000000  0.5993380000000 1.0
C      1  0.4252710000000  0.5144460000000  0.5260190000000 1.0
C      1  0.4280960000000  0.4276270000000  0.4887450000000 1.0
C      1  0.4560190000000  0.5610120000000  0.4689140000000 1.0
C      1  0.4413480000000  0.4723420000000  0.5119540000000 1.0
C      1  0.5335870000000  0.4617260000000  0.5863680000000 1.0
C      1  0.5048530000000  0.5591040000000  0.4249900000000 1.0
C      1  0.5335390000000  0.5516150000000  0.4314040000000 1.0
C      1  0.4896320000000  0.5959180000000  0.4774120000000 1.0
C      1  0.5457280000000  0.4866500000000  0.5072580000000 1.0
C      1  0.4741850000000  0.5830750000000  0.4567750000000 1.0
C      1  0.5330750000000  0.5457810000000  0.5652040000000 1.0
C      1  0.4270780000000  0.5120730000000  0.4964970000000 1.0
C      1  0.4359570000000  0.5412450000000  0.4558450000000 1.0
C      1  0.4269500000000  0.4676960000000  0.5516630000000 1.0
C      1  0.5100800000000  0.5927870000000  0.5135600000000 1.0
C      1  0.5336970000000  0.5266280000000  0.5191760000000 1.0
C      1  0.5071580000000  0.4578560000000  0.5466430000000 1.0
C      1  0.5337980000000  0.4427690000000  0.5022920000000 1.0
C      1  0.5866230000000  0.5411380000000  0.5264300000000 1.0
C      1  0.5713430000000  0.4687050000000  0.5156740000000 1.0
C      1  0.5388570000000  0.5551680000000  0.5372660000000 1.0
C      1  0.5421340000000  0.4292970000000  0.5452440000000 1.0
C      1  0.5267810000000  0.4173330000000  0.4882540000000 1.0
C      1  0.4625130000000  0.4526230000000  0.5221790000000 1.0
C      1  0.4913390000000  0.3870900000000  0.5019330000000 1.0
END
