TITL C-39048-4804-3 -0.000275695622326777 125000 -22.9478494908566 0 0 4 (D(inf)h) n - 1
REM
REM in /rds/project/t2_vol4/rds-t2-cs072/BORA/CARBON/from-Arr/AIRSS/Generating-Clusters/GAP-ML-2020/Only-C1/SD-CG/HFTN-CG
REM
REM
REM
REM
REM
REM ./C.cell (11c1c37f851c82e70ff6c80c92926a4b)
REM AIRSS Version 0.9.1 bugfix July 2018 build 013d7b7c2542+ Fri, 06 Jul 2018 19:26:36 +0100
REM compiler GCC version 9.3.0
REM options -cpp -mtune=generic -march=x86-64 -g -O0
REM seed 728304398 1968947597 345613517 -2062783548 1846160652 -2144173752 -320752360 1247960980 1094909828 970208721 720886233 -1974660748 -749635445 -1227240842 -1843278937 -52794191 -1059898475 1139627737 -1018630246 1677296516 -2020369097 1886182948 2111560714 -787802636 1150977676 536174583 -282801757 1300274990 683947744 -928112826 -1633328851 1708518205 1833854222
REM
CELL 1.54180   50.00000   50.00000   50.00000   90.00000   90.00000   90.00000
LATT -1
SFAC C  
C      1  0.5112630000000  0.4669450000000  0.5170550000000 1.0
C      1  0.4887370000000  0.5330550000000  0.4829450000000 1.0
C      1  0.5039020000000  0.4885470000000  0.5059100000000 1.0
C      1  0.4960970000000  0.5114530000000  0.4940900000000 1.0
END
