TITL C-39222-6539-6 -0.140996138509715 125000 -127.744303796943 0 0 20 (C1) n - 1
REM
REM in /rds/project/t2_vol4/rds-t2-cs072/BORA/CARBON/from-Arr/AIRSS/Generating-Clusters/GAP-ML-2020/Only-C1/SD-CG/HFTN-CG
REM
REM
REM
REM
REM
REM ./C.cell (11c1c37f851c82e70ff6c80c92926a4b)
REM AIRSS Version 0.9.1 bugfix July 2018 build 013d7b7c2542+ Fri, 06 Jul 2018 19:26:36 +0100
REM compiler GCC version 9.3.0
REM options -cpp -mtune=generic -march=x86-64 -g -O0
REM seed -1743674528 1953942299 283887417 1892250648 -289578365 -2024845623 1872517874 -1861111679 -486961703 -2115253246 -261942237 -800980453 605667258 -1224596159 -796977255 -1598317649 -1923126084 -153776465 -2092369655 -1078302539 -897629066 722907593 -1707199222 112753559 -2090322698 -949476747 806444806 -1148295898 -1333902105 453018810 646896005 -1585675801 -1077081528
REM
CELL 1.54180   50.00000   50.00000   50.00000   90.00000   90.00000   90.00000
LATT -1
SFAC C  
C      1  0.4944850000000  0.4500250000000  0.5452180000000 1.0
C      1  0.4677510000000  0.4653290000000  0.4649470000000 1.0
C      1  0.5097130000000  0.4833330000000  0.4717600000000 1.0
C      1  0.4778190000000  0.5305790000000  0.5336430000000 1.0
C      1  0.4487470000000  0.4759520000000  0.4786990000000 1.0
C      1  0.5116650000000  0.4644180000000  0.5335010000000 1.0
C      1  0.5275170000000  0.4816900000000  0.5189430000000 1.0
C      1  0.5358250000000  0.5071400000000  0.5297550000000 1.0
C      1  0.4558410000000  0.5234250000000  0.5430480000000 1.0
C      1  0.5318930000000  0.5212230000000  0.4645480000000 1.0
C      1  0.5055640000000  0.5118870000000  0.4700500000000 1.0
C      1  0.4611960000000  0.5195140000000  0.4844800000000 1.0
C      1  0.5445890000000  0.5090610000000  0.4854170000000 1.0
C      1  0.5477040000000  0.5233180000000  0.5095570000000 1.0
C      1  0.5320180000000  0.4828950000000  0.4903420000000 1.0
C      1  0.4930020000000  0.4651440000000  0.4605710000000 1.0
C      1  0.5222080000000  0.5295460000000  0.5216850000000 1.0
C      1  0.4959630000000  0.5322640000000  0.5135670000000 1.0
C      1  0.4484650000000  0.4989790000000  0.4927070000000 1.0
C      1  0.4880340000000  0.5242770000000  0.4875630000000 1.0
END
