TITL C-39039-1071-4 41.4386031672243 125000 -748.292046305293 0 0 106 (C1) n - 1
REM
REM in /rds/project/t2_vol4/rds-t2-cs072/BORA/CARBON/from-Arr/AIRSS/Generating-Clusters/GAP-ML-2020/Only-C1/SD-CG/HFTN-CG
REM
REM
REM
REM
REM
REM ./C.cell (11c1c37f851c82e70ff6c80c92926a4b)
REM AIRSS Version 0.9.1 bugfix July 2018 build 013d7b7c2542+ Fri, 06 Jul 2018 19:26:36 +0100
REM compiler GCC version 9.3.0
REM options -cpp -mtune=generic -march=x86-64 -g -O0
REM seed -348205320 2033266537 1977903468 -1800165758 1190740597 -257998564 -715209630 -237288512 -1331835493 -1982595333 541553615 -2067564829 186104451 -80592913 -723955364 -1076062171 -1625158733 398995347 -398953150 -424816105 1494648104 -884334995 -2026170362 -868414414 450964110 -916713337 -913772150 1349637527 -701989610 -1462280183 -958162758 -97692255 -1724182418
REM
CELL 1.54180   50.00000   50.00000   50.00000   90.00000   90.00000   90.00000
LATT -1
SFAC C  
C      1  0.5042920000000  0.4553940000000  0.4349270000000 1.0
C      1  0.4313180000000  0.4415670000000  0.5226940000000 1.0
C      1  0.4074010000000  0.4597100000000  0.4773240000000 1.0
C      1  0.4545330000000  0.5354750000000  0.4440270000000 1.0
C      1  0.4680950000000  0.5041620000000  0.5576110000000 1.0
C      1  0.5212530000000  0.4831110000000  0.5655470000000 1.0
C      1  0.5535600000000  0.5190430000000  0.5619420000000 1.0
C      1  0.4694990000000  0.4912630000000  0.4826130000000 1.0
C      1  0.5198190000000  0.5699220000000  0.4462960000000 1.0
C      1  0.4557120000000  0.5698190000000  0.4812730000000 1.0
C      1  0.4748550000000  0.4280980000000  0.5494890000000 1.0
C      1  0.4927660000000  0.4803970000000  0.5263330000000 1.0
C      1  0.5494280000000  0.4565450000000  0.5397770000000 1.0
C      1  0.4805130000000  0.5815470000000  0.4721500000000 1.0
C      1  0.5780950000000  0.5413340000000  0.4663350000000 1.0
C      1  0.4842140000000  0.4066060000000  0.5056990000000 1.0
C      1  0.5392350000000  0.5873150000000  0.5151530000000 1.0
C      1  0.5206870000000  0.4199930000000  0.5319830000000 1.0
C      1  0.5158180000000  0.4683480000000  0.4880390000000 1.0
C      1  0.5289660000000  0.5103690000000  0.5759010000000 1.0
C      1  0.5090920000000  0.5285450000000  0.5795830000000 1.0
C      1  0.5745130000000  0.4379760000000  0.5011760000000 1.0
C      1  0.5188940000000  0.4960850000000  0.5185560000000 1.0
C      1  0.5928710000000  0.5411680000000  0.4886080000000 1.0
C      1  0.5409600000000  0.5184290000000  0.4817410000000 1.0
C      1  0.4893980000000  0.5933060000000  0.5220470000000 1.0
C      1  0.5443950000000  0.4424900000000  0.4628100000000 1.0
C      1  0.4315110000000  0.5211130000000  0.5040330000000 1.0
C      1  0.5574960000000  0.4675870000000  0.4558180000000 1.0
C      1  0.4169500000000  0.5042590000000  0.4844290000000 1.0
C      1  0.5351190000000  0.5716000000000  0.4712440000000 1.0
C      1  0.5214130000000  0.4964330000000  0.4877630000000 1.0
C      1  0.5535730000000  0.5643290000000  0.5111770000000 1.0
C      1  0.5009000000000  0.4174170000000  0.4633880000000 1.0
C      1  0.4811110000000  0.4514770000000  0.5692280000000 1.0
C      1  0.5178440000000  0.5306500000000  0.4049210000000 1.0
C      1  0.4915850000000  0.5692410000000  0.4479150000000 1.0
C      1  0.4183700000000  0.4677110000000  0.5223040000000 1.0
C      1  0.5167510000000  0.4799410000000  0.4305810000000 1.0
C      1  0.4790820000000  0.5468720000000  0.4343890000000 1.0
C      1  0.5862380000000  0.5337790000000  0.5147210000000 1.0
C      1  0.4238450000000  0.4875830000000  0.5421700000000 1.0
C      1  0.4453190000000  0.4849620000000  0.5608710000000 1.0
C      1  0.4638430000000  0.5137090000000  0.5017160000000 1.0
C      1  0.5808180000000  0.5065760000000  0.5191900000000 1.0
C      1  0.5661540000000  0.4981700000000  0.5429750000000 1.0
C      1  0.5224300000000  0.4528690000000  0.5737460000000 1.0
C      1  0.5030680000000  0.5520340000000  0.5663160000000 1.0
C      1  0.5077910000000  0.4075140000000  0.4893660000000 1.0
C      1  0.4958090000000  0.5054050000000  0.4716820000000 1.0
C      1  0.4959220000000  0.5012450000000  0.4372220000000 1.0
C      1  0.5429670000000  0.5573470000000  0.4337210000000 1.0
C      1  0.4510340000000  0.5680440000000  0.5103370000000 1.0
C      1  0.5730490000000  0.4866040000000  0.4717550000000 1.0
C      1  0.4725580000000  0.4203970000000  0.4632610000000 1.0
C      1  0.5071340000000  0.5402710000000  0.5033700000000 1.0
C      1  0.4221030000000  0.4355520000000  0.4762180000000 1.0
C      1  0.5750860000000  0.4677320000000  0.5423500000000 1.0
C      1  0.5258650000000  0.5876030000000  0.5402080000000 1.0
C      1  0.4095170000000  0.4787660000000  0.4970560000000 1.0
C      1  0.4475040000000  0.5070150000000  0.4406180000000 1.0
C      1  0.5640050000000  0.5140190000000  0.4621630000000 1.0
C      1  0.5302290000000  0.4161190000000  0.5039600000000 1.0
C      1  0.4328200000000  0.5486580000000  0.5175140000000 1.0
C      1  0.4762060000000  0.5565400000000  0.5542600000000 1.0
C      1  0.4330650000000  0.4441580000000  0.4505280000000 1.0
C      1  0.4252070000000  0.4972280000000  0.4563110000000 1.0
C      1  0.5010380000000  0.4442340000000  0.5888980000000 1.0
C      1  0.4913950000000  0.4633000000000  0.5019210000000 1.0
C      1  0.4483440000000  0.4381820000000  0.5453490000000 1.0
C      1  0.5515070000000  0.4299780000000  0.4887100000000 1.0
C      1  0.5531160000000  0.5101070000000  0.4349490000000 1.0
C      1  0.5340190000000  0.5454550000000  0.4916930000000 1.0
C      1  0.5686640000000  0.5510170000000  0.5298850000000 1.0
C      1  0.4689150000000  0.4650360000000  0.4869870000000 1.0
C      1  0.5185100000000  0.4357320000000  0.4506350000000 1.0
C      1  0.4191080000000  0.4697820000000  0.4523990000000 1.0
C      1  0.4755880000000  0.4597160000000  0.4341390000000 1.0
C      1  0.4972740000000  0.5935780000000  0.4924450000000 1.0
C      1  0.4923640000000  0.4141430000000  0.5326710000000 1.0
C      1  0.4695420000000  0.4883240000000  0.4327290000000 1.0
C      1  0.5814800000000  0.4851680000000  0.4993350000000 1.0
C      1  0.4782690000000  0.5072440000000  0.5273320000000 1.0
C      1  0.4453700000000  0.5496190000000  0.4655490000000 1.0
C      1  0.4870280000000  0.5298860000000  0.4867710000000 1.0
C      1  0.5441340000000  0.4831930000000  0.4350570000000 1.0
C      1  0.4518540000000  0.4584710000000  0.5657050000000 1.0
C      1  0.4579550000000  0.5348880000000  0.5586580000000 1.0
C      1  0.4596590000000  0.4389780000000  0.4454590000000 1.0
C      1  0.5417500000000  0.5318750000000  0.4199150000000 1.0
C      1  0.4368340000000  0.4262540000000  0.4980670000000 1.0
C      1  0.4618480000000  0.4141870000000  0.4897450000000 1.0
C      1  0.5326380000000  0.4379230000000  0.5509330000000 1.0
C      1  0.4702590000000  0.5742300000000  0.5310260000000 1.0
C      1  0.5804510000000  0.4611460000000  0.5147770000000 1.0
C      1  0.5376210000000  0.4840820000000  0.5392570000000 1.0
C      1  0.5055860000000  0.5215970000000  0.5241280000000 1.0
C      1  0.4965150000000  0.5274720000000  0.4221890000000 1.0
C      1  0.5256090000000  0.5919650000000  0.4903800000000 1.0
C      1  0.4921240000000  0.4795870000000  0.5577490000000 1.0
C      1  0.5525940000000  0.5461550000000  0.5530300000000 1.0
C      1  0.5047250000000  0.6059870000000  0.5417120000000 1.0
C      1  0.4227350000000  0.5131880000000  0.5325780000000 1.0
C      1  0.5283640000000  0.5632710000000  0.5564920000000 1.0
C      1  0.5600280000000  0.5619450000000  0.4561850000000 1.0
C      1  0.4337130000000  0.5365620000000  0.5441310000000 1.0
END
