TITL C-39052-1095-6 496.530304448285 125000 -1026.52618534917 0 0 149 (C1) n - 1
REM
REM in /rds/project/t2_vol4/rds-t2-cs072/BORA/CARBON/from-Arr/AIRSS/Generating-Clusters/GAP-ML-2020/Only-C1/SD-CG/HFTN-CG
REM
REM
REM
REM
REM
REM ./C.cell (11c1c37f851c82e70ff6c80c92926a4b)
REM AIRSS Version 0.9.1 bugfix July 2018 build 013d7b7c2542+ Fri, 06 Jul 2018 19:26:36 +0100
REM compiler GCC version 9.3.0
REM options -cpp -mtune=generic -march=x86-64 -g -O0
REM seed 42411082 -842767383 -322887257 -1979930997 1101379233 -1881633029 504455053 -233179930 970687212 2015769582 -307416291 1249712443 1727334975 385700665 468011337 -1806526651 -1923623145 332730014 -1408551411 -780858377 701272239 668659237 -106636491 2069166089 -1142494976 807627909 -1193162207 2071201922 -415451897 548998124 2010064856 731155406 -1494166347
REM
CELL 1.54180   50.00000   50.00000   50.00000   90.00000   90.00000   90.00000
LATT -1
SFAC C  
C      1  0.5214980000000  0.5389430000000  0.5870310000000 1.0
C      1  0.5848890000000  0.4512290000000  0.5137040000000 1.0
C      1  0.4345680000000  0.5770550000000  0.5009210000000 1.0
C      1  0.4125340000000  0.4919390000000  0.5478580000000 1.0
C      1  0.4214210000000  0.5538510000000  0.5403350000000 1.0
C      1  0.5719910000000  0.4376500000000  0.4645630000000 1.0
C      1  0.5267990000000  0.4039960000000  0.5031040000000 1.0
C      1  0.4860660000000  0.5044430000000  0.4480140000000 1.0
C      1  0.5988110000000  0.5303100000000  0.5356070000000 1.0
C      1  0.5723680000000  0.4587490000000  0.5418910000000 1.0
C      1  0.5087670000000  0.4843360000000  0.6025570000000 1.0
C      1  0.4735160000000  0.5976570000000  0.5218440000000 1.0
C      1  0.5424360000000  0.5277000000000  0.5473370000000 1.0
C      1  0.4226610000000  0.4369490000000  0.5421440000000 1.0
C      1  0.5777090000000  0.5379870000000  0.4441880000000 1.0
C      1  0.4813210000000  0.4944620000000  0.6033760000000 1.0
C      1  0.5629540000000  0.4483500000000  0.4391620000000 1.0
C      1  0.4772560000000  0.4344580000000  0.4615830000000 1.0
C      1  0.5362620000000  0.5674920000000  0.5515820000000 1.0
C      1  0.6126040000000  0.4947820000000  0.5027010000000 1.0
C      1  0.4308910000000  0.4216270000000  0.5201220000000 1.0
C      1  0.4962770000000  0.4592310000000  0.5027860000000 1.0
C      1  0.5147350000000  0.4049830000000  0.4756330000000 1.0
C      1  0.4704070000000  0.5493640000000  0.5423070000000 1.0
C      1  0.4301440000000  0.4637330000000  0.5497080000000 1.0
C      1  0.4598170000000  0.5360800000000  0.4178940000000 1.0
C      1  0.4383940000000  0.5255110000000  0.5735080000000 1.0
C      1  0.5798260000000  0.5509440000000  0.5346030000000 1.0
C      1  0.4306480000000  0.4462920000000  0.4450370000000 1.0
C      1  0.6102380000000  0.5212980000000  0.5114190000000 1.0
C      1  0.5006570000000  0.5708170000000  0.4501460000000 1.0
C      1  0.4448230000000  0.5351250000000  0.5468340000000 1.0
C      1  0.5931720000000  0.5163950000000  0.4554730000000 1.0
C      1  0.4965640000000  0.5442220000000  0.5980890000000 1.0
C      1  0.5129760000000  0.5080750000000  0.4403340000000 1.0
C      1  0.5329020000000  0.5425940000000  0.4120880000000 1.0
C      1  0.4426730000000  0.5108950000000  0.4559390000000 1.0
C      1  0.5322720000000  0.4958340000000  0.5902970000000 1.0
C      1  0.4306390000000  0.5786410000000  0.5290280000000 1.0
C      1  0.4478530000000  0.5543500000000  0.4339490000000 1.0
C      1  0.5520650000000  0.5276410000000  0.4313310000000 1.0
C      1  0.5489600000000  0.5787170000000  0.4426480000000 1.0
C      1  0.4839940000000  0.4333950000000  0.5689470000000 1.0
C      1  0.4978870000000  0.5371890000000  0.5118910000000 1.0
C      1  0.5341260000000  0.4811090000000  0.4701220000000 1.0
C      1  0.5451270000000  0.5218550000000  0.4814430000000 1.0
C      1  0.5260840000000  0.5019070000000  0.4910500000000 1.0
C      1  0.4912520000000  0.5012160000000  0.5435050000000 1.0
C      1  0.5341030000000  0.4963050000000  0.3969410000000 1.0
C      1  0.5043840000000  0.4555240000000  0.5320450000000 1.0
C      1  0.5121090000000  0.4111970000000  0.5267140000000 1.0
C      1  0.4472450000000  0.5652900000000  0.4586090000000 1.0
C      1  0.5243530000000  0.4324190000000  0.5441570000000 1.0
C      1  0.4580300000000  0.5084790000000  0.4304080000000 1.0
C      1  0.4871630000000  0.4086540000000  0.4737800000000 1.0
C      1  0.4001370000000  0.5381120000000  0.5367680000000 1.0
C      1  0.4000550000000  0.4686950000000  0.4698740000000 1.0
C      1  0.4746320000000  0.5747850000000  0.5579260000000 1.0
C      1  0.4239460000000  0.4715700000000  0.4318880000000 1.0
C      1  0.5053900000000  0.4879090000000  0.3956570000000 1.0
C      1  0.5346000000000  0.4142940000000  0.4564180000000 1.0
C      1  0.4295670000000  0.5534400000000  0.4837330000000 1.0
C      1  0.5546240000000  0.4365190000000  0.5417090000000 1.0
C      1  0.5064840000000  0.5548680000000  0.4199260000000 1.0
C      1  0.5670640000000  0.4820960000000  0.4739270000000 1.0
C      1  0.4486310000000  0.5148900000000  0.5239330000000 1.0
C      1  0.5572140000000  0.5329030000000  0.5229330000000 1.0
C      1  0.5361280000000  0.4865910000000  0.5163990000000 1.0
C      1  0.5361120000000  0.4369620000000  0.4372080000000 1.0
C      1  0.4684430000000  0.4916350000000  0.5262310000000 1.0
C      1  0.5586920000000  0.4143210000000  0.4717150000000 1.0
C      1  0.4509870000000  0.5342080000000  0.5006560000000 1.0
C      1  0.5226500000000  0.5825480000000  0.5046870000000 1.0
C      1  0.4946750000000  0.4656510000000  0.4104790000000 1.0
C      1  0.5085350000000  0.5474250000000  0.4669870000000 1.0
C      1  0.4714510000000  0.4428790000000  0.4918880000000 1.0
C      1  0.4140650000000  0.5141270000000  0.4554230000000 1.0
C      1  0.5700020000000  0.5055620000000  0.4896080000000 1.0
C      1  0.4477480000000  0.4818850000000  0.4196760000000 1.0
C      1  0.5620010000000  0.5027400000000  0.5188740000000 1.0
C      1  0.5978130000000  0.5145060000000  0.4853710000000 1.0
C      1  0.4869420000000  0.5246370000000  0.4694080000000 1.0
C      1  0.6013500000000  0.4752040000000  0.5200270000000 1.0
C      1  0.4360330000000  0.4785020000000  0.4923910000000 1.0
C      1  0.5385700000000  0.5892970000000  0.4817720000000 1.0
C      1  0.4559200000000  0.4626020000000  0.5318940000000 1.0
C      1  0.5105020000000  0.4581930000000  0.5866800000000 1.0
C      1  0.5271380000000  0.5236110000000  0.3919130000000 1.0
C      1  0.4566840000000  0.5375020000000  0.5910980000000 1.0
C      1  0.4585370000000  0.4412250000000  0.4389730000000 1.0
C      1  0.5628690000000  0.5281310000000  0.5682270000000 1.0
C      1  0.4731380000000  0.4129790000000  0.4993530000000 1.0
C      1  0.5504530000000  0.4949900000000  0.4221680000000 1.0
C      1  0.4504690000000  0.4859530000000  0.4697720000000 1.0
C      1  0.4828390000000  0.4149780000000  0.5278960000000 1.0
C      1  0.5595370000000  0.5694310000000  0.4824550000000 1.0
C      1  0.4630900000000  0.4744500000000  0.5926900000000 1.0
C      1  0.4805630000000  0.4526780000000  0.5888650000000 1.0
C      1  0.5806750000000  0.4875620000000  0.5396360000000 1.0
C      1  0.4789940000000  0.4813330000000  0.4663460000000 1.0
C      1  0.5638360000000  0.5582880000000  0.5572600000000 1.0
C      1  0.5181150000000  0.4576840000000  0.4819970000000 1.0
C      1  0.4957900000000  0.5312270000000  0.5417080000000 1.0
C      1  0.4004670000000  0.5114330000000  0.5292460000000 1.0
C      1  0.5716350000000  0.4750080000000  0.4293650000000 1.0
C      1  0.4841660000000  0.4864360000000  0.4986610000000 1.0
C      1  0.5221540000000  0.5851570000000  0.5334580000000 1.0
C      1  0.5700060000000  0.4562430000000  0.4878950000000 1.0
C      1  0.5853500000000  0.5123360000000  0.5554060000000 1.0
C      1  0.4467930000000  0.4541440000000  0.5034070000000 1.0
C      1  0.4656580000000  0.5810940000000  0.4973190000000 1.0
C      1  0.4991200000000  0.5176330000000  0.3916110000000 1.0
C      1  0.5281910000000  0.4842820000000  0.4406320000000 1.0
C      1  0.4150570000000  0.4432620000000  0.4695010000000 1.0
C      1  0.4714030000000  0.5524110000000  0.5117260000000 1.0
C      1  0.4953210000000  0.5904110000000  0.5399000000000 1.0
C      1  0.4863390000000  0.5397700000000  0.4060550000000 1.0
C      1  0.4086400000000  0.5295000000000  0.4795860000000 1.0
C      1  0.4003240000000  0.5096790000000  0.5002600000000 1.0
C      1  0.4719980000000  0.5789720000000  0.4674570000000 1.0
C      1  0.4750410000000  0.5598270000000  0.5848700000000 1.0
C      1  0.4553050000000  0.4053200000000  0.5195570000000 1.0
C      1  0.4988530000000  0.5119870000000  0.4943540000000 1.0
C      1  0.4785860000000  0.4425620000000  0.5410380000000 1.0
C      1  0.5200540000000  0.5431170000000  0.5575530000000 1.0
C      1  0.5442660000000  0.5215420000000  0.5904190000000 1.0
C      1  0.5402670000000  0.4585150000000  0.5012950000000 1.0
C      1  0.4773180000000  0.5225300000000  0.6047050000000 1.0
C      1  0.4071210000000  0.4832410000000  0.4932620000000 1.0
C      1  0.5261440000000  0.5869550000000  0.4556710000000 1.0
C      1  0.5307600000000  0.5286350000000  0.4546550000000 1.0
C      1  0.5122440000000  0.4325940000000  0.5713330000000 1.0
C      1  0.4673070000000  0.4607160000000  0.4186290000000 1.0
C      1  0.5689810000000  0.4248740000000  0.5193880000000 1.0
C      1  0.4388190000000  0.4758790000000  0.5773480000000 1.0
C      1  0.5689400000000  0.5634980000000  0.4555460000000 1.0
C      1  0.4972230000000  0.4558660000000  0.4582000000000 1.0
C      1  0.5838650000000  0.4894150000000  0.4499950000000 1.0
C      1  0.5456880000000  0.5455480000000  0.4982250000000 1.0
C      1  0.4252920000000  0.4347680000000  0.4949710000000 1.0
C      1  0.5280140000000  0.4767390000000  0.5687940000000 1.0
C      1  0.5154720000000  0.4826810000000  0.5407700000000 1.0
C      1  0.5545510000000  0.4102440000000  0.5000490000000 1.0
C      1  0.5137630000000  0.4580270000000  0.4331050000000 1.0
C      1  0.4254230000000  0.5004110000000  0.5720990000000 1.0
C      1  0.5170020000000  0.5544480000000  0.4969780000000 1.0
C      1  0.4060680000000  0.4864930000000  0.4484070000000 1.0
C      1  0.4535750000000  0.5899700000000  0.5412880000000 1.0
C      1  0.4585200000000  0.5250050000000  0.4752960000000 1.0
END
