TITL C-39231-6539-1 0.97307143236658 125000 -499.269374588542 0 0 72 (C1) n - 1
REM
REM in /rds/project/t2_vol4/rds-t2-cs072/BORA/CARBON/from-Arr/AIRSS/Generating-Clusters/GAP-ML-2020/Only-C1/SD-CG/HFTN-CG
REM
REM
REM
REM
REM
REM ./C.cell (11c1c37f851c82e70ff6c80c92926a4b)
REM AIRSS Version 0.9.1 bugfix July 2018 build 013d7b7c2542+ Fri, 06 Jul 2018 19:26:36 +0100
REM compiler GCC version 9.3.0
REM options -cpp -mtune=generic -march=x86-64 -g -O0
REM seed -1467648939 1345087713 1699683210 1553059011 1130139881 -782435109 -1628063138 53921671 -2096686189 33772116 1396653510 -1003444841 2045911828 1743198220 53470138 1602757479 43870418 -1145969716 -1411397769 -1812444562 -846335100 -988880170 1110213424 502596417 613408283 -796248549 1061983383 1086388557 2065226723 1811051896 780142325 1347228434 1397600562
REM
CELL 1.54180   50.00000   50.00000   50.00000   90.00000   90.00000   90.00000
LATT -1
SFAC C  
C      1  0.5060560000000  0.4979290000000  0.5641340000000 1.0
C      1  0.4629190000000  0.5525020000000  0.5345360000000 1.0
C      1  0.5371930000000  0.4349820000000  0.5392940000000 1.0
C      1  0.4577420000000  0.4921640000000  0.5617930000000 1.0
C      1  0.5475160000000  0.4744890000000  0.4499470000000 1.0
C      1  0.4809530000000  0.4339520000000  0.4939540000000 1.0
C      1  0.5079070000000  0.4434640000000  0.4495190000000 1.0
C      1  0.5110980000000  0.5070500000000  0.4498040000000 1.0
C      1  0.4706810000000  0.4326350000000  0.5205010000000 1.0
C      1  0.5813210000000  0.4991650000000  0.4900790000000 1.0
C      1  0.4762530000000  0.5352060000000  0.4366480000000 1.0
C      1  0.4555950000000  0.4585920000000  0.5296930000000 1.0
C      1  0.4491810000000  0.5366270000000  0.4462340000000 1.0
C      1  0.5335040000000  0.5195820000000  0.4390650000000 1.0
C      1  0.4960800000000  0.5536850000000  0.4467410000000 1.0
C      1  0.4797520000000  0.5105490000000  0.5641210000000 1.0
C      1  0.4941730000000  0.4626310000000  0.4349480000000 1.0
C      1  0.5658840000000  0.4613380000000  0.5175020000000 1.0
C      1  0.4323830000000  0.5387150000000  0.4968240000000 1.0
C      1  0.5508170000000  0.4760180000000  0.5384660000000 1.0
C      1  0.5286510000000  0.4889500000000  0.5242200000000 1.0
C      1  0.5012180000000  0.5541540000000  0.5603470000000 1.0
C      1  0.5240410000000  0.5456180000000  0.4460560000000 1.0
C      1  0.4379360000000  0.5404030000000  0.5250080000000 1.0
C      1  0.5650080000000  0.5296870000000  0.5282260000000 1.0
C      1  0.5696410000000  0.5151690000000  0.4685760000000 1.0
C      1  0.4354190000000  0.4971540000000  0.5439170000000 1.0
C      1  0.5798180000000  0.5119950000000  0.5152020000000 1.0
C      1  0.4877770000000  0.4520760000000  0.5623680000000 1.0
C      1  0.4796730000000  0.4748920000000  0.5159190000000 1.0
C      1  0.5502370000000  0.4386710000000  0.5133680000000 1.0
C      1  0.4506120000000  0.4865890000000  0.4519860000000 1.0
C      1  0.4281560000000  0.5131920000000  0.4840800000000 1.0
C      1  0.5081490000000  0.4674980000000  0.5169220000000 1.0
C      1  0.4316310000000  0.4868030000000  0.4955840000000 1.0
C      1  0.5123330000000  0.4382040000000  0.5288960000000 1.0
C      1  0.4252600000000  0.5216990000000  0.5409790000000 1.0
C      1  0.4787430000000  0.5390120000000  0.5560320000000 1.0
C      1  0.5237380000000  0.4637180000000  0.4381250000000 1.0
C      1  0.4694760000000  0.5695760000000  0.4881070000000 1.0
C      1  0.4784080000000  0.5033130000000  0.5149580000000 1.0
C      1  0.5160590000000  0.5677720000000  0.4865820000000 1.0
C      1  0.4741240000000  0.4837110000000  0.4350710000000 1.0
C      1  0.4892600000000  0.4306090000000  0.5421970000000 1.0
C      1  0.5076130000000  0.5665260000000  0.5150360000000 1.0
C      1  0.4730460000000  0.4612180000000  0.4872630000000 1.0
C      1  0.5053960000000  0.4685120000000  0.4876350000000 1.0
C      1  0.5368830000000  0.5556790000000  0.4695530000000 1.0
C      1  0.4480000000000  0.4721520000000  0.4767480000000 1.0
C      1  0.5401580000000  0.4390010000000  0.4863380000000 1.0
C      1  0.5578410000000  0.5393860000000  0.4794050000000 1.0
C      1  0.5729630000000  0.4723980000000  0.4920250000000 1.0
C      1  0.4631630000000  0.4648040000000  0.5582400000000 1.0
C      1  0.5562500000000  0.4593590000000  0.4725530000000 1.0
C      1  0.5270020000000  0.5076820000000  0.5472940000000 1.0
C      1  0.4868580000000  0.5092090000000  0.4344020000000 1.0
C      1  0.4921750000000  0.5689810000000  0.4706080000000 1.0
C      1  0.5552110000000  0.5030560000000  0.4482130000000 1.0
C      1  0.4370810000000  0.5603990000000  0.4529240000000 1.0
C      1  0.4445520000000  0.5583660000000  0.4796300000000 1.0
C      1  0.5342290000000  0.5025130000000  0.4997700000000 1.0
C      1  0.4386470000000  0.5119970000000  0.4571790000000 1.0
C      1  0.5101520000000  0.4388700000000  0.4786550000000 1.0
C      1  0.5117780000000  0.4976370000000  0.4809830000000 1.0
C      1  0.4340460000000  0.4778260000000  0.5224670000000 1.0
C      1  0.5364140000000  0.4579050000000  0.5558020000000 1.0
C      1  0.5195930000000  0.5546670000000  0.5394120000000 1.0
C      1  0.5390810000000  0.5323770000000  0.5415710000000 1.0
C      1  0.5488880000000  0.5288120000000  0.5043620000000 1.0
C      1  0.4784000000000  0.5670410000000  0.5151390000000 1.0
C      1  0.4916340000000  0.5127900000000  0.4944960000000 1.0
C      1  0.5105740000000  0.4690960000000  0.5657700000000 1.0
END
