TITL C-39219-8362-7 0.0920369104166588 125000 -114.190011419479 0 0 18 (C1) n - 1
REM
REM in /rds/project/t2_vol4/rds-t2-cs072/BORA/CARBON/from-Arr/AIRSS/Generating-Clusters/GAP-ML-2020/Only-C1/SD-CG/HFTN-CG
REM
REM
REM
REM
REM
REM ./C.cell (11c1c37f851c82e70ff6c80c92926a4b)
REM AIRSS Version 0.9.1 bugfix July 2018 build 013d7b7c2542+ Fri, 06 Jul 2018 19:26:36 +0100
REM compiler GCC version 9.3.0
REM options -cpp -mtune=generic -march=x86-64 -g -O0
REM seed -508218367 -495430220 343135839 -2099993828 83878253 868358418 1046322614 -857077125 894909125 -274685428 -1107295666 1988724039 191083786 -1215524157 -363112250 -1269863460 1375785853 158638719 -1204364279 1331339209 1537217804 717805790 -2000897002 -586328752 -375434223 -1631570802 1499516315 -1013475165 1819103445 -1000714505 314590537 -838410731 -7952806
REM
CELL 1.54180   50.00000   50.00000   50.00000   90.00000   90.00000   90.00000
LATT -1
SFAC C  
C      1  0.4860150000000  0.4657360000000  0.4868780000000 1.0
C      1  0.4467670000000  0.4854050000000  0.5029040000000 1.0
C      1  0.4726300000000  0.4905040000000  0.4590090000000 1.0
C      1  0.5113930000000  0.5081980000000  0.4931340000000 1.0
C      1  0.5223770000000  0.4736770000000  0.5200900000000 1.0
C      1  0.4844280000000  0.4668050000000  0.4582860000000 1.0
C      1  0.5491490000000  0.5181220000000  0.4592380000000 1.0
C      1  0.5423510000000  0.4799040000000  0.5354800000000 1.0
C      1  0.4612160000000  0.4639700000000  0.5007090000000 1.0
C      1  0.4983460000000  0.5283380000000  0.5118190000000 1.0
C      1  0.4575120000000  0.5095060000000  0.4922960000000 1.0
C      1  0.5270630000000  0.5508650000000  0.5502350000000 1.0
C      1  0.4554310000000  0.5105870000000  0.4631240000000 1.0
C      1  0.5600200000000  0.4841710000000  0.5541830000000 1.0
C      1  0.4717260000000  0.5281610000000  0.5058440000000 1.0
C      1  0.5078290000000  0.4797860000000  0.4984450000000 1.0
C      1  0.5134690000000  0.5417760000000  0.5311010000000 1.0
C      1  0.5322790000000  0.5144890000000  0.4772240000000 1.0
END
