TITL C-39041-1123-6 -126.114070958191 125000 -352.684155556008 0 0 53 (C1) n - 1
REM
REM in /rds/project/t2_vol4/rds-t2-cs072/BORA/CARBON/from-Arr/AIRSS/Generating-Clusters/GAP-ML-2020/Only-C1/SD-CG/HFTN-CG
REM
REM
REM
REM
REM
REM ./C.cell (11c1c37f851c82e70ff6c80c92926a4b)
REM AIRSS Version 0.9.1 bugfix July 2018 build 013d7b7c2542+ Fri, 06 Jul 2018 19:26:36 +0100
REM compiler GCC version 9.3.0
REM options -cpp -mtune=generic -march=x86-64 -g -O0
REM seed 1135542327 1689177562 -1909479742 375311628 1809647997 1499258845 865419452 -1893002209 -1201125465 -619685591 -1506520482 132078647 645771480 -1173440809 1762361082 -1642653821 456786130 -894248283 -642852067 1556173622 547661807 1325237277 -2027518296 -399480095 1469752348 1877993052 -1466759090 -1541396567 -1510194214 -985932964 -1082746999 945175981 1354530468
REM
CELL 1.54180   50.00000   50.00000   50.00000   90.00000   90.00000   90.00000
LATT -1
SFAC C  
C      1  0.4790580000000  0.5104540000000  0.4885160000000 1.0
C      1  0.5638710000000  0.4901830000000  0.5234200000000 1.0
C      1  0.5428470000000  0.4557580000000  0.4610370000000 1.0
C      1  0.4804190000000  0.4551450000000  0.4803240000000 1.0
C      1  0.4745030000000  0.4444920000000  0.5201730000000 1.0
C      1  0.4365790000000  0.5022010000000  0.4862550000000 1.0
C      1  0.5383280000000  0.4388210000000  0.4823950000000 1.0
C      1  0.4473050000000  0.5044590000000  0.5259640000000 1.0
C      1  0.4900390000000  0.4335600000000  0.4985650000000 1.0
C      1  0.5367900000000  0.5075720000000  0.4486510000000 1.0
C      1  0.5255580000000  0.5306700000000  0.5615120000000 1.0
C      1  0.5673700000000  0.5173560000000  0.5235670000000 1.0
C      1  0.5448950000000  0.5308350000000  0.5162600000000 1.0
C      1  0.5024310000000  0.5258870000000  0.4957180000000 1.0
C      1  0.4832070000000  0.4866160000000  0.5496450000000 1.0
C      1  0.5142140000000  0.5241460000000  0.4402550000000 1.0
C      1  0.4626480000000  0.5434500000000  0.4585660000000 1.0
C      1  0.4986020000000  0.5263450000000  0.5698490000000 1.0
C      1  0.5194450000000  0.5456890000000  0.4582430000000 1.0
C      1  0.4794270000000  0.4628860000000  0.4516490000000 1.0
C      1  0.4776540000000  0.5326430000000  0.5515170000000 1.0
C      1  0.4461710000000  0.4965540000000  0.4603850000000 1.0
C      1  0.4467950000000  0.4530690000000  0.5069830000000 1.0
C      1  0.4631460000000  0.5075980000000  0.5475280000000 1.0
C      1  0.5017460000000  0.5536190000000  0.4814600000000 1.0
C      1  0.4508880000000  0.4693220000000  0.4555680000000 1.0
C      1  0.5302550000000  0.5168730000000  0.4939140000000 1.0
C      1  0.5256200000000  0.5421520000000  0.5351420000000 1.0
C      1  0.4799040000000  0.5520380000000  0.5296230000000 1.0
C      1  0.4684590000000  0.5158880000000  0.4566320000000 1.0
C      1  0.5405260000000  0.5278590000000  0.4678060000000 1.0
C      1  0.5267900000000  0.4814420000000  0.4600050000000 1.0
C      1  0.4997930000000  0.4812510000000  0.4463900000000 1.0
C      1  0.5301230000000  0.4435150000000  0.5178410000000 1.0
C      1  0.4454570000000  0.4816860000000  0.5075210000000 1.0
C      1  0.4498850000000  0.4506810000000  0.4787070000000 1.0
C      1  0.4720840000000  0.5565650000000  0.4800490000000 1.0
C      1  0.5182860000000  0.4275500000000  0.4994010000000 1.0
C      1  0.5117800000000  0.5713400000000  0.5012820000000 1.0
C      1  0.5313700000000  0.4864320000000  0.4923720000000 1.0
C      1  0.5597030000000  0.4788500000000  0.4969340000000 1.0
C      1  0.4770960000000  0.4826950000000  0.4989540000000 1.0
C      1  0.5007000000000  0.5283850000000  0.5244280000000 1.0
C      1  0.5628560000000  0.4552020000000  0.4832490000000 1.0
C      1  0.5297050000000  0.5001080000000  0.5592250000000 1.0
C      1  0.4900490000000  0.4714080000000  0.5250210000000 1.0
C      1  0.5395890000000  0.4850150000000  0.5383850000000 1.0
C      1  0.5208350000000  0.4709980000000  0.5192140000000 1.0
C      1  0.4913290000000  0.5076730000000  0.4406100000000 1.0
C      1  0.5025600000000  0.4975960000000  0.5669110000000 1.0
C      1  0.5074720000000  0.5655060000000  0.5275690000000 1.0
C      1  0.4522140000000  0.5225460000000  0.5027200000000 1.0
C      1  0.4616220000000  0.5494140000000  0.5060900000000 1.0
END
