TITL C-39236-6426-5 0.0293528891126454 125000 -108.262260666072 0 0 17 (C1) n - 1
REM
REM in /rds/project/t2_vol4/rds-t2-cs072/BORA/CARBON/from-Arr/AIRSS/Generating-Clusters/GAP-ML-2020/Only-C1/SD-CG/HFTN-CG
REM
REM
REM
REM
REM
REM ./C.cell (11c1c37f851c82e70ff6c80c92926a4b)
REM AIRSS Version 0.9.1 bugfix July 2018 build 013d7b7c2542+ Fri, 06 Jul 2018 19:26:36 +0100
REM compiler GCC version 9.3.0
REM options -cpp -mtune=generic -march=x86-64 -g -O0
REM seed 86450656 -1041676139 478820164 1744907822 1167072954 1089168338 116456940 584266711 -1560458152 2135970650 -459774865 747008664 -933599996 -1098877338 1419119940 -513961380 720295995 1199226625 876156294 -915840351 1542226576 2083910798 -1908076446 -1557105231 670825326 754313769 197071584 -1570133306 -606339245 762476974 -1176250593 1240252941 1935891938
REM
CELL 1.54180   50.00000   50.00000   50.00000   90.00000   90.00000   90.00000
LATT -1
SFAC C  
C      1  0.4706030000000  0.4909030000000  0.5091280000000 1.0
C      1  0.5096580000000  0.5245130000000  0.5444380000000 1.0
C      1  0.5015080000000  0.4673360000000  0.4686280000000 1.0
C      1  0.5114220000000  0.4803740000000  0.4484050000000 1.0
C      1  0.4938320000000  0.4748480000000  0.5103300000000 1.0
C      1  0.5130350000000  0.4820090000000  0.5283660000000 1.0
C      1  0.4771620000000  0.5127890000000  0.4700320000000 1.0
C      1  0.4956400000000  0.5448950000000  0.5385770000000 1.0
C      1  0.5190860000000  0.4996260000000  0.5451020000000 1.0
C      1  0.4973830000000  0.4546290000000  0.4905850000000 1.0
C      1  0.4607610000000  0.5000520000000  0.4846740000000 1.0
C      1  0.5671070000000  0.5153320000000  0.4815600000000 1.0
C      1  0.4977200000000  0.5238920000000  0.4595110000000 1.0
C      1  0.5446930000000  0.5100610000000  0.4711760000000 1.0
C      1  0.4618120000000  0.5000200000000  0.5338400000000 1.0
C      1  0.4585970000000  0.5127260000000  0.5555450000000 1.0
C      1  0.5199830000000  0.5059960000000  0.4601040000000 1.0
END
