TITL C-39055-1184-7 37.3560008695196 125000 -602.24049322894 0 0 88 (C1) n - 1
REM
REM in /rds/project/t2_vol4/rds-t2-cs072/BORA/CARBON/from-Arr/AIRSS/Generating-Clusters/GAP-ML-2020/Only-C1/SD-CG/HFTN-CG
REM
REM
REM
REM
REM
REM ./C.cell (11c1c37f851c82e70ff6c80c92926a4b)
REM AIRSS Version 0.9.1 bugfix July 2018 build 013d7b7c2542+ Fri, 06 Jul 2018 19:26:36 +0100
REM compiler GCC version 9.3.0
REM options -cpp -mtune=generic -march=x86-64 -g -O0
REM seed -618665815 897238658 -1509989564 1246020747 1705696177 1669288668 -556386951 -1766115210 -1444971537 1861673687 -534974758 -1718571618 1266623158 1032980692 71037896 -1362346673 1936632061 -2083513126 -1026184062 1739776871 1223501396 255407776 -1955003478 1475732380 50183652 -1311012178 -1926107231 789104570 -147490195 -868247809 -236104999 -533833012 -867552809
REM
CELL 1.54180   50.00000   50.00000   50.00000   90.00000   90.00000   90.00000
LATT -1
SFAC C  
C      1  0.5057070000000  0.4734300000000  0.5677660000000 1.0
C      1  0.5680630000000  0.4890350000000  0.5085370000000 1.0
C      1  0.5210390000000  0.4879320000000  0.4271800000000 1.0
C      1  0.4380710000000  0.4531680000000  0.4976560000000 1.0
C      1  0.5210940000000  0.4674670000000  0.4726450000000 1.0
C      1  0.4711800000000  0.5436580000000  0.4263920000000 1.0
C      1  0.5277650000000  0.5659880000000  0.5368890000000 1.0
C      1  0.5676470000000  0.4442530000000  0.4910970000000 1.0
C      1  0.4671930000000  0.5616510000000  0.4748850000000 1.0
C      1  0.4543110000000  0.5174410000000  0.4308910000000 1.0
C      1  0.5468390000000  0.4472650000000  0.5375800000000 1.0
C      1  0.5165270000000  0.4977570000000  0.5163620000000 1.0
C      1  0.4424640000000  0.5512850000000  0.5208210000000 1.0
C      1  0.5570180000000  0.5262260000000  0.4553110000000 1.0
C      1  0.4381550000000  0.5250250000000  0.4772470000000 1.0
C      1  0.4898240000000  0.5151630000000  0.5754020000000 1.0
C      1  0.5006090000000  0.5379490000000  0.4985770000000 1.0
C      1  0.5634150000000  0.5360860000000  0.5341870000000 1.0
C      1  0.4740400000000  0.4280520000000  0.5543880000000 1.0
C      1  0.4595290000000  0.4500700000000  0.5630920000000 1.0
C      1  0.4914340000000  0.5109940000000  0.5043140000000 1.0
C      1  0.5033610000000  0.4657840000000  0.4231110000000 1.0
C      1  0.4404270000000  0.5328870000000  0.4504970000000 1.0
C      1  0.4794300000000  0.4969260000000  0.4805110000000 1.0
C      1  0.4836820000000  0.5593970000000  0.5481290000000 1.0
C      1  0.4340730000000  0.4803520000000  0.5044660000000 1.0
C      1  0.5203880000000  0.4499210000000  0.4974050000000 1.0
C      1  0.4761480000000  0.4742240000000  0.5671510000000 1.0
C      1  0.4452510000000  0.4965650000000  0.4821330000000 1.0
C      1  0.5815120000000  0.4704880000000  0.4921820000000 1.0
C      1  0.4910840000000  0.4702860000000  0.4672320000000 1.0
C      1  0.5534380000000  0.5710410000000  0.4700940000000 1.0
C      1  0.4409710000000  0.5032240000000  0.5761140000000 1.0
C      1  0.4827310000000  0.5845310000000  0.5161680000000 1.0
C      1  0.4896740000000  0.5295660000000  0.5490540000000 1.0
C      1  0.5168380000000  0.5212960000000  0.5378780000000 1.0
C      1  0.5007060000000  0.4289890000000  0.5444070000000 1.0
C      1  0.4558610000000  0.5565340000000  0.4479860000000 1.0
C      1  0.4900360000000  0.4194420000000  0.5177980000000 1.0
C      1  0.4754070000000  0.5130630000000  0.5289050000000 1.0
C      1  0.5594850000000  0.4953780000000  0.4543370000000 1.0
C      1  0.5234070000000  0.5438690000000  0.5154590000000 1.0
C      1  0.4573440000000  0.4888520000000  0.4352330000000 1.0
C      1  0.5459550000000  0.4411270000000  0.5091190000000 1.0
C      1  0.5138380000000  0.5005320000000  0.5742450000000 1.0
C      1  0.4981390000000  0.4304650000000  0.4936560000000 1.0
C      1  0.5149810000000  0.4403860000000  0.4365970000000 1.0
C      1  0.5028850000000  0.5780240000000  0.5376020000000 1.0
C      1  0.5341830000000  0.4937500000000  0.4730300000000 1.0
C      1  0.5360290000000  0.5188440000000  0.5608230000000 1.0
C      1  0.5639460000000  0.4490390000000  0.4627670000000 1.0
C      1  0.4805390000000  0.4416080000000  0.4723450000000 1.0
C      1  0.4632520000000  0.4203280000000  0.5273030000000 1.0
C      1  0.4384670000000  0.4555570000000  0.5441090000000 1.0
C      1  0.5595100000000  0.5447190000000  0.4782370000000 1.0
C      1  0.4629480000000  0.5688840000000  0.5304010000000 1.0
C      1  0.4509620000000  0.4516820000000  0.4725950000000 1.0
C      1  0.5091030000000  0.4684230000000  0.5200540000000 1.0
C      1  0.4893300000000  0.5165880000000  0.4604780000000 1.0
C      1  0.4312030000000  0.5325820000000  0.5377060000000 1.0
C      1  0.5495210000000  0.5332140000000  0.5056740000000 1.0
C      1  0.5774790000000  0.4748670000000  0.4640550000000 1.0
C      1  0.5621510000000  0.5114680000000  0.5483990000000 1.0
C      1  0.4670400000000  0.4985510000000  0.5806280000000 1.0
C      1  0.5718680000000  0.4873490000000  0.5367960000000 1.0
C      1  0.4375460000000  0.4833270000000  0.5339400000000 1.0
C      1  0.5281180000000  0.5789720000000  0.4616300000000 1.0
C      1  0.4305330000000  0.5082450000000  0.5503490000000 1.0
C      1  0.5156800000000  0.5084780000000  0.4500800000000 1.0
C      1  0.4807210000000  0.4737480000000  0.4365550000000 1.0
C      1  0.4842120000000  0.5848790000000  0.4877630000000 1.0
C      1  0.5074730000000  0.5911420000000  0.4750570000000 1.0
C      1  0.4801830000000  0.4665510000000  0.5200250000000 1.0
C      1  0.4935110000000  0.5443380000000  0.4713930000000 1.0
C      1  0.4684730000000  0.4860750000000  0.5370230000000 1.0
C      1  0.4961840000000  0.4275820000000  0.4510380000000 1.0
C      1  0.5442150000000  0.5501010000000  0.5527050000000 1.0
C      1  0.5460730000000  0.4794480000000  0.4333790000000 1.0
C      1  0.4464850000000  0.5474880000000  0.4922760000000 1.0
C      1  0.5173440000000  0.4535430000000  0.5465460000000 1.0
C      1  0.5424720000000  0.5029770000000  0.5007600000000 1.0
C      1  0.4449290000000  0.4771600000000  0.4590710000000 1.0
C      1  0.4417540000000  0.4382800000000  0.5218220000000 1.0
C      1  0.5313020000000  0.5319730000000  0.4454380000000 1.0
C      1  0.5693410000000  0.4607270000000  0.5448970000000 1.0
C      1  0.5132200000000  0.5552530000000  0.4487350000000 1.0
C      1  0.5386130000000  0.4542490000000  0.4496840000000 1.0
C      1  0.4951040000000  0.5549640000000  0.4257510000000 1.0
END
