TITL C-3993-1205-3 -30.1099669309006 125000 -572.415426483195 0 0 84 (C1) n - 1
REM
REM in /rds/project/t2_vol4/rds-t2-cs072/BORA/CARBON/from-Arr/AIRSS/Generating-Clusters/GAP-ML-2020/Only-C1/SD-CG/HFTN-CG
REM
REM
REM
REM
REM
REM ./C.cell (11c1c37f851c82e70ff6c80c92926a4b)
REM AIRSS Version 0.9.1 bugfix July 2018 build 013d7b7c2542+ Fri, 06 Jul 2018 19:26:36 +0100
REM compiler GCC version 9.3.0
REM options -cpp -mtune=generic -march=x86-64 -g -O0
REM seed -767978331 1209533165 -512070081 880185389 -393371044 -517722481 -882837895 1306944698 1684640923 1156628251 1482548899 220870791 321524172 1342597374 -1832102710 2003348316 -474958384 -307186096 34298283 1119607117 -618766311 1620061764 -1835425451 -605359912 -172026005 -1991075322 1915178970 1331380305 -1712619287 2083618550 -1039466031 -1777525685 933089144
REM
CELL 1.54180   50.00000   50.00000   50.00000   90.00000   90.00000   90.00000
LATT -1
SFAC C  
C      1  0.5078110000000  0.4663270000000  0.4957700000000 1.0
C      1  0.4595180000000  0.5778000000000  0.5201120000000 1.0
C      1  0.5068210000000  0.4488980000000  0.4388010000000 1.0
C      1  0.5056200000000  0.4708290000000  0.5252840000000 1.0
C      1  0.5227240000000  0.5231400000000  0.5638920000000 1.0
C      1  0.4638740000000  0.4624830000000  0.4252490000000 1.0
C      1  0.4512890000000  0.5401320000000  0.4616510000000 1.0
C      1  0.4305860000000  0.5351540000000  0.5032830000000 1.0
C      1  0.4713410000000  0.5002350000000  0.5173960000000 1.0
C      1  0.5350700000000  0.5537600000000  0.4925190000000 1.0
C      1  0.5536060000000  0.5477280000000  0.5289780000000 1.0
C      1  0.4326660000000  0.4736670000000  0.5408960000000 1.0
C      1  0.5119800000000  0.5047610000000  0.4615100000000 1.0
C      1  0.5238410000000  0.4888220000000  0.4845160000000 1.0
C      1  0.4941420000000  0.4306190000000  0.5468070000000 1.0
C      1  0.5530020000000  0.4471360000000  0.4632220000000 1.0
C      1  0.4713040000000  0.5442170000000  0.4161270000000 1.0
C      1  0.4463870000000  0.4922420000000  0.5586290000000 1.0
C      1  0.4835990000000  0.5423920000000  0.4943970000000 1.0
C      1  0.4823120000000  0.4837320000000  0.4210510000000 1.0
C      1  0.5007690000000  0.4135240000000  0.5261840000000 1.0
C      1  0.4645690000000  0.5830720000000  0.5467720000000 1.0
C      1  0.5608850000000  0.5177890000000  0.4693260000000 1.0
C      1  0.4983640000000  0.4201020000000  0.4997810000000 1.0
C      1  0.5096850000000  0.5428890000000  0.5068870000000 1.0
C      1  0.5744150000000  0.4781930000000  0.4918800000000 1.0
C      1  0.4726930000000  0.5160610000000  0.4903150000000 1.0
C      1  0.5097560000000  0.4747140000000  0.4264510000000 1.0
C      1  0.5765670000000  0.4792970000000  0.5486940000000 1.0
C      1  0.4892600000000  0.4925870000000  0.5774200000000 1.0
C      1  0.5667940000000  0.4723920000000  0.4651370000000 1.0
C      1  0.4453400000000  0.4781850000000  0.4417230000000 1.0
C      1  0.4233300000000  0.4888770000000  0.5166700000000 1.0
C      1  0.4663870000000  0.4346860000000  0.5395160000000 1.0
C      1  0.5565520000000  0.4951780000000  0.4521710000000 1.0
C      1  0.4946770000000  0.5157280000000  0.5594900000000 1.0
C      1  0.5432110000000  0.5405790000000  0.4689300000000 1.0
C      1  0.4276320000000  0.5163430000000  0.5238690000000 1.0
C      1  0.5199790000000  0.4372710000000  0.4872380000000 1.0
C      1  0.4811300000000  0.4716430000000  0.4815870000000 1.0
C      1  0.4623810000000  0.4893960000000  0.5815010000000 1.0
C      1  0.5139390000000  0.4770770000000  0.5727850000000 1.0
C      1  0.5309570000000  0.4940170000000  0.4350900000000 1.0
C      1  0.4364060000000  0.4852470000000  0.4899090000000 1.0
C      1  0.4776940000000  0.4439700000000  0.4416710000000 1.0
C      1  0.5388790000000  0.5004210000000  0.5049580000000 1.0
C      1  0.4435560000000  0.5188140000000  0.4826700000000 1.0
C      1  0.4612870000000  0.4755970000000  0.5035920000000 1.0
C      1  0.5765070000000  0.5068870000000  0.5437730000000 1.0
C      1  0.4422050000000  0.4468550000000  0.5382450000000 1.0
C      1  0.4649040000000  0.5605950000000  0.4813370000000 1.0
C      1  0.4585020000000  0.4459200000000  0.5127830000000 1.0
C      1  0.5469830000000  0.5697060000000  0.5120930000000 1.0
C      1  0.5315960000000  0.5180470000000  0.4198660000000 1.0
C      1  0.4658950000000  0.5011510000000  0.4405180000000 1.0
C      1  0.4439390000000  0.5597430000000  0.5031570000000 1.0
C      1  0.4812010000000  0.5606040000000  0.5474550000000 1.0
C      1  0.4950880000000  0.5510910000000  0.4112630000000 1.0
C      1  0.4584710000000  0.5301400000000  0.4367500000000 1.0
C      1  0.5256090000000  0.4397100000000  0.4574370000000 1.0
C      1  0.5670770000000  0.5080150000000  0.4968160000000 1.0
C      1  0.5666290000000  0.4551300000000  0.5074480000000 1.0
C      1  0.5170280000000  0.5401170000000  0.4252280000000 1.0
C      1  0.5217730000000  0.5836470000000  0.5210450000000 1.0
C      1  0.5098020000000  0.5602010000000  0.5352110000000 1.0
C      1  0.4830530000000  0.4984150000000  0.4665560000000 1.0
C      1  0.4665190000000  0.4472640000000  0.4687320000000 1.0
C      1  0.5196800000000  0.5337570000000  0.4541660000000 1.0
C      1  0.4976510000000  0.4987090000000  0.5292520000000 1.0
C      1  0.4528890000000  0.5145710000000  0.5398800000000 1.0
C      1  0.4716620000000  0.4304490000000  0.4924030000000 1.0
C      1  0.5627590000000  0.4961560000000  0.5665610000000 1.0
C      1  0.4780650000000  0.5850820000000  0.4974020000000 1.0
C      1  0.5147210000000  0.4537830000000  0.5516010000000 1.0
C      1  0.4731360000000  0.5336570000000  0.5520550000000 1.0
C      1  0.5713450000000  0.5247710000000  0.5222810000000 1.0
C      1  0.5169130000000  0.5149010000000  0.5141820000000 1.0
C      1  0.5639280000000  0.4563400000000  0.5359570000000 1.0
C      1  0.5342390000000  0.4979060000000  0.5704720000000 1.0
C      1  0.4396480000000  0.4664230000000  0.4665860000000 1.0
C      1  0.5025200000000  0.5933120000000  0.5036600000000 1.0
C      1  0.5410040000000  0.4455280000000  0.5454810000000 1.0
C      1  0.5504860000000  0.4380530000000  0.4910550000000 1.0
C      1  0.5319860000000  0.5456410000000  0.5489900000000 1.0
END
