TITL C-3971-7764-12 0.0169497434547082 125000 -479.943871524289 0 0 69 (C1) n - 1
REM
REM in /rds/project/t2_vol4/rds-t2-cs072/BORA/CARBON/from-Arr/AIRSS/Generating-Clusters/GAP-ML-2020/Only-C1/SD-CG/HFTN-CG
REM
REM
REM
REM
REM
REM ./C.cell (11c1c37f851c82e70ff6c80c92926a4b)
REM AIRSS Version 0.9.1 bugfix July 2018 build 013d7b7c2542+ Fri, 06 Jul 2018 19:26:36 +0100
REM compiler GCC version 9.3.0
REM options -cpp -mtune=generic -march=x86-64 -g -O0
REM seed -2036664923 473747905 1444670525 -508143767 -685633540 1931853852 -324949994 1420117692 -1777528576 -1093023724 -1797129867 735567408 -2100963867 -1303832156 -1406570018 -1032352541 -1309739558 1503085624 -1042744675 1621289748 -1140174434 400880951 212049922 -1596664110 -669500785 2085673453 1350784337 867677921 744516535 1410662058 -1267472797 -1907239853 -673678008
REM
CELL 1.54180   50.00000   50.00000   50.00000   90.00000   90.00000   90.00000
LATT -1
SFAC C  
C      1  0.4961690000000  0.4611700000000  0.4401030000000 1.0
C      1  0.5027200000000  0.5630800000000  0.5464270000000 1.0
C      1  0.5348750000000  0.4905520000000  0.4403160000000 1.0
C      1  0.5654820000000  0.4817580000000  0.4784050000000 1.0
C      1  0.4580810000000  0.5319950000000  0.5155930000000 1.0
C      1  0.4586910000000  0.5418820000000  0.4504360000000 1.0
C      1  0.4515660000000  0.4600940000000  0.4636770000000 1.0
C      1  0.4468810000000  0.5453060000000  0.4745440000000 1.0
C      1  0.5479760000000  0.4715650000000  0.4578520000000 1.0
C      1  0.4704310000000  0.4724210000000  0.5564740000000 1.0
C      1  0.5094750000000  0.5242840000000  0.5241140000000 1.0
C      1  0.4409480000000  0.5134950000000  0.5533880000000 1.0
C      1  0.4840860000000  0.5056870000000  0.4306690000000 1.0
C      1  0.4366110000000  0.4744560000000  0.5225970000000 1.0
C      1  0.5559280000000  0.5405860000000  0.5223570000000 1.0
C      1  0.4462450000000  0.4852780000000  0.5482580000000 1.0
C      1  0.5352590000000  0.4467120000000  0.4640570000000 1.0
C      1  0.5507630000000  0.5514090000000  0.4616840000000 1.0
C      1  0.5065990000000  0.4856840000000  0.4987720000000 1.0
C      1  0.5412200000000  0.4734060000000  0.5448510000000 1.0
C      1  0.5464340000000  0.5160120000000  0.4412090000000 1.0
C      1  0.5069610000000  0.4440710000000  0.4594910000000 1.0
C      1  0.4943610000000  0.4895570000000  0.5619150000000 1.0
C      1  0.4550460000000  0.4536200000000  0.5139340000000 1.0
C      1  0.4262250000000  0.5282550000000  0.4839120000000 1.0
C      1  0.5503440000000  0.5497190000000  0.5477530000000 1.0
C      1  0.4384180000000  0.4860500000000  0.4573870000000 1.0
C      1  0.4668700000000  0.5274430000000  0.5450820000000 1.0
C      1  0.4892840000000  0.4365460000000  0.4819340000000 1.0
C      1  0.5348370000000  0.5631340000000  0.4811410000000 1.0
C      1  0.4636420000000  0.5539320000000  0.4967670000000 1.0
C      1  0.5363800000000  0.5574100000000  0.5082280000000 1.0
C      1  0.4823500000000  0.5341880000000  0.4384560000000 1.0
C      1  0.4840130000000  0.4857060000000  0.5185360000000 1.0
C      1  0.5070010000000  0.4868180000000  0.4323330000000 1.0
C      1  0.5608460000000  0.4861500000000  0.5252560000000 1.0
C      1  0.4901330000000  0.5640240000000  0.4953830000000 1.0
C      1  0.5162130000000  0.5125820000000  0.4984920000000 1.0
C      1  0.5016110000000  0.4410970000000  0.5298880000000 1.0
C      1  0.5644180000000  0.5134280000000  0.5134050000000 1.0
C      1  0.5128590000000  0.5061090000000  0.5776920000000 1.0
C      1  0.4850270000000  0.5455440000000  0.5607940000000 1.0
C      1  0.5292870000000  0.4475800000000  0.5374350000000 1.0
C      1  0.4927890000000  0.5051700000000  0.4844170000000 1.0
C      1  0.4887750000000  0.5073490000000  0.5373530000000 1.0
C      1  0.5321620000000  0.5413310000000  0.4409760000000 1.0
C      1  0.4242730000000  0.4929120000000  0.5059740000000 1.0
C      1  0.5641100000000  0.5260270000000  0.4628780000000 1.0
C      1  0.5642870000000  0.4407140000000  0.5041550000000 1.0
C      1  0.4597870000000  0.4904080000000  0.4362960000000 1.0
C      1  0.4627940000000  0.4473030000000  0.4868270000000 1.0
C      1  0.5078530000000  0.5567330000000  0.5185850000000 1.0
C      1  0.4247500000000  0.5004840000000  0.4777400000000 1.0
C      1  0.5668190000000  0.4683740000000  0.5035530000000 1.0
C      1  0.5270960000000  0.5529220000000  0.5606650000000 1.0
C      1  0.5071660000000  0.5644690000000  0.4721840000000 1.0
C      1  0.4685370000000  0.4631970000000  0.4409310000000 1.0
C      1  0.5230540000000  0.4840280000000  0.5637250000000 1.0
C      1  0.5300850000000  0.4176460000000  0.5014300000000 1.0
C      1  0.5057450000000  0.5497080000000  0.4467230000000 1.0
C      1  0.5038500000000  0.4277350000000  0.5045480000000 1.0
C      1  0.4774380000000  0.4564270000000  0.5333730000000 1.0
C      1  0.4188160000000  0.5260350000000  0.5399780000000 1.0
C      1  0.5685060000000  0.5093060000000  0.4848240000000 1.0
C      1  0.5478780000000  0.4289230000000  0.4818810000000 1.0
C      1  0.4280830000000  0.5235460000000  0.5138460000000 1.0
C      1  0.5091980000000  0.5338900000000  0.5731420000000 1.0
C      1  0.5459010000000  0.4296970000000  0.5231270000000 1.0
C      1  0.4676860000000  0.5058700000000  0.4998720000000 1.0
END
