TITL C-39238-6503-10 0.0315586207091806 125000 -321.684419880326 0 0 46 (C1) n - 1
REM
REM in /rds/project/t2_vol4/rds-t2-cs072/BORA/CARBON/from-Arr/AIRSS/Generating-Clusters/GAP-ML-2020/Only-C1/SD-CG/HFTN-CG
REM
REM
REM
REM
REM
REM ./C.cell (11c1c37f851c82e70ff6c80c92926a4b)
REM AIRSS Version 0.9.1 bugfix July 2018 build 013d7b7c2542+ Fri, 06 Jul 2018 19:26:36 +0100
REM compiler GCC version 9.3.0
REM options -cpp -mtune=generic -march=x86-64 -g -O0
REM seed 1231168055 -403762983 1490373272 -1083213867 783803015 -54031358 40197970 1640744349 1695905568 -2037527094 991291257 2071281774 -1896286745 -2017662219 852113818 617714671 -1937006263 -1380835834 1690153553 -1915625182 -1903074791 1671683000 -415864644 -1005460259 -1257223411 1842170627 1046954454 -138595865 -794198072 -1144982911 1743171914 535983653 -1933297743
REM
CELL 1.54180   50.00000   50.00000   50.00000   90.00000   90.00000   90.00000
LATT -1
SFAC C  
C      1  0.5400100000000  0.4477410000000  0.4539290000000 1.0
C      1  0.4489870000000  0.5196660000000  0.5213830000000 1.0
C      1  0.4782390000000  0.4416600000000  0.4889450000000 1.0
C      1  0.4522330000000  0.4856850000000  0.5562600000000 1.0
C      1  0.5337300000000  0.4959810000000  0.4576300000000 1.0
C      1  0.5484670000000  0.5218670000000  0.5064610000000 1.0
C      1  0.5047250000000  0.5301090000000  0.4350800000000 1.0
C      1  0.4803720000000  0.5604760000000  0.4997620000000 1.0
C      1  0.5046010000000  0.5143590000000  0.5616710000000 1.0
C      1  0.4961780000000  0.5589310000000  0.5441090000000 1.0
C      1  0.5217620000000  0.4722230000000  0.5504340000000 1.0
C      1  0.4557950000000  0.5190780000000  0.4927580000000 1.0
C      1  0.5190650000000  0.5580730000000  0.5270080000000 1.0
C      1  0.4455820000000  0.4928730000000  0.5306920000000 1.0
C      1  0.5428980000000  0.4712160000000  0.4684160000000 1.0
C      1  0.5459370000000  0.5208290000000  0.4544670000000 1.0
C      1  0.4903520000000  0.5081180000000  0.4254560000000 1.0
C      1  0.5314830000000  0.5175120000000  0.5502410000000 1.0
C      1  0.5444800000000  0.5334620000000  0.4805020000000 1.0
C      1  0.5000990000000  0.4859250000000  0.5638870000000 1.0
C      1  0.4608500000000  0.5380920000000  0.5389250000000 1.0
C      1  0.4609850000000  0.4792460000000  0.4615160000000 1.0
C      1  0.4724790000000  0.5611700000000  0.5265890000000 1.0
C      1  0.5094040000000  0.5620380000000  0.5004520000000 1.0
C      1  0.4699320000000  0.4523580000000  0.4638830000000 1.0
C      1  0.4983230000000  0.5315940000000  0.4658140000000 1.0
C      1  0.4759120000000  0.4721650000000  0.5569690000000 1.0
C      1  0.4855970000000  0.5350910000000  0.5566020000000 1.0
C      1  0.5231530000000  0.4496630000000  0.5072990000000 1.0
C      1  0.4489440000000  0.4750440000000  0.5087080000000 1.0
C      1  0.5379880000000  0.5365360000000  0.5299320000000 1.0
C      1  0.5063120000000  0.4379840000000  0.4869490000000 1.0
C      1  0.5479110000000  0.4929930000000  0.5137570000000 1.0
C      1  0.5325960000000  0.5336350000000  0.4333410000000 1.0
C      1  0.4920730000000  0.4568330000000  0.4464070000000 1.0
C      1  0.5400850000000  0.4915540000000  0.5410540000000 1.0
C      1  0.5054550000000  0.5015750000000  0.4626220000000 1.0
C      1  0.4663560000000  0.4523070000000  0.5125480000000 1.0
C      1  0.4732750000000  0.5387250000000  0.4814170000000 1.0
C      1  0.5112090000000  0.4527130000000  0.5328410000000 1.0
C      1  0.4521830000000  0.4915110000000  0.4847980000000 1.0
C      1  0.5196190000000  0.5474840000000  0.4793580000000 1.0
C      1  0.4822940000000  0.4524450000000  0.5363380000000 1.0
C      1  0.4860250000000  0.4873710000000  0.4454960000000 1.0
C      1  0.5420660000000  0.4698540000000  0.4975940000000 1.0
C      1  0.5139780000000  0.4442380000000  0.4597000000000 1.0
END
