TITL C-39029-1156-7 0.501136046977836 125000 -371.680440748371 0 0 55 (C1) n - 1
REM
REM in /rds/project/t2_vol4/rds-t2-cs072/BORA/CARBON/from-Arr/AIRSS/Generating-Clusters/GAP-ML-2020/Only-C1/SD-CG/HFTN-CG
REM
REM
REM
REM
REM
REM ./C.cell (11c1c37f851c82e70ff6c80c92926a4b)
REM AIRSS Version 0.9.1 bugfix July 2018 build 013d7b7c2542+ Fri, 06 Jul 2018 19:26:36 +0100
REM compiler GCC version 9.3.0
REM options -cpp -mtune=generic -march=x86-64 -g -O0
REM seed -865774351 -741734499 1367649920 1434468227 1234242885 271227385 -1296466350 1051755377 -1964851628 1331166678 -730901134 1113237948 -1634607134 -1012291323 -2038011396 -1228193322 1629087591 312242667 -1779960117 -673199832 -2086212626 1195463280 -324048215 -1090415081 196153606 -1839868085 -1982410699 -1723227902 1740523577 1882895265 -2009569254 -183259512 1783328278
REM
CELL 1.54180   50.00000   50.00000   50.00000   90.00000   90.00000   90.00000
LATT -1
SFAC C  
C      1  0.5626980000000  0.4769550000000  0.4933360000000 1.0
C      1  0.4451070000000  0.5283190000000  0.4620260000000 1.0
C      1  0.5184870000000  0.5772550000000  0.5060900000000 1.0
C      1  0.4899910000000  0.5284160000000  0.4512570000000 1.0
C      1  0.4548410000000  0.4548160000000  0.5179620000000 1.0
C      1  0.5025550000000  0.5679840000000  0.4839850000000 1.0
C      1  0.5114620000000  0.5093180000000  0.4972010000000 1.0
C      1  0.4732330000000  0.4853890000000  0.4758280000000 1.0
C      1  0.5565690000000  0.5549410000000  0.5247000000000 1.0
C      1  0.5296330000000  0.5100980000000  0.5492300000000 1.0
C      1  0.4574680000000  0.5179270000000  0.5483410000000 1.0
C      1  0.4625910000000  0.4925010000000  0.5588630000000 1.0
C      1  0.5540150000000  0.5060550000000  0.5333170000000 1.0
C      1  0.4406780000000  0.5050700000000  0.4469690000000 1.0
C      1  0.4820590000000  0.4220450000000  0.5018310000000 1.0
C      1  0.4497610000000  0.4950560000000  0.4936100000000 1.0
C      1  0.5123000000000  0.5714200000000  0.5331340000000 1.0
C      1  0.4466690000000  0.5231980000000  0.4903910000000 1.0
C      1  0.5274390000000  0.4707790000000  0.5237300000000 1.0
C      1  0.5468820000000  0.5494950000000  0.4801640000000 1.0
C      1  0.5107270000000  0.5218580000000  0.4698210000000 1.0
C      1  0.4947550000000  0.5090740000000  0.5201130000000 1.0
C      1  0.4680090000000  0.5451660000000  0.4579650000000 1.0
C      1  0.4638020000000  0.5418060000000  0.5038940000000 1.0
C      1  0.5543260000000  0.4806910000000  0.5213880000000 1.0
C      1  0.5219830000000  0.5368520000000  0.5541030000000 1.0
C      1  0.5089400000000  0.4898350000000  0.5409200000000 1.0
C      1  0.4659820000000  0.4388390000000  0.4671470000000 1.0
C      1  0.5317850000000  0.4342440000000  0.4949020000000 1.0
C      1  0.4474530000000  0.4812890000000  0.4404320000000 1.0
C      1  0.5619080000000  0.5249590000000  0.4879490000000 1.0
C      1  0.5176620000000  0.4352720000000  0.4711800000000 1.0
C      1  0.5223120000000  0.4416730000000  0.5194470000000 1.0
C      1  0.4918190000000  0.5006040000000  0.4551680000000 1.0
C      1  0.5200750000000  0.5492240000000  0.4697770000000 1.0
C      1  0.4850320000000  0.4760840000000  0.5515230000000 1.0
C      1  0.4411360000000  0.4959320000000  0.5415850000000 1.0
C      1  0.4911290000000  0.4249890000000  0.4742670000000 1.0
C      1  0.4993930000000  0.4734240000000  0.4452860000000 1.0
C      1  0.4926810000000  0.4696850000000  0.4916900000000 1.0
C      1  0.4967900000000  0.5494110000000  0.5433930000000 1.0
C      1  0.4433800000000  0.4810450000000  0.5165690000000 1.0
C      1  0.5224030000000  0.4604600000000  0.4558670000000 1.0
C      1  0.5402650000000  0.4760960000000  0.4744560000000 1.0
C      1  0.5463790000000  0.5683750000000  0.5013460000000 1.0
C      1  0.4954770000000  0.4340200000000  0.5237160000000 1.0
C      1  0.4578550000000  0.4366200000000  0.4960130000000 1.0
C      1  0.5623650000000  0.4991570000000  0.4773520000000 1.0
C      1  0.5646600000000  0.5280940000000  0.5175420000000 1.0
C      1  0.5187560000000  0.4815120000000  0.4957010000000 1.0
C      1  0.4688610000000  0.4642750000000  0.4530570000000 1.0
C      1  0.4771660000000  0.5322980000000  0.5295980000000 1.0
C      1  0.4751950000000  0.5588560000000  0.4839820000000 1.0
C      1  0.4776220000000  0.4527680000000  0.5361550000000 1.0
C      1  0.5374790000000  0.5584780000000  0.5447310000000 1.0
END
