TITL C-39053-1113-10 -37.2085164214956 125000 -637.801658710877 0 0 89 (C1) n - 1
REM
REM in /rds/project/t2_vol4/rds-t2-cs072/BORA/CARBON/from-Arr/AIRSS/Generating-Clusters/GAP-ML-2020/Only-C1/SD-CG/HFTN-CG
REM
REM
REM
REM
REM
REM ./C.cell (11c1c37f851c82e70ff6c80c92926a4b)
REM AIRSS Version 0.9.1 bugfix July 2018 build 013d7b7c2542+ Fri, 06 Jul 2018 19:26:36 +0100
REM compiler GCC version 9.3.0
REM options -cpp -mtune=generic -march=x86-64 -g -O0
REM seed 965591307 -415220268 1525042510 742566746 -1882441739 -1381767350 1670555784 1022943172 -1291034009 1895465558 22329866 1252387779 -1538954744 -602808830 -1260074292 -179836680 1663166761 -2026022869 2099398832 1436548388 -1133643414 2139245226 -69358463 1874782407 2036689535 1752031931 1901016989 603133011 1361025691 1128147017 -556509482 87273502 -810057664
REM
CELL 1.54180   50.00000   50.00000   50.00000   90.00000   90.00000   90.00000
LATT -1
SFAC C  
C      1  0.5042860000000  0.5318540000000  0.4188800000000 1.0
C      1  0.4329300000000  0.4600700000000  0.5286210000000 1.0
C      1  0.4354800000000  0.5561370000000  0.4730390000000 1.0
C      1  0.5307700000000  0.4408860000000  0.5444260000000 1.0
C      1  0.4450810000000  0.5708250000000  0.4957170000000 1.0
C      1  0.5185120000000  0.4572940000000  0.5647570000000 1.0
C      1  0.4905900000000  0.4609670000000  0.5668850000000 1.0
C      1  0.4919330000000  0.5705660000000  0.5092120000000 1.0
C      1  0.4489580000000  0.5088260000000  0.4611470000000 1.0
C      1  0.5183720000000  0.4266390000000  0.5219090000000 1.0
C      1  0.4327170000000  0.5277880000000  0.4796540000000 1.0
C      1  0.5389820000000  0.5545360000000  0.4515010000000 1.0
C      1  0.4468440000000  0.4634650000000  0.5527870000000 1.0
C      1  0.4263290000000  0.5096110000000  0.5289930000000 1.0
C      1  0.5186030000000  0.5104900000000  0.5170350000000 1.0
C      1  0.4697120000000  0.4466540000000  0.5530740000000 1.0
C      1  0.4913100000000  0.5196220000000  0.5175350000000 1.0
C      1  0.5556490000000  0.5116900000000  0.4335940000000 1.0
C      1  0.4927640000000  0.4732010000000  0.5099620000000 1.0
C      1  0.5853080000000  0.5006180000000  0.4666930000000 1.0
C      1  0.5302650000000  0.4424890000000  0.4709030000000 1.0
C      1  0.4824290000000  0.5689630000000  0.5370930000000 1.0
C      1  0.4193280000000  0.4816160000000  0.4911620000000 1.0
C      1  0.5049970000000  0.5078060000000  0.4707310000000 1.0
C      1  0.4787230000000  0.4469340000000  0.4515300000000 1.0
C      1  0.5238230000000  0.5660360000000  0.4741360000000 1.0
C      1  0.4818280000000  0.5150750000000  0.4223050000000 1.0
C      1  0.5216770000000  0.5700620000000  0.5028080000000 1.0
C      1  0.5573060000000  0.4706790000000  0.4411080000000 1.0
C      1  0.4687590000000  0.4303980000000  0.5291860000000 1.0
C      1  0.4989730000000  0.5612980000000  0.4583560000000 1.0
C      1  0.4212950000000  0.4835420000000  0.5178980000000 1.0
C      1  0.5856690000000  0.4838510000000  0.4894810000000 1.0
C      1  0.4914550000000  0.4158560000000  0.5188470000000 1.0
C      1  0.4425820000000  0.4802980000000  0.4525430000000 1.0
C      1  0.4799390000000  0.4873150000000  0.5731670000000 1.0
C      1  0.5350660000000  0.4805520000000  0.5728650000000 1.0
C      1  0.5347740000000  0.4331160000000  0.4986460000000 1.0
C      1  0.4577120000000  0.5243980000000  0.4349220000000 1.0
C      1  0.4396180000000  0.5550060000000  0.5182000000000 1.0
C      1  0.4458860000000  0.4395880000000  0.5131730000000 1.0
C      1  0.4761000000000  0.4972350000000  0.5095670000000 1.0
C      1  0.4289700000000  0.5296900000000  0.5093170000000 1.0
C      1  0.4849560000000  0.3955290000000  0.4986160000000 1.0
C      1  0.5769630000000  0.5273090000000  0.4727950000000 1.0
C      1  0.5720290000000  0.4587060000000  0.4867910000000 1.0
C      1  0.5246600000000  0.5078420000000  0.5736010000000 1.0
C      1  0.4563620000000  0.5573870000000  0.5403150000000 1.0
C      1  0.4415420000000  0.5126030000000  0.5536250000000 1.0
C      1  0.5752400000000  0.4924890000000  0.4424750000000 1.0
C      1  0.4750910000000  0.5765460000000  0.4626770000000 1.0
C      1  0.5595790000000  0.5355560000000  0.4506850000000 1.0
C      1  0.5664870000000  0.4742270000000  0.5506260000000 1.0
C      1  0.4855170000000  0.4875390000000  0.4295010000000 1.0
C      1  0.5256920000000  0.5010790000000  0.4908310000000 1.0
C      1  0.4879300000000  0.4687630000000  0.4820320000000 1.0
C      1  0.4432190000000  0.4407230000000  0.4845710000000 1.0
C      1  0.4842420000000  0.5350210000000  0.5687460000000 1.0
C      1  0.5387630000000  0.5598460000000  0.5239680000000 1.0
C      1  0.4772390000000  0.4971970000000  0.4793400000000 1.0
C      1  0.4727290000000  0.4037330000000  0.4779580000000 1.0
C      1  0.4654790000000  0.4690440000000  0.4385860000000 1.0
C      1  0.4965250000000  0.5105400000000  0.5755680000000 1.0
C      1  0.5363820000000  0.4885790000000  0.4310250000000 1.0
C      1  0.5773090000000  0.5292190000000  0.5017570000000 1.0
C      1  0.5554280000000  0.4540910000000  0.4634850000000 1.0
C      1  0.5562560000000  0.4506590000000  0.5360180000000 1.0
C      1  0.4994150000000  0.5561060000000  0.5557320000000 1.0
C      1  0.5266560000000  0.5522620000000  0.5498840000000 1.0
C      1  0.4313470000000  0.4648610000000  0.4736920000000 1.0
C      1  0.4875150000000  0.5404480000000  0.4998310000000 1.0
C      1  0.5746940000000  0.4992230000000  0.5381410000000 1.0
C      1  0.5058320000000  0.4573950000000  0.4604830000000 1.0
C      1  0.4967230000000  0.5359690000000  0.4743390000000 1.0
C      1  0.4632850000000  0.4279950000000  0.4677460000000 1.0
C      1  0.4509900000000  0.5648950000000  0.4509700000000 1.0
C      1  0.4501120000000  0.5500800000000  0.4284230000000 1.0
C      1  0.5395700000000  0.5288450000000  0.5613330000000 1.0
C      1  0.5624910000000  0.5427050000000  0.5225750000000 1.0
C      1  0.4529760000000  0.4888560000000  0.5639530000000 1.0
C      1  0.5146890000000  0.5507130000000  0.4346570000000 1.0
C      1  0.5592660000000  0.4448410000000  0.5082560000000 1.0
C      1  0.4573150000000  0.5358390000000  0.5585810000000 1.0
C      1  0.4710960000000  0.5809850000000  0.4904750000000 1.0
C      1  0.5193580000000  0.4832210000000  0.5120720000000 1.0
C      1  0.5620040000000  0.4758520000000  0.5782450000000 1.0
C      1  0.5839670000000  0.5023970000000  0.5116040000000 1.0
C      1  0.5623940000000  0.5241640000000  0.5450970000000 1.0
C      1  0.5103820000000  0.4845820000000  0.4449520000000 1.0
END
