TITL C-39047-4542-5 -0.0293305089998245 125000 -773.462500533582 0 0 113 (C1) n - 1
REM
REM in /rds/project/t2_vol4/rds-t2-cs072/BORA/CARBON/from-Arr/AIRSS/Generating-Clusters/GAP-ML-2020/Only-C1/SD-CG/HFTN-CG
REM
REM
REM
REM
REM
REM ./C.cell (11c1c37f851c82e70ff6c80c92926a4b)
REM AIRSS Version 0.9.1 bugfix July 2018 build 013d7b7c2542+ Fri, 06 Jul 2018 19:26:36 +0100
REM compiler GCC version 9.3.0
REM options -cpp -mtune=generic -march=x86-64 -g -O0
REM seed -219918176 1154575246 -1714978312 -99872230 -1134310342 852392036 -94385089 1234614075 1733987566 -759515509 2071152939 1387432133 -1119264703 -2001665756 1780244839 1867366729 415934054 792685405 -273334131 222402186 897840625 -1378235697 -1185374149 -366502345 -1070940258 -886947256 493003374 -958231029 336693047 209593048 1972754742 677304076 -2138691976
REM
CELL 1.54180   50.00000   50.00000   50.00000   90.00000   90.00000   90.00000
LATT -1
SFAC C  
C      1  0.5396920000000  0.5121100000000  0.5154190000000 1.0
C      1  0.4436130000000  0.4728570000000  0.5670790000000 1.0
C      1  0.5651510000000  0.4414490000000  0.4718950000000 1.0
C      1  0.4811710000000  0.5275550000000  0.5371660000000 1.0
C      1  0.5557210000000  0.5543200000000  0.4360840000000 1.0
C      1  0.4065570000000  0.4990510000000  0.4652580000000 1.0
C      1  0.5665150000000  0.4487440000000  0.5236220000000 1.0
C      1  0.5800620000000  0.4722440000000  0.5373120000000 1.0
C      1  0.4166580000000  0.4623190000000  0.5304600000000 1.0
C      1  0.4721350000000  0.5045890000000  0.5854620000000 1.0
C      1  0.5823310000000  0.4958080000000  0.5185340000000 1.0
C      1  0.4580420000000  0.4937540000000  0.4375180000000 1.0
C      1  0.5305240000000  0.5671270000000  0.4410700000000 1.0
C      1  0.5068730000000  0.5556150000000  0.4316120000000 1.0
C      1  0.4348000000000  0.4516230000000  0.5498630000000 1.0
C      1  0.5039790000000  0.5125690000000  0.5455810000000 1.0
C      1  0.5563780000000  0.5255050000000  0.4321360000000 1.0
C      1  0.5085030000000  0.5707590000000  0.5432310000000 1.0
C      1  0.4436590000000  0.5547280000000  0.5372430000000 1.0
C      1  0.5331130000000  0.5725750000000  0.4708990000000 1.0
C      1  0.5584500000000  0.4642670000000  0.4552210000000 1.0
C      1  0.4141870000000  0.4864340000000  0.4905570000000 1.0
C      1  0.4122870000000  0.4889940000000  0.5383860000000 1.0
C      1  0.5851270000000  0.5358400000000  0.4997260000000 1.0
C      1  0.4111790000000  0.5263660000000  0.5126500000000 1.0
C      1  0.4501040000000  0.5462080000000  0.5647820000000 1.0
C      1  0.5554450000000  0.4909670000000  0.4686580000000 1.0
C      1  0.4844080000000  0.4509570000000  0.5773400000000 1.0
C      1  0.5450690000000  0.4671860000000  0.5123510000000 1.0
C      1  0.5403920000000  0.4841520000000  0.5687710000000 1.0
C      1  0.5570670000000  0.4916780000000  0.5003390000000 1.0
C      1  0.4038400000000  0.5011200000000  0.5145780000000 1.0
C      1  0.5390510000000  0.5421170000000  0.4799320000000 1.0
C      1  0.5613390000000  0.5802810000000  0.4780720000000 1.0
C      1  0.5375600000000  0.4578720000000  0.4359410000000 1.0
C      1  0.5735730000000  0.5615910000000  0.4579300000000 1.0
C      1  0.5447960000000  0.4353920000000  0.5400310000000 1.0
C      1  0.5189190000000  0.5566110000000  0.5658260000000 1.0
C      1  0.4822790000000  0.5552070000000  0.4518080000000 1.0
C      1  0.4196990000000  0.5194260000000  0.4539770000000 1.0
C      1  0.5641700000000  0.4880370000000  0.5555180000000 1.0
C      1  0.5313380000000  0.4566270000000  0.5596390000000 1.0
C      1  0.5633210000000  0.5112270000000  0.5384080000000 1.0
C      1  0.4455350000000  0.4948020000000  0.4880660000000 1.0
C      1  0.4533220000000  0.4333820000000  0.5407470000000 1.0
C      1  0.4375010000000  0.4414770000000  0.4898080000000 1.0
C      1  0.5658320000000  0.5520900000000  0.5181670000000 1.0
C      1  0.4565240000000  0.5085430000000  0.5319560000000 1.0
C      1  0.5345700000000  0.5123050000000  0.4201880000000 1.0
C      1  0.5200480000000  0.4693570000000  0.5308710000000 1.0
C      1  0.4379410000000  0.5323220000000  0.5180750000000 1.0
C      1  0.4705720000000  0.5685850000000  0.5017540000000 1.0
C      1  0.5617050000000  0.5386920000000  0.5463090000000 1.0
C      1  0.4656800000000  0.4660600000000  0.4218880000000 1.0
C      1  0.4734540000000  0.5610730000000  0.5722840000000 1.0
C      1  0.5239340000000  0.4343790000000  0.4476810000000 1.0
C      1  0.4364320000000  0.5395770000000  0.4674960000000 1.0
C      1  0.5195530000000  0.5243080000000  0.4678980000000 1.0
C      1  0.5754690000000  0.4411640000000  0.4971520000000 1.0
C      1  0.5239800000000  0.4267070000000  0.4936630000000 1.0
C      1  0.5142090000000  0.5599590000000  0.5143760000000 1.0
C      1  0.4567930000000  0.4322980000000  0.5113580000000 1.0
C      1  0.5133860000000  0.4979660000000  0.5237080000000 1.0
C      1  0.5107670000000  0.5762790000000  0.4884260000000 1.0
C      1  0.5672710000000  0.5774440000000  0.5044940000000 1.0
C      1  0.4959130000000  0.4253660000000  0.4832760000000 1.0
C      1  0.5268380000000  0.4575080000000  0.4939740000000 1.0
C      1  0.4363200000000  0.4984990000000  0.5556790000000 1.0
C      1  0.4915260000000  0.5130240000000  0.4114750000000 1.0
C      1  0.4548410000000  0.4798400000000  0.4636590000000 1.0
C      1  0.4810210000000  0.5244300000000  0.4905710000000 1.0
C      1  0.5050520000000  0.4857670000000  0.4468460000000 1.0
C      1  0.5686140000000  0.5138620000000  0.4553750000000 1.0
C      1  0.4978840000000  0.5189890000000  0.5860870000000 1.0
C      1  0.4675450000000  0.4752580000000  0.5816660000000 1.0
C      1  0.4488510000000  0.5186530000000  0.5740590000000 1.0
C      1  0.4781130000000  0.4694390000000  0.3980270000000 1.0
C      1  0.4907780000000  0.4570920000000  0.4866870000000 1.0
C      1  0.4800780000000  0.4363880000000  0.5518380000000 1.0
C      1  0.5395150000000  0.5375130000000  0.5639180000000 1.0
C      1  0.4806180000000  0.4165730000000  0.5062540000000 1.0
C      1  0.4495440000000  0.5251240000000  0.4902450000000 1.0
C      1  0.4913350000000  0.4982400000000  0.5030160000000 1.0
C      1  0.4848760000000  0.5736990000000  0.4774200000000 1.0
C      1  0.5121600000000  0.5302230000000  0.4175010000000 1.0
C      1  0.5404530000000  0.4266410000000  0.4697390000000 1.0
C      1  0.5235140000000  0.5110750000000  0.5695800000000 1.0
C      1  0.4977820000000  0.4236180000000  0.5290280000000 1.0
C      1  0.5257950000000  0.4214530000000  0.5233030000000 1.0
C      1  0.4965940000000  0.5469620000000  0.5817980000000 1.0
C      1  0.5107860000000  0.4463760000000  0.5760000000000 1.0
C      1  0.4416810000000  0.5199640000000  0.4350630000000 1.0
C      1  0.5386130000000  0.5417950000000  0.5088240000000 1.0
C      1  0.4839710000000  0.4681960000000  0.4609320000000 1.0
C      1  0.4739520000000  0.4599400000000  0.5107990000000 1.0
C      1  0.4644880000000  0.4879240000000  0.5110450000000 1.0
C      1  0.4815060000000  0.5760730000000  0.5489310000000 1.0
C      1  0.4994900000000  0.4862380000000  0.4022240000000 1.0
C      1  0.4707010000000  0.4456280000000  0.4447750000000 1.0
C      1  0.6008080000000  0.5148920000000  0.5091180000000 1.0
C      1  0.4177800000000  0.4586450000000  0.5015300000000 1.0
C      1  0.4474380000000  0.4503740000000  0.4645800000000 1.0
C      1  0.4910920000000  0.5283370000000  0.4627160000000 1.0
C      1  0.4854220000000  0.5070880000000  0.4397630000000 1.0
C      1  0.4875700000000  0.5441250000000  0.5118080000000 1.0
C      1  0.5735820000000  0.5367650000000  0.4729670000000 1.0
C      1  0.5241900000000  0.4958530000000  0.4676280000000 1.0
C      1  0.4542130000000  0.5450060000000  0.4454770000000 1.0
C      1  0.5232790000000  0.4825870000000  0.4220040000000 1.0
C      1  0.4618650000000  0.5746180000000  0.5276970000000 1.0
C      1  0.4939160000000  0.4537470000000  0.5303960000000 1.0
C      1  0.5089660000000  0.4799370000000  0.4871420000000 1.0
C      1  0.4955690000000  0.4280290000000  0.4533170000000 1.0
END
