TITL C-39243-6458-4 1.77358203440704 125000 -631.937136612505 0 0 91 (C1) n - 1
REM
REM in /rds/project/t2_vol4/rds-t2-cs072/BORA/CARBON/from-Arr/AIRSS/Generating-Clusters/GAP-ML-2020/Only-C1/SD-CG/HFTN-CG
REM
REM
REM
REM
REM
REM ./C.cell (11c1c37f851c82e70ff6c80c92926a4b)
REM AIRSS Version 0.9.1 bugfix July 2018 build 013d7b7c2542+ Fri, 06 Jul 2018 19:26:36 +0100
REM compiler GCC version 9.3.0
REM options -cpp -mtune=generic -march=x86-64 -g -O0
REM seed 1571125701 343107614 768656958 -997244997 31536666 489472396 -150593869 -144502892 955898578 -1971909264 -1402709200 851026452 1322814427 -1955252170 -1520867351 -627248539 320399084 945643895 -1008413988 1933504955 -1500396833 1112521797 -1611290508 -870662800 1364289654 2103321446 -1901949198 -2042530754 -2111955192 -1614517289 658979922 -1493896153 -1360703879
REM
CELL 1.54180   50.00000   50.00000   50.00000   90.00000   90.00000   90.00000
LATT -1
SFAC C  
C      1  0.5252920000000  0.4885420000000  0.5312460000000 1.0
C      1  0.4883540000000  0.4418160000000  0.5176980000000 1.0
C      1  0.4310430000000  0.5119470000000  0.4556830000000 1.0
C      1  0.4888840000000  0.5351140000000  0.4281670000000 1.0
C      1  0.5356010000000  0.5208400000000  0.4270650000000 1.0
C      1  0.4671540000000  0.5193730000000  0.4245170000000 1.0
C      1  0.5235390000000  0.5687290000000  0.5430620000000 1.0
C      1  0.5051460000000  0.4920910000000  0.4474480000000 1.0
C      1  0.4769890000000  0.4948510000000  0.4621900000000 1.0
C      1  0.4661370000000  0.4446240000000  0.5386750000000 1.0
C      1  0.5682280000000  0.4799130000000  0.4857910000000 1.0
C      1  0.5080290000000  0.5207090000000  0.4814040000000 1.0
C      1  0.5450660000000  0.5104910000000  0.5342750000000 1.0
C      1  0.4883410000000  0.4141560000000  0.4733250000000 1.0
C      1  0.4691200000000  0.4792040000000  0.4879660000000 1.0
C      1  0.4511150000000  0.4284680000000  0.4844820000000 1.0
C      1  0.5336750000000  0.4250270000000  0.4833860000000 1.0
C      1  0.5086340000000  0.5148730000000  0.4295800000000 1.0
C      1  0.4763210000000  0.4212360000000  0.4987670000000 1.0
C      1  0.4651820000000  0.4254370000000  0.4595130000000 1.0
C      1  0.4748400000000  0.5712940000000  0.5261000000000 1.0
C      1  0.5538910000000  0.5009910000000  0.4371510000000 1.0
C      1  0.4804110000000  0.5193300000000  0.4769040000000 1.0
C      1  0.5431640000000  0.5676960000000  0.5221730000000 1.0
C      1  0.4728660000000  0.4472320000000  0.4434830000000 1.0
C      1  0.4251690000000  0.4906010000000  0.5140710000000 1.0
C      1  0.5182120000000  0.4404260000000  0.5276010000000 1.0
C      1  0.4575620000000  0.5677210000000  0.5019080000000 1.0
C      1  0.4560750000000  0.4939650000000  0.5109750000000 1.0
C      1  0.4669450000000  0.5208870000000  0.5036140000000 1.0
C      1  0.5534060000000  0.5045260000000  0.4835930000000 1.0
C      1  0.5183770000000  0.5349720000000  0.5034310000000 1.0
C      1  0.5121680000000  0.4242080000000  0.4629110000000 1.0
C      1  0.5279750000000  0.4204880000000  0.5101430000000 1.0
C      1  0.5679490000000  0.4648070000000  0.5354230000000 1.0
C      1  0.5613160000000  0.4627510000000  0.4642350000000 1.0
C      1  0.5064150000000  0.4931520000000  0.5784480000000 1.0
C      1  0.5694360000000  0.4943080000000  0.5439400000000 1.0
C      1  0.5230360000000  0.5638600000000  0.4499570000000 1.0
C      1  0.5497990000000  0.4591010000000  0.5585530000000 1.0
C      1  0.5362220000000  0.5252470000000  0.5600600000000 1.0
C      1  0.4904070000000  0.5406290000000  0.5651790000000 1.0
C      1  0.4857200000000  0.5133710000000  0.5746520000000 1.0
C      1  0.4385950000000  0.5163340000000  0.5586400000000 1.0
C      1  0.5013710000000  0.4655750000000  0.5685550000000 1.0
C      1  0.4546830000000  0.4999230000000  0.4415440000000 1.0
C      1  0.4713810000000  0.4880110000000  0.5391360000000 1.0
C      1  0.4522180000000  0.4678450000000  0.4433270000000 1.0
C      1  0.4918580000000  0.4703610000000  0.5016880000000 1.0
C      1  0.5473620000000  0.4732950000000  0.4412270000000 1.0
C      1  0.4980940000000  0.4943430000000  0.5248230000000 1.0
C      1  0.4134470000000  0.5025810000000  0.4901820000000 1.0
C      1  0.4426890000000  0.5412340000000  0.5019450000000 1.0
C      1  0.4624700000000  0.5024960000000  0.5626730000000 1.0
C      1  0.5179190000000  0.5469290000000  0.5604790000000 1.0
C      1  0.5023940000000  0.5772610000000  0.5240850000000 1.0
C      1  0.5230700000000  0.4486830000000  0.5567890000000 1.0
C      1  0.5030340000000  0.4457330000000  0.4439590000000 1.0
C      1  0.5226460000000  0.4970120000000  0.4751720000000 1.0
C      1  0.5347580000000  0.5712990000000  0.4762460000000 1.0
C      1  0.4298450000000  0.4642270000000  0.4617570000000 1.0
C      1  0.5335020000000  0.5020180000000  0.5773040000000 1.0
C      1  0.5859520000000  0.5377800000000  0.5247410000000 1.0
C      1  0.5209770000000  0.5675010000000  0.5022220000000 1.0
C      1  0.4942920000000  0.5211920000000  0.5154650000000 1.0
C      1  0.5601700000000  0.5591790000000  0.4797720000000 1.0
C      1  0.4310640000000  0.4479590000000  0.4859630000000 1.0
C      1  0.5463790000000  0.5237900000000  0.5074400000000 1.0
C      1  0.5332790000000  0.4655900000000  0.5145060000000 1.0
C      1  0.4167840000000  0.4886760000000  0.4655490000000 1.0
C      1  0.5543030000000  0.4846150000000  0.5696570000000 1.0
C      1  0.4437190000000  0.5435170000000  0.5507670000000 1.0
C      1  0.4693400000000  0.5544120000000  0.5495500000000 1.0
C      1  0.4403730000000  0.4445500000000  0.5303220000000 1.0
C      1  0.5662150000000  0.5150420000000  0.4591660000000 1.0
C      1  0.5192800000000  0.4675970000000  0.4375440000000 1.0
C      1  0.4951950000000  0.5613230000000  0.4421370000000 1.0
C      1  0.5637100000000  0.5429160000000  0.4568990000000 1.0
C      1  0.5633550000000  0.5496480000000  0.5092060000000 1.0
C      1  0.5884430000000  0.5162360000000  0.5384910000000 1.0
C      1  0.5421880000000  0.5464940000000  0.4380980000000 1.0
C      1  0.5174260000000  0.4715840000000  0.4897110000000 1.0
C      1  0.4263840000000  0.5267370000000  0.4803920000000 1.0
C      1  0.4759290000000  0.4644000000000  0.5561350000000 1.0
C      1  0.5616610000000  0.4602600000000  0.5074490000000 1.0
C      1  0.4619040000000  0.5792160000000  0.4769660000000 1.0
C      1  0.4214110000000  0.5111010000000  0.5354550000000 1.0
C      1  0.5565240000000  0.4418990000000  0.4830660000000 1.0
C      1  0.4262010000000  0.4593000000000  0.5124740000000 1.0
C      1  0.4276750000000  0.5378380000000  0.5271070000000 1.0
C      1  0.4753220000000  0.5754800000000  0.4554780000000 1.0
END
