TITL C-39041-4502-4 -5.49739355454459 125000 -638.644986587996 0 0 91 (C1) n - 1
REM
REM in /rds/project/t2_vol4/rds-t2-cs072/BORA/CARBON/from-Arr/AIRSS/Generating-Clusters/GAP-ML-2020/Only-C1/SD-CG/HFTN-CG
REM
REM
REM
REM
REM
REM ./C.cell (11c1c37f851c82e70ff6c80c92926a4b)
REM AIRSS Version 0.9.1 bugfix July 2018 build 013d7b7c2542+ Fri, 06 Jul 2018 19:26:36 +0100
REM compiler GCC version 9.3.0
REM options -cpp -mtune=generic -march=x86-64 -g -O0
REM seed -1885993610 1290019672 -1699712817 207117914 -1678550082 799763635 -498243559 -1977782128 7801234 -1278543426 1634494039 2088647677 -1118554601 -1849053935 999474367 -1579565489 -1847271610 -859754337 -1349826364 306094609 106703705 -1453051243 -1328713540 646046962 -1125479379 -468253817 -747433755 334827902 -475183146 -725222689 2070599799 -1828126652 -1857701782
REM
CELL 1.54180   50.00000   50.00000   50.00000   90.00000   90.00000   90.00000
LATT -1
SFAC C  
C      1  0.5086330000000  0.4925820000000  0.5501100000000 1.0
C      1  0.4610350000000  0.5460010000000  0.5605170000000 1.0
C      1  0.5285580000000  0.5081540000000  0.4681000000000 1.0
C      1  0.5657990000000  0.4550560000000  0.5003510000000 1.0
C      1  0.4363840000000  0.5371160000000  0.5487170000000 1.0
C      1  0.4488780000000  0.5642200000000  0.4827280000000 1.0
C      1  0.4249350000000  0.5374160000000  0.5213770000000 1.0
C      1  0.5457540000000  0.4769240000000  0.5710370000000 1.0
C      1  0.5055820000000  0.4565220000000  0.5792390000000 1.0
C      1  0.4807480000000  0.5312730000000  0.4705520000000 1.0
C      1  0.5692420000000  0.4740050000000  0.4784650000000 1.0
C      1  0.5348760000000  0.4950800000000  0.4150130000000 1.0
C      1  0.4613740000000  0.4629760000000  0.4665250000000 1.0
C      1  0.4837950000000  0.4195490000000  0.4803980000000 1.0
C      1  0.5081560000000  0.5548110000000  0.5587330000000 1.0
C      1  0.4788780000000  0.5799050000000  0.5262530000000 1.0
C      1  0.4753060000000  0.5278570000000  0.5788800000000 1.0
C      1  0.5029470000000  0.5231440000000  0.5102620000000 1.0
C      1  0.5301700000000  0.4636370000000  0.5894520000000 1.0
C      1  0.4626800000000  0.4999810000000  0.5020700000000 1.0
C      1  0.5077750000000  0.4116090000000  0.4928920000000 1.0
C      1  0.5561480000000  0.4709050000000  0.4513890000000 1.0
C      1  0.5336120000000  0.5499340000000  0.5461150000000 1.0
C      1  0.5098390000000  0.5002940000000  0.4498600000000 1.0
C      1  0.5460100000000  0.5247710000000  0.5517390000000 1.0
C      1  0.5725880000000  0.5294330000000  0.4866340000000 1.0
C      1  0.5021060000000  0.5350920000000  0.5765960000000 1.0
C      1  0.5288700000000  0.5780720000000  0.5060900000000 1.0
C      1  0.5304220000000  0.4227480000000  0.4793890000000 1.0
C      1  0.5550060000000  0.4593980000000  0.5498670000000 1.0
C      1  0.5326890000000  0.5205510000000  0.4047380000000 1.0
C      1  0.5144010000000  0.4782850000000  0.4293360000000 1.0
C      1  0.5271060000000  0.5412730000000  0.4217140000000 1.0
C      1  0.5556400000000  0.5121530000000  0.4510240000000 1.0
C      1  0.4632590000000  0.4905350000000  0.4220250000000 1.0
C      1  0.4809060000000  0.5634290000000  0.5491920000000 1.0
C      1  0.5761730000000  0.4997970000000  0.4917760000000 1.0
C      1  0.5680080000000  0.4683770000000  0.5259740000000 1.0
C      1  0.4459380000000  0.4487920000000  0.4851620000000 1.0
C      1  0.4702680000000  0.4946620000000  0.5287860000000 1.0
C      1  0.5501110000000  0.4306490000000  0.4996150000000 1.0
C      1  0.5444810000000  0.5513290000000  0.4453550000000 1.0
C      1  0.4633120000000  0.4734170000000  0.5501870000000 1.0
C      1  0.4752330000000  0.5539770000000  0.4317770000000 1.0
C      1  0.4830070000000  0.4716870000000  0.4244400000000 1.0
C      1  0.4934260000000  0.4229800000000  0.5382380000000 1.0
C      1  0.4308360000000  0.4974630000000  0.4977930000000 1.0
C      1  0.4691810000000  0.5005410000000  0.5805090000000 1.0
C      1  0.4196180000000  0.5090140000000  0.5234220000000 1.0
C      1  0.5042500000000  0.5879000000000  0.5165310000000 1.0
C      1  0.4927610000000  0.5105460000000  0.5347940000000 1.0
C      1  0.4604060000000  0.5489790000000  0.4585920000000 1.0
C      1  0.4676470000000  0.4297810000000  0.5263490000000 1.0
C      1  0.4286810000000  0.4671220000000  0.4993500000000 1.0
C      1  0.5333110000000  0.5022910000000  0.5631810000000 1.0
C      1  0.4283450000000  0.4593990000000  0.5253400000000 1.0
C      1  0.4618660000000  0.5374470000000  0.4145060000000 1.0
C      1  0.4506710000000  0.5143910000000  0.4269510000000 1.0
C      1  0.5387730000000  0.4215880000000  0.5242200000000 1.0
C      1  0.4287840000000  0.5088780000000  0.5516420000000 1.0
C      1  0.5223570000000  0.5681060000000  0.4533820000000 1.0
C      1  0.5379960000000  0.4365200000000  0.5476030000000 1.0
C      1  0.4508710000000  0.4494520000000  0.5387120000000 1.0
C      1  0.5452400000000  0.5604470000000  0.5214850000000 1.0
C      1  0.4753950000000  0.4517870000000  0.4442210000000 1.0
C      1  0.5667090000000  0.5206460000000  0.5321290000000 1.0
C      1  0.5106670000000  0.4710420000000  0.5254120000000 1.0
C      1  0.4458960000000  0.4919360000000  0.5662870000000 1.0
C      1  0.4923500000000  0.5886700000000  0.4879860000000 1.0
C      1  0.4411480000000  0.5261800000000  0.4535250000000 1.0
C      1  0.5103410000000  0.4365140000000  0.5581050000000 1.0
C      1  0.4777840000000  0.5269910000000  0.4977460000000 1.0
C      1  0.4878350000000  0.4793280000000  0.5694420000000 1.0
C      1  0.4275480000000  0.5204570000000  0.4774840000000 1.0
C      1  0.4781870000000  0.4846840000000  0.4815300000000 1.0
C      1  0.5206620000000  0.4346400000000  0.4552260000000 1.0
C      1  0.4300900000000  0.5450250000000  0.4939640000000 1.0
C      1  0.5740460000000  0.4956820000000  0.5197810000000 1.0
C      1  0.5044680000000  0.5577960000000  0.4324840000000 1.0
C      1  0.5205210000000  0.5049280000000  0.4951350000000 1.0
C      1  0.4915470000000  0.4317370000000  0.4554210000000 1.0
C      1  0.4850720000000  0.5052300000000  0.4604990000000 1.0
C      1  0.5121350000000  0.4116860000000  0.5202770000000 1.0
C      1  0.5655170000000  0.5367540000000  0.4590380000000 1.0
C      1  0.5075420000000  0.4781100000000  0.4991210000000 1.0
C      1  0.4627480000000  0.4283390000000  0.4975700000000 1.0
C      1  0.5577370000000  0.4925160000000  0.4325320000000 1.0
C      1  0.5656030000000  0.5412400000000  0.5123870000000 1.0
C      1  0.4669550000000  0.5802010000000  0.4979290000000 1.0
C      1  0.5319550000000  0.4577720000000  0.4432540000000 1.0
C      1  0.5178840000000  0.5798870000000  0.4784660000000 1.0
END
