TITL C-39243-6458-9 0.00977069951816354 125000 -832.389088698406 0 0 119 (C1) n - 1
REM
REM in /rds/project/t2_vol4/rds-t2-cs072/BORA/CARBON/from-Arr/AIRSS/Generating-Clusters/GAP-ML-2020/Only-C1/SD-CG/HFTN-CG
REM
REM
REM
REM
REM
REM ./C.cell (11c1c37f851c82e70ff6c80c92926a4b)
REM AIRSS Version 0.9.1 bugfix July 2018 build 013d7b7c2542+ Fri, 06 Jul 2018 19:26:36 +0100
REM compiler GCC version 9.3.0
REM options -cpp -mtune=generic -march=x86-64 -g -O0
REM seed 775119167 1176575668 657410152 -190498275 -352115053 198143767 786922227 670496997 -409024390 325660213 766708111 -1339192118 -1143587477 2032768 250637627 1907827100 -1466737704 -1219539393 1727404950 -23939716 -1942943732 1235870678 1112314959 -1075263354 -2139390264 -1368877441 -113408904 -159743487 1726108758 -1159673965 629521708 -1639370575 971338477
REM
CELL 1.54180   50.00000   50.00000   50.00000   90.00000   90.00000   90.00000
LATT -1
SFAC C  
C      1  0.5476280000000  0.5312210000000  0.5575410000000 1.0
C      1  0.4772180000000  0.4991930000000  0.5549420000000 1.0
C      1  0.4776090000000  0.4248990000000  0.4461440000000 1.0
C      1  0.4483680000000  0.4932930000000  0.4512760000000 1.0
C      1  0.4344590000000  0.5262170000000  0.5392990000000 1.0
C      1  0.4222800000000  0.4501330000000  0.4953810000000 1.0
C      1  0.5839640000000  0.5334870000000  0.4611810000000 1.0
C      1  0.5328170000000  0.5141560000000  0.4140880000000 1.0
C      1  0.5091590000000  0.4720340000000  0.5241420000000 1.0
C      1  0.4418030000000  0.4693480000000  0.5213280000000 1.0
C      1  0.5089050000000  0.4279020000000  0.5572620000000 1.0
C      1  0.5035870000000  0.5859710000000  0.5463040000000 1.0
C      1  0.5062930000000  0.5203620000000  0.5348340000000 1.0
C      1  0.4489220000000  0.4632400000000  0.4561500000000 1.0
C      1  0.4776830000000  0.4974150000000  0.4609960000000 1.0
C      1  0.5503960000000  0.4692390000000  0.4542130000000 1.0
C      1  0.5488540000000  0.5617080000000  0.5544630000000 1.0
C      1  0.4333760000000  0.5236060000000  0.4191530000000 1.0
C      1  0.5458040000000  0.5819630000000  0.5171990000000 1.0
C      1  0.5287830000000  0.5156450000000  0.5777320000000 1.0
C      1  0.5546430000000  0.4338710000000  0.5391850000000 1.0
C      1  0.4482580000000  0.5786350000000  0.4633840000000 1.0
C      1  0.4276120000000  0.5425640000000  0.4354870000000 1.0
C      1  0.4452120000000  0.4985350000000  0.4221700000000 1.0
C      1  0.5466220000000  0.4234200000000  0.5136590000000 1.0
C      1  0.5311590000000  0.5819110000000  0.5425270000000 1.0
C      1  0.4910070000000  0.5367370000000  0.4940710000000 1.0
C      1  0.5233710000000  0.4886520000000  0.5706100000000 1.0
C      1  0.5413470000000  0.4663520000000  0.5703930000000 1.0
C      1  0.4389040000000  0.5616650000000  0.5049490000000 1.0
C      1  0.4990860000000  0.5808740000000  0.4558860000000 1.0
C      1  0.4836220000000  0.5847330000000  0.5259670000000 1.0
C      1  0.4659440000000  0.4863100000000  0.4059330000000 1.0
C      1  0.5968210000000  0.5195240000000  0.4828220000000 1.0
C      1  0.5817930000000  0.4944570000000  0.5486470000000 1.0
C      1  0.5852790000000  0.4468070000000  0.4938810000000 1.0
C      1  0.5350240000000  0.4728660000000  0.5151320000000 1.0
C      1  0.4293940000000  0.5561520000000  0.4593770000000 1.0
C      1  0.5514970000000  0.5690390000000  0.4695610000000 1.0
C      1  0.4257960000000  0.5444140000000  0.4853310000000 1.0
C      1  0.4729590000000  0.5697560000000  0.4555120000000 1.0
C      1  0.4398460000000  0.4498430000000  0.5427860000000 1.0
C      1  0.5404990000000  0.5575470000000  0.4452080000000 1.0
C      1  0.5688460000000  0.5153780000000  0.4467120000000 1.0
C      1  0.4907530000000  0.5238420000000  0.4508640000000 1.0
C      1  0.5906450000000  0.4734320000000  0.5288410000000 1.0
C      1  0.5034290000000  0.4907630000000  0.5468310000000 1.0
C      1  0.4087050000000  0.4882040000000  0.5317090000000 1.0
C      1  0.4914220000000  0.4362850000000  0.4249510000000 1.0
C      1  0.4766240000000  0.4520760000000  0.4593570000000 1.0
C      1  0.5675900000000  0.4726760000000  0.5624450000000 1.0
C      1  0.4825380000000  0.4082150000000  0.4686910000000 1.0
C      1  0.5354820000000  0.5836960000000  0.4894950000000 1.0
C      1  0.5267990000000  0.4301020000000  0.4597100000000 1.0
C      1  0.4508520000000  0.5111430000000  0.5883550000000 1.0
C      1  0.4325420000000  0.4633080000000  0.5667640000000 1.0
C      1  0.4671260000000  0.4201760000000  0.4929710000000 1.0
C      1  0.5196140000000  0.4165290000000  0.5086470000000 1.0
C      1  0.5200910000000  0.4396040000000  0.4335490000000 1.0
C      1  0.5384650000000  0.4623100000000  0.4281320000000 1.0
C      1  0.4915500000000  0.4685030000000  0.5020000000000 1.0
C      1  0.5438770000000  0.5270710000000  0.4386260000000 1.0
C      1  0.5386830000000  0.4917230000000  0.4966840000000 1.0
C      1  0.4818950000000  0.4612730000000  0.4116480000000 1.0
C      1  0.5075600000000  0.5894600000000  0.4819280000000 1.0
C      1  0.4724460000000  0.4480080000000  0.5894430000000 1.0
C      1  0.5069250000000  0.5249980000000  0.4059900000000 1.0
C      1  0.4898420000000  0.5022830000000  0.4027350000000 1.0
C      1  0.5143530000000  0.5645280000000  0.4379830000000 1.0
C      1  0.4985750000000  0.5432610000000  0.4260190000000 1.0
C      1  0.5921750000000  0.4913770000000  0.4790220000000 1.0
C      1  0.4396090000000  0.4273800000000  0.5013070000000 1.0
C      1  0.4149440000000  0.5130080000000  0.5200890000000 1.0
C      1  0.5034510000000  0.5275600000000  0.5850760000000 1.0
C      1  0.5504480000000  0.4425520000000  0.4676940000000 1.0
C      1  0.5349110000000  0.5191750000000  0.5051930000000 1.0
C      1  0.4966670000000  0.4766220000000  0.4520620000000 1.0
C      1  0.5759220000000  0.4528260000000  0.5427600000000 1.0
C      1  0.4302740000000  0.5125060000000  0.5660210000000 1.0
C      1  0.4244780000000  0.4957570000000  0.4720470000000 1.0
C      1  0.5202210000000  0.5158170000000  0.4600070000000 1.0
C      1  0.5657390000000  0.5654590000000  0.5312500000000 1.0
C      1  0.5348730000000  0.4401270000000  0.5586030000000 1.0
C      1  0.5624570000000  0.4334320000000  0.4916740000000 1.0
C      1  0.5084250000000  0.4211980000000  0.4809490000000 1.0
C      1  0.5304670000000  0.4853230000000  0.4140080000000 1.0
C      1  0.5745040000000  0.5223060000000  0.5476260000000 1.0
C      1  0.5751880000000  0.5555000000000  0.4772920000000 1.0
C      1  0.4900480000000  0.4354440000000  0.5767870000000 1.0
C      1  0.4766140000000  0.5412350000000  0.4692930000000 1.0
C      1  0.5733040000000  0.4889070000000  0.4569310000000 1.0
C      1  0.5948220000000  0.4714050000000  0.5000310000000 1.0
C      1  0.4586320000000  0.4914890000000  0.5113560000000 1.0
C      1  0.4184180000000  0.5169170000000  0.4911920000000 1.0
C      1  0.4742070000000  0.4151730000000  0.5219520000000 1.0
C      1  0.4480330000000  0.4256440000000  0.5295520000000 1.0
C      1  0.4780880000000  0.5147780000000  0.5793460000000 1.0
C      1  0.5892800000000  0.5420300000000  0.5001630000000 1.0
C      1  0.4128630000000  0.4638210000000  0.5186060000000 1.0
C      1  0.4709770000000  0.5601820000000  0.5385930000000 1.0
C      1  0.4492950000000  0.4644860000000  0.5899130000000 1.0
C      1  0.4261370000000  0.4667440000000  0.4728750000000 1.0
C      1  0.4775220000000  0.4902060000000  0.4911640000000 1.0
C      1  0.4826880000000  0.5902470000000  0.4991560000000 1.0
C      1  0.5824010000000  0.5429070000000  0.5277780000000 1.0
C      1  0.4626090000000  0.5113620000000  0.5314620000000 1.0
C      1  0.5009970000000  0.4166110000000  0.5305860000000 1.0
C      1  0.4182910000000  0.4878150000000  0.5591560000000 1.0
C      1  0.4423930000000  0.5542950000000  0.5322520000000 1.0
C      1  0.5243720000000  0.4865200000000  0.4665370000000 1.0
C      1  0.5026610000000  0.4810580000000  0.4194520000000 1.0
C      1  0.5315050000000  0.5292100000000  0.5312300000000 1.0
C      1  0.4881420000000  0.5678640000000  0.5631790000000 1.0
C      1  0.5010550000000  0.5544530000000  0.5819840000000 1.0
C      1  0.4865080000000  0.4448600000000  0.4862020000000 1.0
C      1  0.4469410000000  0.4883370000000  0.6032870000000 1.0
C      1  0.4829980000000  0.5329930000000  0.5227720000000 1.0
C      1  0.4553950000000  0.5813690000000  0.4908840000000 1.0
C      1  0.5172220000000  0.5291670000000  0.4864650000000 1.0
END
