TITL C-39042-4643-3 0.11382027963357 125000 -233.657333725449 0 0 36 (C1) n - 1
REM
REM in /rds/project/t2_vol4/rds-t2-cs072/BORA/CARBON/from-Arr/AIRSS/Generating-Clusters/GAP-ML-2020/Only-C1/SD-CG/HFTN-CG
REM
REM
REM
REM
REM
REM ./C.cell (11c1c37f851c82e70ff6c80c92926a4b)
REM AIRSS Version 0.9.1 bugfix July 2018 build 013d7b7c2542+ Fri, 06 Jul 2018 19:26:36 +0100
REM compiler GCC version 9.3.0
REM options -cpp -mtune=generic -march=x86-64 -g -O0
REM seed -96792739 918443849 -1230846761 1114097292 1030275214 -891925904 2015581861 1042081943 -1604636195 1948388382 -539899346 -598298932 -913303323 -1903206598 -1499667767 -1778211620 1677342138 524651600 -1547334472 594286625 -134714883 -1287121860 -329792002 1648834547 -274771212 -2068459870 1734328860 -2126016616 -921807571 595917408 1551929902 -470155244 9315973
REM
CELL 1.54180   50.00000   50.00000   50.00000   90.00000   90.00000   90.00000
LATT -1
SFAC C  
C      1  0.4518620000000  0.5235880000000  0.4851500000000 1.0
C      1  0.4778460000000  0.5330600000000  0.5211800000000 1.0
C      1  0.5043980000000  0.4624640000000  0.5250100000000 1.0
C      1  0.5183740000000  0.5098630000000  0.4979410000000 1.0
C      1  0.4905500000000  0.5179410000000  0.4604010000000 1.0
C      1  0.4917730000000  0.5431150000000  0.4758140000000 1.0
C      1  0.5098740000000  0.5036430000000  0.5444260000000 1.0
C      1  0.5132210000000  0.4358980000000  0.4851820000000 1.0
C      1  0.5761590000000  0.5112250000000  0.4912260000000 1.0
C      1  0.4646030000000  0.5074720000000  0.4649360000000 1.0
C      1  0.5592960000000  0.5300450000000  0.4944300000000 1.0
C      1  0.4761420000000  0.4661630000000  0.5280290000000 1.0
C      1  0.4559260000000  0.5124070000000  0.5304540000000 1.0
C      1  0.4873940000000  0.4977870000000  0.5596870000000 1.0
C      1  0.4755420000000  0.4601570000000  0.4765010000000 1.0
C      1  0.4984390000000  0.5470210000000  0.5347470000000 1.0
C      1  0.5314240000000  0.5372470000000  0.4984830000000 1.0
C      1  0.5395180000000  0.4908140000000  0.4601160000000 1.0
C      1  0.5458960000000  0.4785850000000  0.4376510000000 1.0
C      1  0.4431440000000  0.5058370000000  0.5064710000000 1.0
C      1  0.4619990000000  0.4611470000000  0.5047150000000 1.0
C      1  0.5349900000000  0.4857080000000  0.5067660000000 1.0
C      1  0.4909200000000  0.4358850000000  0.4715730000000 1.0
C      1  0.5000360000000  0.4750740000000  0.4793920000000 1.0
C      1  0.5191910000000  0.5302550000000  0.5457070000000 1.0
C      1  0.4703440000000  0.5426230000000  0.4946880000000 1.0
C      1  0.5239520000000  0.5471660000000  0.5251870000000 1.0
C      1  0.5168310000000  0.4623710000000  0.4985960000000 1.0
C      1  0.4432970000000  0.4801270000000  0.4954040000000 1.0
C      1  0.4672120000000  0.4891880000000  0.5442740000000 1.0
C      1  0.5118240000000  0.4994980000000  0.4698860000000 1.0
C      1  0.5247790000000  0.4804240000000  0.5344410000000 1.0
C      1  0.5559540000000  0.4922020000000  0.4862680000000 1.0
C      1  0.5153240000000  0.5537890000000  0.4808740000000 1.0
C      1  0.4958150000000  0.5095690000000  0.5157300000000 1.0
C      1  0.4561510000000  0.4806460000000  0.4686640000000 1.0
END
