TITL C-39039-4552-10 53.6049251153723 125000 -460.530850838191 0 0 67 (C1) n - 1
REM
REM in /rds/project/t2_vol4/rds-t2-cs072/BORA/CARBON/from-Arr/AIRSS/Generating-Clusters/GAP-ML-2020/Only-C1/SD-CG/HFTN-CG
REM
REM
REM
REM
REM
REM ./C.cell (11c1c37f851c82e70ff6c80c92926a4b)
REM AIRSS Version 0.9.1 bugfix July 2018 build 013d7b7c2542+ Fri, 06 Jul 2018 19:26:36 +0100
REM compiler GCC version 9.3.0
REM options -cpp -mtune=generic -march=x86-64 -g -O0
REM seed -1429130747 -2080223804 -2083886893 738394550 89851154 1751235854 1829099751 -1871422428 -1372465042 -1536028840 1950154698 -935923532 -1411082061 -1288361658 -598635991 466926872 1866323165 522917053 1437126802 763904634 193410954 -561825462 853296243 1899430385 -1533508540 1109837364 991520055 1382000224 116887844 -1598133063 507009094 -1822987624 -1439406855
REM
CELL 1.54180   50.00000   50.00000   50.00000   90.00000   90.00000   90.00000
LATT -1
SFAC C  
C      1  0.5358640000000  0.5306620000000  0.4606180000000 1.0
C      1  0.5110360000000  0.5645650000000  0.5155460000000 1.0
C      1  0.5758950000000  0.5030390000000  0.5570600000000 1.0
C      1  0.4792080000000  0.4563230000000  0.4416580000000 1.0
C      1  0.5170660000000  0.5632690000000  0.4870020000000 1.0
C      1  0.4394960000000  0.4696280000000  0.4990120000000 1.0
C      1  0.5120550000000  0.5121000000000  0.5626080000000 1.0
C      1  0.4791280000000  0.4971140000000  0.4194740000000 1.0
C      1  0.5099630000000  0.4198430000000  0.4981020000000 1.0
C      1  0.4856370000000  0.4290770000000  0.4860390000000 1.0
C      1  0.5406550000000  0.5074910000000  0.5237190000000 1.0
C      1  0.5173910000000  0.4400760000000  0.5380390000000 1.0
C      1  0.4732460000000  0.4362030000000  0.5128260000000 1.0
C      1  0.5176390000000  0.4855060000000  0.4319510000000 1.0
C      1  0.5283230000000  0.5505330000000  0.5341300000000 1.0
C      1  0.5250330000000  0.5020430000000  0.5000470000000 1.0
C      1  0.4889860000000  0.5546310000000  0.5559100000000 1.0
C      1  0.4618840000000  0.5160070000000  0.5616170000000 1.0
C      1  0.5722610000000  0.5272190000000  0.5491230000000 1.0
C      1  0.4969400000000  0.5102280000000  0.5066290000000 1.0
C      1  0.4855690000000  0.5013750000000  0.5674430000000 1.0
C      1  0.4630060000000  0.5433740000000  0.5566920000000 1.0
C      1  0.4539020000000  0.4968230000000  0.4349960000000 1.0
C      1  0.5565970000000  0.4836470000000  0.5475150000000 1.0
C      1  0.5279730000000  0.4939190000000  0.5463850000000 1.0
C      1  0.4870620000000  0.4985080000000  0.4663660000000 1.0
C      1  0.4721910000000  0.5632550000000  0.4589580000000 1.0
C      1  0.5021020000000  0.4823300000000  0.5068430000000 1.0
C      1  0.4545860000000  0.4566010000000  0.5204630000000 1.0
C      1  0.4566820000000  0.4731530000000  0.5437230000000 1.0
C      1  0.4291080000000  0.4962230000000  0.4995740000000 1.0
C      1  0.4932370000000  0.4720190000000  0.4244600000000 1.0
C      1  0.4538970000000  0.4698630000000  0.4478110000000 1.0
C      1  0.4455810000000  0.4996670000000  0.5444180000000 1.0
C      1  0.4818450000000  0.5171180000000  0.4850620000000 1.0
C      1  0.4289380000000  0.5137360000000  0.4761840000000 1.0
C      1  0.5422640000000  0.4447860000000  0.5202650000000 1.0
C      1  0.5859370000000  0.4707310000000  0.5118100000000 1.0
C      1  0.4329740000000  0.5125800000000  0.5224230000000 1.0
C      1  0.5252930000000  0.4525310000000  0.4674340000000 1.0
C      1  0.5404800000000  0.5479780000000  0.4822060000000 1.0
C      1  0.5635030000000  0.4623600000000  0.5282260000000 1.0
C      1  0.5158940000000  0.5427980000000  0.4445630000000 1.0
C      1  0.5674120000000  0.5106950000000  0.4864120000000 1.0
C      1  0.5103320000000  0.4738530000000  0.5342590000000 1.0
C      1  0.5599410000000  0.5366180000000  0.4984030000000 1.0
C      1  0.4855770000000  0.4727110000000  0.4817100000000 1.0
C      1  0.4504870000000  0.5466380000000  0.4609550000000 1.0
C      1  0.4387710000000  0.5402520000000  0.5138650000000 1.0
C      1  0.4949620000000  0.4486810000000  0.4655360000000 1.0
C      1  0.5329950000000  0.4784340000000  0.4549900000000 1.0
C      1  0.4848780000000  0.5665340000000  0.5293100000000 1.0
C      1  0.4997240000000  0.5605180000000  0.4631550000000 1.0
C      1  0.5408850000000  0.5031960000000  0.4714530000000 1.0
C      1  0.4566770000000  0.5554780000000  0.5300720000000 1.0
C      1  0.4980820000000  0.4248840000000  0.5236970000000 1.0
C      1  0.4529090000000  0.4660410000000  0.4752830000000 1.0
C      1  0.4351920000000  0.5406910000000  0.4854810000000 1.0
C      1  0.5025890000000  0.4566070000000  0.5565400000000 1.0
C      1  0.5839820000000  0.4928600000000  0.4986760000000 1.0
C      1  0.4813570000000  0.4742140000000  0.5590050000000 1.0
C      1  0.5127540000000  0.5402240000000  0.5562070000000 1.0
C      1  0.5052190000000  0.5114490000000  0.4224660000000 1.0
C      1  0.4416410000000  0.5182340000000  0.4504210000000 1.0
C      1  0.5130130000000  0.5370870000000  0.4174820000000 1.0
C      1  0.5316910000000  0.4382250000000  0.4925780000000 1.0
C      1  0.5526060000000  0.5349420000000  0.5271110000000 1.0
END
