TITL C-39050-4789-6 0.224944889030936 125000 -491.377338324022 0 0 72 (C1) n - 1
REM
REM in /rds/project/t2_vol4/rds-t2-cs072/BORA/CARBON/from-Arr/AIRSS/Generating-Clusters/GAP-ML-2020/Only-C1/SD-CG/HFTN-CG
REM
REM
REM
REM
REM
REM ./C.cell (11c1c37f851c82e70ff6c80c92926a4b)
REM AIRSS Version 0.9.1 bugfix July 2018 build 013d7b7c2542+ Fri, 06 Jul 2018 19:26:36 +0100
REM compiler GCC version 9.3.0
REM options -cpp -mtune=generic -march=x86-64 -g -O0
REM seed 1845793390 -1688985095 -1192637844 1930294092 860603527 -1076576535 -1552814762 -2126441716 1533043280 -631975352 641678793 -1424082975 -93668874 -858286683 669178400 1500868902 920113965 726740109 -548379370 -2030613374 1628146181 913641498 774985775 1697294124 -1304035393 -2029202977 -327746810 -1150377456 406195750 1954107415 1580532668 1509798936 1796197944
REM
CELL 1.54180   50.00000   50.00000   50.00000   90.00000   90.00000   90.00000
LATT -1
SFAC C  
C      1  0.4689960000000  0.4657500000000  0.4334360000000 1.0
C      1  0.5280820000000  0.5046480000000  0.4945180000000 1.0
C      1  0.5144280000000  0.5597900000000  0.5332810000000 1.0
C      1  0.5440880000000  0.4811010000000  0.4456810000000 1.0
C      1  0.5486640000000  0.4568770000000  0.4849630000000 1.0
C      1  0.5698500000000  0.5194710000000  0.5336020000000 1.0
C      1  0.5575440000000  0.5405750000000  0.4946730000000 1.0
C      1  0.4848070000000  0.5462920000000  0.5000320000000 1.0
C      1  0.5263530000000  0.4517440000000  0.5498610000000 1.0
C      1  0.5660510000000  0.5244750000000  0.4423460000000 1.0
C      1  0.5606310000000  0.5448360000000  0.5219030000000 1.0
C      1  0.4489290000000  0.5151600000000  0.4614970000000 1.0
C      1  0.4780400000000  0.4324940000000  0.5230630000000 1.0
C      1  0.4880370000000  0.4822830000000  0.4237020000000 1.0
C      1  0.5066210000000  0.4629020000000  0.5071930000000 1.0
C      1  0.5325990000000  0.5620760000000  0.4559250000000 1.0
C      1  0.4996820000000  0.4554460000000  0.5596000000000 1.0
C      1  0.4593940000000  0.4361480000000  0.5017410000000 1.0
C      1  0.4349790000000  0.4689670000000  0.5272410000000 1.0
C      1  0.5391840000000  0.5477130000000  0.5420820000000 1.0
C      1  0.5404580000000  0.4982080000000  0.5657160000000 1.0
C      1  0.4773450000000  0.5490960000000  0.4498250000000 1.0
C      1  0.4665100000000  0.5157610000000  0.5652380000000 1.0
C      1  0.5612330000000  0.4728620000000  0.5266010000000 1.0
C      1  0.4389910000000  0.5549550000000  0.4806650000000 1.0
C      1  0.5179870000000  0.5265180000000  0.4741770000000 1.0
C      1  0.4366510000000  0.5006450000000  0.4824770000000 1.0
C      1  0.4947740000000  0.5375880000000  0.4300050000000 1.0
C      1  0.4487300000000  0.4952050000000  0.5555520000000 1.0
C      1  0.5531250000000  0.4495800000000  0.5117530000000 1.0
C      1  0.5087420000000  0.4733200000000  0.4638870000000 1.0
C      1  0.4324690000000  0.4973280000000  0.5314160000000 1.0
C      1  0.4878810000000  0.5034690000000  0.5792190000000 1.0
C      1  0.4827330000000  0.4784270000000  0.5024920000000 1.0
C      1  0.5149290000000  0.4870980000000  0.4390690000000 1.0
C      1  0.4923850000000  0.5084170000000  0.4352480000000 1.0
C      1  0.5156960000000  0.4981770000000  0.5789400000000 1.0
C      1  0.4390410000000  0.4725390000000  0.4795860000000 1.0
C      1  0.5006940000000  0.4319960000000  0.4810570000000 1.0
C      1  0.4620140000000  0.4611100000000  0.4615570000000 1.0
C      1  0.4769670000000  0.5077720000000  0.4614250000000 1.0
C      1  0.4754970000000  0.4482500000000  0.5465880000000 1.0
C      1  0.4707140000000  0.5693860000000  0.5166180000000 1.0
C      1  0.4854350000000  0.5605230000000  0.5415460000000 1.0
C      1  0.4707400000000  0.5362010000000  0.5454910000000 1.0
C      1  0.5476560000000  0.5434760000000  0.4380670000000 1.0
C      1  0.5054150000000  0.4329090000000  0.5100020000000 1.0
C      1  0.5321010000000  0.5511250000000  0.4833990000000 1.0
C      1  0.4887020000000  0.5012670000000  0.5178380000000 1.0
C      1  0.4725760000000  0.4363970000000  0.4770820000000 1.0
C      1  0.4450290000000  0.5666470000000  0.5082510000000 1.0
C      1  0.5164390000000  0.4445950000000  0.4607930000000 1.0
C      1  0.5500430000000  0.5222210000000  0.5542720000000 1.0
C      1  0.4819430000000  0.4815110000000  0.4729580000000 1.0
C      1  0.4705880000000  0.5242250000000  0.5178460000000 1.0
C      1  0.5205090000000  0.5491040000000  0.4332840000000 1.0
C      1  0.4398320000000  0.5151530000000  0.5093030000000 1.0
C      1  0.5706000000000  0.4981760000000  0.5152580000000 1.0
C      1  0.5454250000000  0.4531970000000  0.4573780000000 1.0
C      1  0.5247990000000  0.4758030000000  0.4889960000000 1.0
C      1  0.4297310000000  0.5435510000000  0.5039740000000 1.0
C      1  0.5153330000000  0.5080570000000  0.5195740000000 1.0
C      1  0.4972740000000  0.4773770000000  0.5766190000000 1.0
C      1  0.5588150000000  0.5106470000000  0.4897900000000 1.0
C      1  0.4387650000000  0.4560440000000  0.5027560000000 1.0
C      1  0.5459290000000  0.4732570000000  0.5511500000000 1.0
C      1  0.5599430000000  0.5031730000000  0.4584810000000 1.0
C      1  0.4494830000000  0.5442160000000  0.4573300000000 1.0
C      1  0.5116630000000  0.5575700000000  0.5047600000000 1.0
C      1  0.4894150000000  0.5333720000000  0.4728500000000 1.0
C      1  0.4529460000000  0.4660060000000  0.5501190000000 1.0
C      1  0.5303460000000  0.4377490000000  0.5253850000000 1.0
END
