TITL C-39053-1113-4 0.0148942505768725 125000 -307.492238995191 0 0 46 (C1) n - 1
REM
REM in /rds/project/t2_vol4/rds-t2-cs072/BORA/CARBON/from-Arr/AIRSS/Generating-Clusters/GAP-ML-2020/Only-C1/SD-CG/HFTN-CG
REM
REM
REM
REM
REM
REM ./C.cell (11c1c37f851c82e70ff6c80c92926a4b)
REM AIRSS Version 0.9.1 bugfix July 2018 build 013d7b7c2542+ Fri, 06 Jul 2018 19:26:36 +0100
REM compiler GCC version 9.3.0
REM options -cpp -mtune=generic -march=x86-64 -g -O0
REM seed 2065941345 -212149592 1329897281 -560126026 -2014174097 -6764938 1556676562 -1912865747 2004696554 1716088252 1002326960 131155063 -1627310516 1758406733 -1095632398 -1539148961 1686873410 -1338514232 -853200888 150008011 1435375789 1793195331 1737910097 193893505 -2176162 2005254803 1004122873 -970216913 1960049287 -639242723 1685853641 1429444008 -1625178660
REM
CELL 1.54180   50.00000   50.00000   50.00000   90.00000   90.00000   90.00000
LATT -1
SFAC C  
C      1  0.4620960000000  0.4833450000000  0.4503810000000 1.0
C      1  0.5068370000000  0.5732690000000  0.4782800000000 1.0
C      1  0.4855570000000  0.5331170000000  0.4565850000000 1.0
C      1  0.4663720000000  0.4424590000000  0.4765310000000 1.0
C      1  0.5204470000000  0.4598420000000  0.4659940000000 1.0
C      1  0.4990200000000  0.4625310000000  0.4475270000000 1.0
C      1  0.4441170000000  0.4821880000000  0.4963000000000 1.0
C      1  0.5445890000000  0.4912930000000  0.4957320000000 1.0
C      1  0.5300850000000  0.5070030000000  0.4525690000000 1.0
C      1  0.4514980000000  0.4548280000000  0.4972210000000 1.0
C      1  0.5314600000000  0.4879650000000  0.5415450000000 1.0
C      1  0.4733160000000  0.4479340000000  0.5178110000000 1.0
C      1  0.5144100000000  0.4434930000000  0.4895700000000 1.0
C      1  0.4816430000000  0.4787230000000  0.5210450000000 1.0
C      1  0.5119990000000  0.4405580000000  0.5391410000000 1.0
C      1  0.4527240000000  0.4900030000000  0.5230020000000 1.0
C      1  0.4951960000000  0.5585540000000  0.4592270000000 1.0
C      1  0.5008920000000  0.5758920000000  0.5085970000000 1.0
C      1  0.5398050000000  0.4736120000000  0.5174460000000 1.0
C      1  0.4907870000000  0.5142020000000  0.5533940000000 1.0
C      1  0.5335270000000  0.5198260000000  0.5016340000000 1.0
C      1  0.5362740000000  0.4836550000000  0.4694680000000 1.0
C      1  0.5343800000000  0.5309970000000  0.5313750000000 1.0
C      1  0.5026530000000  0.5119590000000  0.4984540000000 1.0
C      1  0.4879280000000  0.4354160000000  0.4939000000000 1.0
C      1  0.4800840000000  0.5312240000000  0.4995860000000 1.0
C      1  0.4648770000000  0.5244440000000  0.4757490000000 1.0
C      1  0.5449370000000  0.5100820000000  0.5488170000000 1.0
C      1  0.5431400000000  0.5592380000000  0.5319090000000 1.0
C      1  0.4718110000000  0.4562280000000  0.4543630000000 1.0
C      1  0.5347040000000  0.5677200000000  0.4860630000000 1.0
C      1  0.5012100000000  0.4852490000000  0.5464630000000 1.0
C      1  0.4831350000000  0.4383520000000  0.5423000000000 1.0
C      1  0.4888230000000  0.4884310000000  0.4386630000000 1.0
C      1  0.4919150000000  0.4864970000000  0.4948850000000 1.0
C      1  0.4520690000000  0.4988510000000  0.4724540000000 1.0
C      1  0.5303570000000  0.5744580000000  0.5141980000000 1.0
C      1  0.5257310000000  0.4493850000000  0.5151620000000 1.0
C      1  0.4995680000000  0.4572690000000  0.5574560000000 1.0
C      1  0.4899030000000  0.5510200000000  0.5169520000000 1.0
C      1  0.5038460000000  0.5349680000000  0.5387640000000 1.0
C      1  0.4444520000000  0.5058630000000  0.5445190000000 1.0
C      1  0.5022580000000  0.5111690000000  0.4440950000000 1.0
C      1  0.4638600000000  0.5168930000000  0.5577150000000 1.0
C      1  0.5412160000000  0.5398660000000  0.4811340000000 1.0
C      1  0.5444940000000  0.5301280000000  0.4560230000000 1.0
END
