TITL C-39563-5230-1 0.00302669992130976 125000 -118.425257584483 0 0 19 (C1) n - 1
REM
REM in /rds/project/t2_vol4/rds-t2-cs072/BORA/CARBON/from-Arr/AIRSS/Generating-Clusters/GAP-ML-2020/Only-C1/SD-CG/HFTN-CG
REM
REM
REM
REM
REM
REM ./C.cell (11c1c37f851c82e70ff6c80c92926a4b)
REM AIRSS Version 0.9.1 bugfix July 2018 build 013d7b7c2542+ Fri, 06 Jul 2018 19:26:36 +0100
REM compiler GCC version 9.3.0
REM options -cpp -mtune=generic -march=x86-64 -g -O0
REM seed -1398549330 845932426 -173872295 824291958 -836758803 -2009353879 1213972683 203934921 1631395175 -1700020915 1853692498 2020761699 -1707297520 -33281502 -1935953749 -751173300 1694317874 1967267999 -34464552 -1900330651 -1805798466 -939904793 -12192786 470642529 1197621957 896356217 1026128137 -1571579295 -337078383 -1595153480 -1222616359 1011340459 1152166233
REM
CELL 1.54180   50.00000   50.00000   50.00000   90.00000   90.00000   90.00000
LATT -1
SFAC C  
C      1  0.5256530000000  0.4918260000000  0.5122210000000 1.0
C      1  0.4784900000000  0.5086360000000  0.4488510000000 1.0
C      1  0.4728050000000  0.5100220000000  0.5174800000000 1.0
C      1  0.5326080000000  0.4787410000000  0.4876740000000 1.0
C      1  0.4631000000000  0.5251840000000  0.4371370000000 1.0
C      1  0.5054440000000  0.5244080000000  0.5342710000000 1.0
C      1  0.5361750000000  0.5367010000000  0.4933430000000 1.0
C      1  0.4827820000000  0.4652910000000  0.4751590000000 1.0
C      1  0.5111490000000  0.4819200000000  0.5357040000000 1.0
C      1  0.4969080000000  0.4946040000000  0.4997070000000 1.0
C      1  0.5261720000000  0.5218350000000  0.5147600000000 1.0
C      1  0.5303020000000  0.5198240000000  0.4749860000000 1.0
C      1  0.4806080000000  0.4688790000000  0.5016720000000 1.0
C      1  0.4935770000000  0.4903360000000  0.4623950000000 1.0
C      1  0.4863510000000  0.4680070000000  0.5299300000000 1.0
C      1  0.4782790000000  0.5313200000000  0.5329990000000 1.0
C      1  0.5240120000000  0.4943500000000  0.4662640000000 1.0
C      1  0.4636540000000  0.4845570000000  0.5232620000000 1.0
C      1  0.5119340000000  0.5035600000000  0.5521840000000 1.0
END
