TITL C-39232-6479-2 0.147322471130361 125000 -476.56972178906 0 0 69 (C1) n - 1
REM
REM in /rds/project/t2_vol4/rds-t2-cs072/BORA/CARBON/from-Arr/AIRSS/Generating-Clusters/GAP-ML-2020/Only-C1/SD-CG/HFTN-CG
REM
REM
REM
REM
REM
REM ./C.cell (11c1c37f851c82e70ff6c80c92926a4b)
REM AIRSS Version 0.9.1 bugfix July 2018 build 013d7b7c2542+ Fri, 06 Jul 2018 19:26:36 +0100
REM compiler GCC version 9.3.0
REM options -cpp -mtune=generic -march=x86-64 -g -O0
REM seed 1833069962 -311146031 -2045790813 -1134393272 -1753824834 -1196155780 -252934475 -311476569 -163031946 1780896718 -1878733169 2116487828 -1269518557 558576038 -1585372906 -360047921 -1406142329 -1663027651 1287931303 -305891423 819616808 415940578 -851120116 -1783831274 -1894090413 1984778804 -410457002 789460571 -364242416 416285628 -1250786170 37994567 -917497922
REM
CELL 1.54180   50.00000   50.00000   50.00000   90.00000   90.00000   90.00000
LATT -1
SFAC C  
C      1  0.4788460000000  0.4592390000000  0.4623600000000 1.0
C      1  0.4890330000000  0.5261760000000  0.4978550000000 1.0
C      1  0.5467150000000  0.5562960000000  0.5052270000000 1.0
C      1  0.4364550000000  0.5417000000000  0.4744240000000 1.0
C      1  0.4967370000000  0.5417380000000  0.5543810000000 1.0
C      1  0.4394140000000  0.5068140000000  0.5341800000000 1.0
C      1  0.5717360000000  0.4946120000000  0.4665440000000 1.0
C      1  0.4384980000000  0.5294070000000  0.4488810000000 1.0
C      1  0.4765230000000  0.4335290000000  0.5036920000000 1.0
C      1  0.4494160000000  0.4616230000000  0.4638430000000 1.0
C      1  0.5132120000000  0.4829120000000  0.4328450000000 1.0
C      1  0.5183130000000  0.5068620000000  0.4482630000000 1.0
C      1  0.4760150000000  0.4455070000000  0.5495710000000 1.0
C      1  0.5326850000000  0.4963550000000  0.4982590000000 1.0
C      1  0.4653430000000  0.4940810000000  0.4342110000000 1.0
C      1  0.4727680000000  0.5467370000000  0.5387270000000 1.0
C      1  0.4704620000000  0.5078910000000  0.4862030000000 1.0
C      1  0.4372380000000  0.4611740000000  0.4893880000000 1.0
C      1  0.5384630000000  0.4512400000000  0.4615480000000 1.0
C      1  0.5320170000000  0.4427240000000  0.5067410000000 1.0
C      1  0.4263810000000  0.5045560000000  0.4566140000000 1.0
C      1  0.5760050000000  0.5222460000000  0.5051790000000 1.0
C      1  0.4900830000000  0.4308800000000  0.5291930000000 1.0
C      1  0.5035560000000  0.5680030000000  0.4752920000000 1.0
C      1  0.5003360000000  0.5701210000000  0.5036250000000 1.0
C      1  0.4897650000000  0.4588640000000  0.5688970000000 1.0
C      1  0.4582530000000  0.5564930000000  0.4842390000000 1.0
C      1  0.4416970000000  0.5052920000000  0.5057200000000 1.0
C      1  0.5143420000000  0.4707310000000  0.5665110000000 1.0
C      1  0.5208440000000  0.4397210000000  0.4810940000000 1.0
C      1  0.5855980000000  0.4951090000000  0.5086480000000 1.0
C      1  0.5628200000000  0.4938130000000  0.5504870000000 1.0
C      1  0.4498200000000  0.4845200000000  0.5500920000000 1.0
C      1  0.5351920000000  0.4656030000000  0.4378360000000 1.0
C      1  0.5131490000000  0.5136660000000  0.5112440000000 1.0
C      1  0.4529180000000  0.4580260000000  0.5387030000000 1.0
C      1  0.4993680000000  0.4949350000000  0.5267910000000 1.0
C      1  0.4218740000000  0.5125480000000  0.4834030000000 1.0
C      1  0.5111530000000  0.5341550000000  0.4449830000000 1.0
C      1  0.5432590000000  0.5096840000000  0.5605150000000 1.0
C      1  0.5175860000000  0.4361410000000  0.5305120000000 1.0
C      1  0.4630850000000  0.5232310000000  0.4358300000000 1.0
C      1  0.4420530000000  0.4834700000000  0.4472180000000 1.0
C      1  0.4559600000000  0.5258100000000  0.5478630000000 1.0
C      1  0.5612830000000  0.5393000000000  0.5227070000000 1.0
C      1  0.4915870000000  0.4380610000000  0.4789730000000 1.0
C      1  0.5216970000000  0.5509920000000  0.5443490000000 1.0
C      1  0.5477280000000  0.5462460000000  0.4778620000000 1.0
C      1  0.5184110000000  0.4995640000000  0.5705080000000 1.0
C      1  0.4951090000000  0.5159120000000  0.5684010000000 1.0
C      1  0.4238700000000  0.4853720000000  0.4961790000000 1.0
C      1  0.5245120000000  0.5524820000000  0.4629530000000 1.0
C      1  0.5563360000000  0.4734390000000  0.4548400000000 1.0
C      1  0.4870600000000  0.4840950000000  0.4830640000000 1.0
C      1  0.5230090000000  0.5648410000000  0.5187150000000 1.0
C      1  0.5918770000000  0.4854300000000  0.4837860000000 1.0
C      1  0.4862760000000  0.4749440000000  0.4369150000000 1.0
C      1  0.5657140000000  0.5236870000000  0.4779750000000 1.0
C      1  0.4783330000000  0.5608850000000  0.4638050000000 1.0
C      1  0.5455110000000  0.5352040000000  0.5467570000000 1.0
C      1  0.4519230000000  0.4486460000000  0.5102640000000 1.0
C      1  0.5692740000000  0.4807840000000  0.5275050000000 1.0
C      1  0.5431090000000  0.4690910000000  0.5177240000000 1.0
C      1  0.5290160000000  0.4574760000000  0.5460170000000 1.0
C      1  0.4683920000000  0.5043500000000  0.5638060000000 1.0
C      1  0.4761420000000  0.5540050000000  0.5098220000000 1.0
C      1  0.4896960000000  0.4757260000000  0.5115790000000 1.0
C      1  0.5157660000000  0.4932770000000  0.4751510000000 1.0
C      1  0.4833810000000  0.5419590000000  0.4427120000000 1.0
END
