TITL C-39034-4558-9 0.00610630938741608 125000 -964.522405124435 0 0 138 (C1) n - 1
REM
REM in /rds/project/t2_vol4/rds-t2-cs072/BORA/CARBON/from-Arr/AIRSS/Generating-Clusters/GAP-ML-2020/Only-C1/SD-CG/HFTN-CG
REM
REM
REM
REM
REM
REM ./C.cell (11c1c37f851c82e70ff6c80c92926a4b)
REM AIRSS Version 0.9.1 bugfix July 2018 build 013d7b7c2542+ Fri, 06 Jul 2018 19:26:36 +0100
REM compiler GCC version 9.3.0
REM options -cpp -mtune=generic -march=x86-64 -g -O0
REM seed 83470835 -1224939252 972429471 1562900732 202943962 -178105601 910205483 954059243 -872392440 -1982304014 -1431279120 -931915211 -1541202865 295311101 1974726417 2133919606 1836433881 -803989033 2002680166 902957128 -1896638970 1066978577 -768574705 -1791007255 -1811769614 -1010171894 -520742181 -1106964954 1199755963 718934398 -482113139 149892511 -97202151
REM
CELL 1.54180   50.00000   50.00000   50.00000   90.00000   90.00000   90.00000
LATT -1
SFAC C  
C      1  0.5361900000000  0.5851450000000  0.4956700000000 1.0
C      1  0.4901520000000  0.4889240000000  0.3938140000000 1.0
C      1  0.4943980000000  0.5406840000000  0.4968800000000 1.0
C      1  0.4742110000000  0.5348910000000  0.5146190000000 1.0
C      1  0.4820220000000  0.5544110000000  0.5833440000000 1.0
C      1  0.5301720000000  0.4144210000000  0.5086350000000 1.0
C      1  0.5569510000000  0.5542340000000  0.5618410000000 1.0
C      1  0.4665830000000  0.4889550000000  0.5295720000000 1.0
C      1  0.5602520000000  0.5011820000000  0.4376270000000 1.0
C      1  0.5032200000000  0.4290350000000  0.4313630000000 1.0
C      1  0.5070080000000  0.4518020000000  0.4826760000000 1.0
C      1  0.4050300000000  0.4768720000000  0.5064920000000 1.0
C      1  0.5475560000000  0.5393950000000  0.5039110000000 1.0
C      1  0.5388860000000  0.4841720000000  0.4919980000000 1.0
C      1  0.5018480000000  0.4908690000000  0.4447590000000 1.0
C      1  0.5083960000000  0.5939660000000  0.5006180000000 1.0
C      1  0.4562580000000  0.5131450000000  0.5096870000000 1.0
C      1  0.4761200000000  0.4387360000000  0.5682860000000 1.0
C      1  0.4136630000000  0.5033200000000  0.4644110000000 1.0
C      1  0.5004000000000  0.5669480000000  0.4283070000000 1.0
C      1  0.5675780000000  0.4964660000000  0.4909070000000 1.0
C      1  0.4641340000000  0.4596320000000  0.4658580000000 1.0
C      1  0.5618610000000  0.5506470000000  0.4339740000000 1.0
C      1  0.4621730000000  0.4083230000000  0.5076370000000 1.0
C      1  0.4373310000000  0.4475110000000  0.5140560000000 1.0
C      1  0.4156870000000  0.5254440000000  0.4833910000000 1.0
C      1  0.5338520000000  0.4690930000000  0.5177030000000 1.0
C      1  0.4332470000000  0.4556820000000  0.5558750000000 1.0
C      1  0.4706940000000  0.5722950000000  0.4369160000000 1.0
C      1  0.5476180000000  0.5758060000000  0.4433100000000 1.0
C      1  0.5219730000000  0.5690640000000  0.5384680000000 1.0
C      1  0.5498670000000  0.4285610000000  0.4948610000000 1.0
C      1  0.5051280000000  0.4527380000000  0.4158360000000 1.0
C      1  0.4813150000000  0.4714080000000  0.5113640000000 1.0
C      1  0.4808300000000  0.4658230000000  0.4064620000000 1.0
C      1  0.4759290000000  0.5308310000000  0.4157710000000 1.0
C      1  0.4380670000000  0.4725200000000  0.5324330000000 1.0
C      1  0.5095280000000  0.4906440000000  0.5901760000000 1.0
C      1  0.4634230000000  0.5034870000000  0.4829490000000 1.0
C      1  0.4754060000000  0.5065120000000  0.4346350000000 1.0
C      1  0.4547800000000  0.4821050000000  0.5889590000000 1.0
C      1  0.5010450000000  0.5152360000000  0.6018160000000 1.0
C      1  0.4738820000000  0.5818140000000  0.5395470000000 1.0
C      1  0.5513270000000  0.4749410000000  0.4313130000000 1.0
C      1  0.4549510000000  0.5117320000000  0.5884690000000 1.0
C      1  0.4683600000000  0.5574080000000  0.5574620000000 1.0
C      1  0.5124110000000  0.4961110000000  0.5596360000000 1.0
C      1  0.4916360000000  0.4707120000000  0.4663860000000 1.0
C      1  0.4365800000000  0.4299930000000  0.4643780000000 1.0
C      1  0.5986940000000  0.5024930000000  0.5409670000000 1.0
C      1  0.4763600000000  0.4604690000000  0.5873970000000 1.0
C      1  0.4100530000000  0.4482640000000  0.5035200000000 1.0
C      1  0.5192610000000  0.5290040000000  0.5080640000000 1.0
C      1  0.5736930000000  0.5370710000000  0.4583330000000 1.0
C      1  0.4893710000000  0.4058270000000  0.5139420000000 1.0
C      1  0.4280220000000  0.5471670000000  0.5275990000000 1.0
C      1  0.5480190000000  0.5749670000000  0.4717700000000 1.0
C      1  0.5444200000000  0.4351850000000  0.4647690000000 1.0
C      1  0.5219730000000  0.4476900000000  0.5746030000000 1.0
C      1  0.5775300000000  0.5007450000000  0.5610150000000 1.0
C      1  0.4592670000000  0.4576510000000  0.4962100000000 1.0
C      1  0.4771740000000  0.4056900000000  0.4615730000000 1.0
C      1  0.4848220000000  0.5324230000000  0.5414470000000 1.0
C      1  0.5313600000000  0.5686280000000  0.5662350000000 1.0
C      1  0.4154060000000  0.4456130000000  0.4761490000000 1.0
C      1  0.4159870000000  0.4947750000000  0.5282460000000 1.0
C      1  0.4848460000000  0.5456770000000  0.4697190000000 1.0
C      1  0.4356980000000  0.5701070000000  0.5108670000000 1.0
C      1  0.5451450000000  0.5270030000000  0.4274030000000 1.0
C      1  0.5156750000000  0.4970010000000  0.4009010000000 1.0
C      1  0.5004200000000  0.5868360000000  0.5280380000000 1.0
C      1  0.4287930000000  0.5083390000000  0.4400230000000 1.0
C      1  0.4686370000000  0.5745190000000  0.4675280000000 1.0
C      1  0.5231080000000  0.5240850000000  0.4070150000000 1.0
C      1  0.4250330000000  0.5207540000000  0.5128750000000 1.0
C      1  0.4494750000000  0.4920290000000  0.4277590000000 1.0
C      1  0.5013060000000  0.5424160000000  0.4108390000000 1.0
C      1  0.5230700000000  0.4759310000000  0.4213550000000 1.0
C      1  0.4552290000000  0.4110040000000  0.4787770000000 1.0
C      1  0.5172620000000  0.5093910000000  0.4622780000000 1.0
C      1  0.5566280000000  0.5046980000000  0.5400700000000 1.0
C      1  0.5165160000000  0.5036360000000  0.4905330000000 1.0
C      1  0.5108410000000  0.5600750000000  0.5850080000000 1.0
C      1  0.4549330000000  0.4422800000000  0.4426280000000 1.0
C      1  0.4762470000000  0.4218560000000  0.4387740000000 1.0
C      1  0.5469290000000  0.4596910000000  0.5624120000000 1.0
C      1  0.5989480000000  0.4763400000000  0.5289580000000 1.0
C      1  0.5217100000000  0.5863760000000  0.4354010000000 1.0
C      1  0.4413150000000  0.5689300000000  0.4816650000000 1.0
C      1  0.5664200000000  0.5172130000000  0.5137890000000 1.0
C      1  0.5657640000000  0.4449730000000  0.5419330000000 1.0
C      1  0.5259990000000  0.5225100000000  0.5631570000000 1.0
C      1  0.4470370000000  0.4790400000000  0.4792160000000 1.0
C      1  0.4403300000000  0.5352130000000  0.4454870000000 1.0
C      1  0.4398580000000  0.5455390000000  0.5536840000000 1.0
C      1  0.5458330000000  0.5680890000000  0.5184960000000 1.0
C      1  0.4559480000000  0.4645690000000  0.4212250000000 1.0
C      1  0.6011540000000  0.4589200000000  0.4788780000000 1.0
C      1  0.5737440000000  0.4734440000000  0.5701090000000 1.0
C      1  0.4171550000000  0.4777230000000  0.4787660000000 1.0
C      1  0.4846970000000  0.5031110000000  0.5473290000000 1.0
C      1  0.5074760000000  0.5525030000000  0.4535850000000 1.0
C      1  0.5545420000000  0.5249600000000  0.5626580000000 1.0
C      1  0.5049230000000  0.4637680000000  0.5923630000000 1.0
C      1  0.4512610000000  0.5865760000000  0.5258330000000 1.0
C      1  0.4672560000000  0.5222560000000  0.4598690000000 1.0
C      1  0.5190950000000  0.5343470000000  0.5912540000000 1.0
C      1  0.5697340000000  0.5650140000000  0.5379250000000 1.0
C      1  0.5892940000000  0.4546800000000  0.4564130000000 1.0
C      1  0.5888670000000  0.4587090000000  0.5502990000000 1.0
C      1  0.5288830000000  0.5340280000000  0.4548860000000 1.0
C      1  0.4313250000000  0.4765840000000  0.5738550000000 1.0
C      1  0.4762290000000  0.5285950000000  0.5966310000000 1.0
C      1  0.4569180000000  0.5498980000000  0.4265160000000 1.0
C      1  0.5734030000000  0.5086950000000  0.4618900000000 1.0
C      1  0.5845190000000  0.4703380000000  0.5022440000000 1.0
C      1  0.5101560000000  0.3985610000000  0.4958120000000 1.0
C      1  0.5516270000000  0.5459310000000  0.4753030000000 1.0
C      1  0.5604220000000  0.4497290000000  0.5134420000000 1.0
C      1  0.4202870000000  0.4997800000000  0.5586920000000 1.0
C      1  0.5137540000000  0.5373500000000  0.5382380000000 1.0
C      1  0.5630880000000  0.4521390000000  0.4468460000000 1.0
C      1  0.5360350000000  0.4823610000000  0.5442000000000 1.0
C      1  0.5085360000000  0.6017300000000  0.4550270000000 1.0
C      1  0.4923560000000  0.5944750000000  0.4756050000000 1.0
C      1  0.5036950000000  0.4328680000000  0.5581900000000 1.0
C      1  0.5067530000000  0.4545000000000  0.5130720000000 1.0
C      1  0.4482260000000  0.4239430000000  0.5274720000000 1.0
C      1  0.4897990000000  0.4896380000000  0.4891010000000 1.0
C      1  0.5213070000000  0.4187260000000  0.4518650000000 1.0
C      1  0.4279990000000  0.5473020000000  0.4694730000000 1.0
C      1  0.5319190000000  0.4607250000000  0.4739620000000 1.0
C      1  0.5942980000000  0.5526010000000  0.5322670000000 1.0
C      1  0.4519020000000  0.4331350000000  0.5541150000000 1.0
C      1  0.5070840000000  0.4267820000000  0.5282480000000 1.0
C      1  0.5051230000000  0.4014750000000  0.4683440000000 1.0
C      1  0.5940210000000  0.5266810000000  0.5258210000000 1.0
C      1  0.4348410000000  0.5219840000000  0.5688940000000 1.0
END
