TITL C-39546-2436-1 -2.88292738950995 125000 -440.639901215129 0 0 65 (C1) n - 1
REM
REM in /rds/project/t2_vol4/rds-t2-cs072/BORA/CARBON/from-Arr/AIRSS/Generating-Clusters/GAP-ML-2020/Only-C1/SD-CG/HFTN-CG
REM
REM
REM
REM
REM
REM ./C.cell (11c1c37f851c82e70ff6c80c92926a4b)
REM AIRSS Version 0.9.1 bugfix July 2018 build 013d7b7c2542+ Fri, 06 Jul 2018 19:26:36 +0100
REM compiler GCC version 9.3.0
REM options -cpp -mtune=generic -march=x86-64 -g -O0
REM seed 1350892916 36570733 34510863 277120377 -354113472 -153221911 -386500207 -1915907466 1030502716 -1588848424 2145428838 2027234958 -1587403097 1360076964 -763430620 -1262450127 -1466899817 -2108070548 -2047760018 -2084932574 -716486031 69604725 82910550 1559812842 -1843646323 1300913979 -390140045 1820430219 1546310127 -456505818 601870497 -568349625 2057035184
REM
CELL 1.54180   50.00000   50.00000   50.00000   90.00000   90.00000   90.00000
LATT -1
SFAC C  
C      1  0.4549960000000  0.4854020000000  0.4618580000000 1.0
C      1  0.4619970000000  0.4467360000000  0.5055380000000 1.0
C      1  0.5331610000000  0.4336160000000  0.5123620000000 1.0
C      1  0.5026000000000  0.4957680000000  0.4691510000000 1.0
C      1  0.5093690000000  0.4347610000000  0.5460690000000 1.0
C      1  0.4362090000000  0.5121120000000  0.5223820000000 1.0
C      1  0.4996050000000  0.4455030000000  0.4796360000000 1.0
C      1  0.4679220000000  0.4832290000000  0.4363510000000 1.0
C      1  0.4711030000000  0.5540150000000  0.5373070000000 1.0
C      1  0.5159250000000  0.4809150000000  0.4283520000000 1.0
C      1  0.5455640000000  0.5204920000000  0.5534150000000 1.0
C      1  0.4529880000000  0.5394420000000  0.4592550000000 1.0
C      1  0.4484870000000  0.4738910000000  0.5449990000000 1.0
C      1  0.5367730000000  0.4437290000000  0.5398440000000 1.0
C      1  0.4698720000000  0.4838010000000  0.5837840000000 1.0
C      1  0.4699770000000  0.5310590000000  0.4378490000000 1.0
C      1  0.4548080000000  0.5028390000000  0.5438240000000 1.0
C      1  0.4927680000000  0.5468180000000  0.4457990000000 1.0
C      1  0.4907880000000  0.4653700000000  0.4346960000000 1.0
C      1  0.5203540000000  0.5022340000000  0.4902340000000 1.0
C      1  0.5060330000000  0.4242530000000  0.5187690000000 1.0
C      1  0.4964200000000  0.5231310000000  0.5672750000000 1.0
C      1  0.5672530000000  0.5032680000000  0.5070170000000 1.0
C      1  0.4774880000000  0.4904630000000  0.4811690000000 1.0
C      1  0.5455400000000  0.5429070000000  0.4807800000000 1.0
C      1  0.5052740000000  0.5238870000000  0.5030770000000 1.0
C      1  0.4350620000000  0.4975260000000  0.4778480000000 1.0
C      1  0.5496330000000  0.4834690000000  0.5216740000000 1.0
C      1  0.5027440000000  0.5768600000000  0.4932760000000 1.0
C      1  0.4699190000000  0.4646880000000  0.5631960000000 1.0
C      1  0.4970140000000  0.4745900000000  0.5221940000000 1.0
C      1  0.5662260000000  0.4872770000000  0.4744100000000 1.0
C      1  0.5291750000000  0.4531300000000  0.4899480000000 1.0
C      1  0.5417180000000  0.5286650000000  0.4549200000000 1.0
C      1  0.5427690000000  0.4926560000000  0.5587700000000 1.0
C      1  0.4922420000000  0.4572560000000  0.5472080000000 1.0
C      1  0.5197990000000  0.5693620000000  0.5129230000000 1.0
C      1  0.4373790000000  0.5267720000000  0.4789640000000 1.0
C      1  0.5530460000000  0.5026950000000  0.4527180000000 1.0
C      1  0.5237400000000  0.5127720000000  0.5688170000000 1.0
C      1  0.5390200000000  0.4780350000000  0.4442420000000 1.0
C      1  0.4788020000000  0.5073980000000  0.4268980000000 1.0
C      1  0.4824560000000  0.4661380000000  0.4963190000000 1.0
C      1  0.4430440000000  0.4641090000000  0.5182500000000 1.0
C      1  0.4756900000000  0.5692490000000  0.4913040000000 1.0
C      1  0.5283680000000  0.5642150000000  0.4863490000000 1.0
C      1  0.5154130000000  0.5446960000000  0.5266340000000 1.0
C      1  0.4333920000000  0.4886420000000  0.5053460000000 1.0
C      1  0.4393800000000  0.5359320000000  0.5061950000000 1.0
C      1  0.5172910000000  0.5312790000000  0.4394840000000 1.0
C      1  0.5425960000000  0.5359620000000  0.5300130000000 1.0
C      1  0.4593310000000  0.5569040000000  0.5130780000000 1.0
C      1  0.5879430000000  0.4934800000000  0.4903270000000 1.0
C      1  0.5239460000000  0.4787930000000  0.5078040000000 1.0
C      1  0.4737190000000  0.5584160000000  0.4660170000000 1.0
C      1  0.5493140000000  0.4682210000000  0.5455040000000 1.0
C      1  0.4940200000000  0.5440780000000  0.5477540000000 1.0
C      1  0.4793250000000  0.5132300000000  0.5020860000000 1.0
C      1  0.4829310000000  0.4999660000000  0.5264390000000 1.0
C      1  0.5073350000000  0.5082080000000  0.4246140000000 1.0
C      1  0.5557490000000  0.5305550000000  0.5054250000000 1.0
C      1  0.4845440000000  0.4274190000000  0.5010430000000 1.0
C      1  0.4714840000000  0.5076700000000  0.5703210000000 1.0
C      1  0.5477560000000  0.4639990000000  0.4682040000000 1.0
C      1  0.4934090000000  0.4460450000000  0.4526910000000 1.0
END
