TITL C-39233-7366-5 -95.9716040962064 125000 -281.786279996342 0 0 42 (C1) n - 1
REM
REM in /rds/project/t2_vol4/rds-t2-cs072/BORA/CARBON/from-Arr/AIRSS/Generating-Clusters/GAP-ML-2020/Only-C1/SD-CG/HFTN-CG
REM
REM
REM
REM
REM
REM ./C.cell (11c1c37f851c82e70ff6c80c92926a4b)
REM AIRSS Version 0.9.1 bugfix July 2018 build 013d7b7c2542+ Fri, 06 Jul 2018 19:26:36 +0100
REM compiler GCC version 9.3.0
REM options -cpp -mtune=generic -march=x86-64 -g -O0
REM seed -1010821076 603973922 1527082362 597987418 -895388722 279009701 1518384970 1702861959 -1668345669 721681712 -662727941 -670874491 1937243376 -1210981010 -1312749104 -1450073696 -1850613547 887520416 2101137014 -1460527195 697478790 1466607239 1221693179 2043629860 -1542812493 706628941 622426249 -565779181 -1499316900 -1759163824 1743170128 972189267 1794432627
REM
CELL 1.54180   50.00000   50.00000   50.00000   90.00000   90.00000   90.00000
LATT -1
SFAC C  
C      1  0.4387550000000  0.4731470000000  0.4767270000000 1.0
C      1  0.4632660000000  0.5406530000000  0.4831720000000 1.0
C      1  0.5419770000000  0.5534040000000  0.5240550000000 1.0
C      1  0.5611890000000  0.5331420000000  0.5201570000000 1.0
C      1  0.5289380000000  0.4521550000000  0.4922760000000 1.0
C      1  0.4775930000000  0.4595850000000  0.5396420000000 1.0
C      1  0.4981550000000  0.5434360000000  0.4491990000000 1.0
C      1  0.5561910000000  0.4893860000000  0.5016380000000 1.0
C      1  0.5394480000000  0.5244010000000  0.4809720000000 1.0
C      1  0.5094280000000  0.5193470000000  0.4451370000000 1.0
C      1  0.4894100000000  0.4824000000000  0.5542550000000 1.0
C      1  0.5359270000000  0.4837220000000  0.4583090000000 1.0
C      1  0.5483050000000  0.4711340000000  0.4809460000000 1.0
C      1  0.4883670000000  0.5503110000000  0.4727510000000 1.0
C      1  0.5215080000000  0.5657250000000  0.5124830000000 1.0
C      1  0.4379980000000  0.5002030000000  0.4913490000000 1.0
C      1  0.5091310000000  0.4742480000000  0.4579070000000 1.0
C      1  0.4723220000000  0.5404380000000  0.5106260000000 1.0
C      1  0.5352170000000  0.5122100000000  0.4554740000000 1.0
C      1  0.5212630000000  0.5105270000000  0.5258470000000 1.0
C      1  0.4505120000000  0.4975650000000  0.5161120000000 1.0
C      1  0.4492370000000  0.5187480000000  0.4727780000000 1.0
C      1  0.5013320000000  0.4914330000000  0.6045260000000 1.0
C      1  0.5016080000000  0.5493410000000  0.5007300000000 1.0
C      1  0.5409510000000  0.5286210000000  0.5386540000000 1.0
C      1  0.4934790000000  0.5028600000000  0.5336570000000 1.0
C      1  0.4560340000000  0.4558920000000  0.4921080000000 1.0
C      1  0.4629310000000  0.4710740000000  0.5161280000000 1.0
C      1  0.5611350000000  0.5171260000000  0.4972270000000 1.0
C      1  0.5151800000000  0.5226680000000  0.4979380000000 1.0
C      1  0.4937050000000  0.5060640000000  0.4865790000000 1.0
C      1  0.4442970000000  0.4785960000000  0.4501230000000 1.0
C      1  0.4884010000000  0.4877390000000  0.5077850000000 1.0
C      1  0.5371730000000  0.4852470000000  0.5221130000000 1.0
C      1  0.4683960000000  0.5181510000000  0.5266900000000 1.0
C      1  0.4620090000000  0.5000610000000  0.4527860000000 1.0
C      1  0.5047360000000  0.4520110000000  0.4762130000000 1.0
C      1  0.5027310000000  0.4514580000000  0.5331880000000 1.0
C      1  0.4918440000000  0.4982650000000  0.4577260000000 1.0
C      1  0.4950920000000  0.4846190000000  0.5807960000000 1.0
C      1  0.5252640000000  0.4588020000000  0.5202880000000 1.0
C      1  0.4795660000000  0.4440860000000  0.4829340000000 1.0
END
