TITL C-39023-4703-5 0.372001510766632 125000 -124.632168585524 0 0 19 (C1) n - 1
REM
REM in /rds/project/t2_vol4/rds-t2-cs072/BORA/CARBON/from-Arr/AIRSS/Generating-Clusters/GAP-ML-2020/Only-C1/SD-CG/HFTN-CG
REM
REM
REM
REM
REM
REM ./C.cell (11c1c37f851c82e70ff6c80c92926a4b)
REM AIRSS Version 0.9.1 bugfix July 2018 build 013d7b7c2542+ Fri, 06 Jul 2018 19:26:36 +0100
REM compiler GCC version 9.3.0
REM options -cpp -mtune=generic -march=x86-64 -g -O0
REM seed -1266044821 -1884186918 1762800514 781974461 -1523641943 -752854057 464434122 -1428564239 1390953843 330590300 -182040861 -817670784 2140360501 462664337 -1415566950 1378988915 -2120303562 1791693590 -280458709 1513046488 -1325069616 -1377860848 85144120 1231287527 -143155096 -726386007 1666915449 -211405473 -1369566400 -1971703655 1088574409 470515617 -993875005
REM
CELL 1.54180   50.00000   50.00000   50.00000   90.00000   90.00000   90.00000
LATT -1
SFAC C  
C      1  0.5360310000000  0.4750930000000  0.5298380000000 1.0
C      1  0.4979640000000  0.4621470000000  0.4477670000000 1.0
C      1  0.4729710000000  0.4445670000000  0.5207020000000 1.0
C      1  0.5018980000000  0.5483180000000  0.5222470000000 1.0
C      1  0.4487440000000  0.4826590000000  0.4988550000000 1.0
C      1  0.5190700000000  0.4555670000000  0.5331160000000 1.0
C      1  0.4848050000000  0.5384240000000  0.4733950000000 1.0
C      1  0.5265680000000  0.5529740000000  0.5149680000000 1.0
C      1  0.5094070000000  0.5433120000000  0.4704030000000 1.0
C      1  0.5417810000000  0.4966020000000  0.5176280000000 1.0
C      1  0.4969050000000  0.4423410000000  0.5321610000000 1.0
C      1  0.4682630000000  0.5303130000000  0.4956990000000 1.0
C      1  0.4764120000000  0.5435200000000  0.5203160000000 1.0
C      1  0.4525600000000  0.5073220000000  0.4958210000000 1.0
C      1  0.5369500000000  0.5103280000000  0.4935930000000 1.0
C      1  0.4557610000000  0.4587520000000  0.5079020000000 1.0
C      1  0.5155780000000  0.4762580000000  0.4609020000000 1.0
C      1  0.5290760000000  0.5379310000000  0.4909730000000 1.0
C      1  0.5292550000000  0.4935740000000  0.4737130000000 1.0
END
