TITL C-3971-7764-9 46.9391658984621 125000 -246.96493233051 0 0 38 (C1) n - 1
REM
REM in /rds/project/t2_vol4/rds-t2-cs072/BORA/CARBON/from-Arr/AIRSS/Generating-Clusters/GAP-ML-2020/Only-C1/SD-CG/HFTN-CG
REM
REM
REM
REM
REM
REM ./C.cell (11c1c37f851c82e70ff6c80c92926a4b)
REM AIRSS Version 0.9.1 bugfix July 2018 build 013d7b7c2542+ Fri, 06 Jul 2018 19:26:36 +0100
REM compiler GCC version 9.3.0
REM options -cpp -mtune=generic -march=x86-64 -g -O0
REM seed 831985979 1465904206 2014534150 1951534677 1895011493 1565885780 -1374877780 1180288170 -858185600 -455993373 1702016080 1652339722 236653248 -1319737412 2146874146 1329276514 1733429532 -17350084 1524766811 -1463935876 -2122412149 647349861 824729854 -14467594 724861900 1222978549 -1088437399 -511678025 -1985673696 2063939937 -1355861987 117268920 1217335557
REM
CELL 1.54180   50.00000   50.00000   50.00000   90.00000   90.00000   90.00000
LATT -1
SFAC C  
C      1  0.4757980000000  0.5335230000000  0.4753070000000 1.0
C      1  0.4862030000000  0.4852790000000  0.4651220000000 1.0
C      1  0.5589120000000  0.5131390000000  0.5028060000000 1.0
C      1  0.4524040000000  0.5170100000000  0.4672760000000 1.0
C      1  0.5476570000000  0.5262610000000  0.5257610000000 1.0
C      1  0.5129840000000  0.4890980000000  0.4540970000000 1.0
C      1  0.4990370000000  0.5375390000000  0.4580870000000 1.0
C      1  0.5152060000000  0.4902460000000  0.5356930000000 1.0
C      1  0.5241820000000  0.5286220000000  0.4718560000000 1.0
C      1  0.4790150000000  0.5466820000000  0.5025260000000 1.0
C      1  0.5353050000000  0.4766980000000  0.4618510000000 1.0
C      1  0.5141560000000  0.5176820000000  0.4478320000000 1.0
C      1  0.4633180000000  0.4958370000000  0.4517030000000 1.0
C      1  0.5209060000000  0.4904090000000  0.5074410000000 1.0
C      1  0.5276990000000  0.4477170000000  0.4961940000000 1.0
C      1  0.4835920000000  0.4934090000000  0.5358540000000 1.0
C      1  0.4705610000000  0.4963460000000  0.5089800000000 1.0
C      1  0.5475070000000  0.5359890000000  0.4856180000000 1.0
C      1  0.4720820000000  0.4643160000000  0.5318130000000 1.0
C      1  0.5113510000000  0.5149350000000  0.4958480000000 1.0
C      1  0.5194460000000  0.4616130000000  0.5429810000000 1.0
C      1  0.5281770000000  0.5153500000000  0.5437550000000 1.0
C      1  0.4784630000000  0.5219070000000  0.5437980000000 1.0
C      1  0.4465730000000  0.5135120000000  0.5129310000000 1.0
C      1  0.4957060000000  0.4500540000000  0.5310950000000 1.0
C      1  0.4818800000000  0.4627730000000  0.4834510000000 1.0
C      1  0.5487950000000  0.4872250000000  0.5004350000000 1.0
C      1  0.5044910000000  0.5325890000000  0.5415960000000 1.0
C      1  0.5053670000000  0.4664020000000  0.4978510000000 1.0
C      1  0.5066200000000  0.5404910000000  0.5128400000000 1.0
C      1  0.4857030000000  0.5066650000000  0.4866450000000 1.0
C      1  0.5228740000000  0.4427560000000  0.5231360000000 1.0
C      1  0.4599940000000  0.4676090000000  0.5021380000000 1.0
C      1  0.5479730000000  0.4640300000000  0.4831180000000 1.0
C      1  0.4360430000000  0.5064180000000  0.4877910000000 1.0
C      1  0.5362410000000  0.5478200000000  0.5104850000000 1.0
C      1  0.4358840000000  0.4770810000000  0.4923770000000 1.0
C      1  0.4618920000000  0.5349670000000  0.5219140000000 1.0
END
