TITL C-39226-7471-3 -0.0174960709225948 125000 -148.677980490124 0 0 23 (C1) n - 1
REM
REM in /rds/project/t2_vol4/rds-t2-cs072/BORA/CARBON/from-Arr/AIRSS/Generating-Clusters/GAP-ML-2020/Only-C1/SD-CG/HFTN-CG
REM
REM
REM
REM
REM
REM ./C.cell (11c1c37f851c82e70ff6c80c92926a4b)
REM AIRSS Version 0.9.1 bugfix July 2018 build 013d7b7c2542+ Fri, 06 Jul 2018 19:26:36 +0100
REM compiler GCC version 9.3.0
REM options -cpp -mtune=generic -march=x86-64 -g -O0
REM seed -272599786 -1432989386 631136892 1473625219 -791120321 707337530 1692956165 1628449593 1804159940 29658231 195284372 1678353656 1043312754 1719994492 -1285696548 -242272698 -59415783 -8737377 -967649601 -1250963027 -1518703312 754466714 -542935421 146745640 -483494372 -590403732 890794651 -1103115020 -128777001 -557200741 986846721 -701712872 -1172807917
REM
CELL 1.54180   50.00000   50.00000   50.00000   90.00000   90.00000   90.00000
LATT -1
SFAC C  
C      1  0.4891550000000  0.5205470000000  0.4931560000000 1.0
C      1  0.5067880000000  0.5178510000000  0.5369500000000 1.0
C      1  0.4418550000000  0.5203720000000  0.5032030000000 1.0
C      1  0.5007650000000  0.4732500000000  0.4559060000000 1.0
C      1  0.4931410000000  0.5117730000000  0.4657900000000 1.0
C      1  0.4940870000000  0.4700600000000  0.5033280000000 1.0
C      1  0.4526850000000  0.4852640000000  0.4699380000000 1.0
C      1  0.4760460000000  0.4892410000000  0.4576620000000 1.0
C      1  0.5211130000000  0.4642760000000  0.5004180000000 1.0
C      1  0.4777410000000  0.4928630000000  0.5088410000000 1.0
C      1  0.4602400000000  0.5296460000000  0.5300500000000 1.0
C      1  0.5291450000000  0.5107940000000  0.5511620000000 1.0
C      1  0.5531730000000  0.5019920000000  0.5452600000000 1.0
C      1  0.5030890000000  0.4582950000000  0.4801000000000 1.0
C      1  0.5462100000000  0.4776990000000  0.4985500000000 1.0
C      1  0.5387910000000  0.5171640000000  0.4992610000000 1.0
C      1  0.5509620000000  0.4980140000000  0.5185970000000 1.0
C      1  0.4788570000000  0.5099400000000  0.5365450000000 1.0
C      1  0.5173990000000  0.4973980000000  0.4611580000000 1.0
C      1  0.4647480000000  0.5367990000000  0.5026300000000 1.0
C      1  0.5130790000000  0.5236290000000  0.5089210000000 1.0
C      1  0.4509290000000  0.4944890000000  0.4954880000000 1.0
C      1  0.5400010000000  0.4986450000000  0.4770850000000 1.0
END
