TITL C-39038-1168-8 -0.0747139351702206 125000 -314.784798927266 0 0 47 (C1) n - 1
REM
REM in /rds/project/t2_vol4/rds-t2-cs072/BORA/CARBON/from-Arr/AIRSS/Generating-Clusters/GAP-ML-2020/Only-C1/SD-CG/HFTN-CG
REM
REM
REM
REM
REM
REM ./C.cell (11c1c37f851c82e70ff6c80c92926a4b)
REM AIRSS Version 0.9.1 bugfix July 2018 build 013d7b7c2542+ Fri, 06 Jul 2018 19:26:36 +0100
REM compiler GCC version 9.3.0
REM options -cpp -mtune=generic -march=x86-64 -g -O0
REM seed 931259350 1347931494 -947664484 -1524483979 -194755270 -1200897072 2133702131 1284084853 -547126120 -1428808521 2014979025 -910157496 2135736288 1265629742 1387801497 728475702 1557197054 1672893274 1414788244 -1833624933 485648611 1333123925 730832558 -1796882882 1683304044 -1200512308 2016990551 1134604126 -1122028688 -1492117732 395712662 2066638533 97549842
REM
CELL 1.54180   50.00000   50.00000   50.00000   90.00000   90.00000   90.00000
LATT -1
SFAC C  
C      1  0.4961970000000  0.4526250000000  0.5098660000000 1.0
C      1  0.5075380000000  0.4969920000000  0.5701550000000 1.0
C      1  0.5330000000000  0.5660740000000  0.5056240000000 1.0
C      1  0.4623910000000  0.5553400000000  0.4660570000000 1.0
C      1  0.4514510000000  0.4542400000000  0.4947800000000 1.0
C      1  0.5268220000000  0.5145600000000  0.4818100000000 1.0
C      1  0.5266870000000  0.5011970000000  0.4556440000000 1.0
C      1  0.5107910000000  0.4517420000000  0.5342870000000 1.0
C      1  0.5394300000000  0.4762970000000  0.4579530000000 1.0
C      1  0.5400640000000  0.5420800000000  0.5165570000000 1.0
C      1  0.5216430000000  0.5047750000000  0.5468870000000 1.0
C      1  0.5190340000000  0.5301460000000  0.5345860000000 1.0
C      1  0.4795060000000  0.5548000000000  0.4452350000000 1.0
C      1  0.4628260000000  0.4802710000000  0.5476240000000 1.0
C      1  0.4880310000000  0.5669480000000  0.5330220000000 1.0
C      1  0.5381550000000  0.4582090000000  0.5348700000000 1.0
C      1  0.5152670000000  0.4634390000000  0.4622440000000 1.0
C      1  0.5268700000000  0.4881760000000  0.4991280000000 1.0
C      1  0.4611440000000  0.4953190000000  0.5234770000000 1.0
C      1  0.5094230000000  0.5619550000000  0.4919890000000 1.0
C      1  0.4581230000000  0.4814670000000  0.4981050000000 1.0
C      1  0.4803140000000  0.5191430000000  0.4891470000000 1.0
C      1  0.5523020000000  0.5252250000000  0.4949190000000 1.0
C      1  0.4917720000000  0.4524790000000  0.5555130000000 1.0
C      1  0.4696430000000  0.5229550000000  0.5179940000000 1.0
C      1  0.4542710000000  0.5304040000000  0.4773440000000 1.0
C      1  0.5651900000000  0.4570270000000  0.4992300000000 1.0
C      1  0.5046510000000  0.4717520000000  0.4893910000000 1.0
C      1  0.5600510000000  0.4465470000000  0.5224920000000 1.0
C      1  0.4862060000000  0.5703830000000  0.5056110000000 1.0
C      1  0.4618750000000  0.5647860000000  0.4931250000000 1.0
C      1  0.4496130000000  0.4412370000000  0.4696500000000 1.0
C      1  0.4487210000000  0.5410330000000  0.5041060000000 1.0
C      1  0.4877200000000  0.4797970000000  0.5647680000000 1.0
C      1  0.5047040000000  0.5347790000000  0.4795160000000 1.0
C      1  0.4650420000000  0.4520130000000  0.5421810000000 1.0
C      1  0.4909370000000  0.4622150000000  0.4472690000000 1.0
C      1  0.4687920000000  0.4465130000000  0.5149820000000 1.0
C      1  0.5693950000000  0.5053070000000  0.4903220000000 1.0
C      1  0.4808800000000  0.4910700000000  0.4814040000000 1.0
C      1  0.5024760000000  0.5094560000000  0.4424690000000 1.0
C      1  0.4828630000000  0.4902270000000  0.4515670000000 1.0
C      1  0.4916480000000  0.5396150000000  0.5328760000000 1.0
C      1  0.5304040000000  0.4849530000000  0.5284530000000 1.0
C      1  0.5551090000000  0.4792790000000  0.4851630000000 1.0
C      1  0.4987460000000  0.5364630000000  0.4493600000000 1.0
C      1  0.4722830000000  0.4486860000000  0.4612520000000 1.0
END
