TITL C-39035-1119-7 213.999707800673 125000 -633.880209115057 0 0 91 (C1) n - 1
REM
REM in /rds/project/t2_vol4/rds-t2-cs072/BORA/CARBON/from-Arr/AIRSS/Generating-Clusters/GAP-ML-2020/Only-C1/SD-CG/HFTN-CG
REM
REM
REM
REM
REM
REM ./C.cell (11c1c37f851c82e70ff6c80c92926a4b)
REM AIRSS Version 0.9.1 bugfix July 2018 build 013d7b7c2542+ Fri, 06 Jul 2018 19:26:36 +0100
REM compiler GCC version 9.3.0
REM options -cpp -mtune=generic -march=x86-64 -g -O0
REM seed -1267947357 -1714295482 -167318102 -1127150050 2100983673 -109764563 -545338453 -777780379 325845176 -1563430542 1382104994 -1638758292 1496323825 -1505967682 1387288703 -955506232 -351105931 -15157293 666005447 1210172954 420394211 1566643157 -715227710 -703388649 -1868995887 -979358914 315096316 -566626513 232555954 -990724662 1118840405 -1758566341 927748110
REM
CELL 1.54180   50.00000   50.00000   50.00000   90.00000   90.00000   90.00000
LATT -1
SFAC C  
C      1  0.4969670000000  0.5674020000000  0.4769280000000 1.0
C      1  0.5600310000000  0.4653820000000  0.4509290000000 1.0
C      1  0.5268660000000  0.4745640000000  0.4952190000000 1.0
C      1  0.4978740000000  0.4337920000000  0.4492220000000 1.0
C      1  0.4374190000000  0.4977330000000  0.5533480000000 1.0
C      1  0.5622740000000  0.5633580000000  0.5402900000000 1.0
C      1  0.5588260000000  0.4561520000000  0.5254010000000 1.0
C      1  0.4321900000000  0.5313600000000  0.4921640000000 1.0
C      1  0.5438200000000  0.4433820000000  0.5466660000000 1.0
C      1  0.5122100000000  0.4992310000000  0.4211040000000 1.0
C      1  0.4625580000000  0.4538640000000  0.4366560000000 1.0
C      1  0.5050920000000  0.5246060000000  0.5760750000000 1.0
C      1  0.4475740000000  0.4783700000000  0.4309080000000 1.0
C      1  0.5077550000000  0.4955170000000  0.5743230000000 1.0
C      1  0.5117830000000  0.5922090000000  0.5159630000000 1.0
C      1  0.5517990000000  0.5452000000000  0.5610330000000 1.0
C      1  0.5182640000000  0.4346140000000  0.5354270000000 1.0
C      1  0.4191460000000  0.5105540000000  0.5366000000000 1.0
C      1  0.4786630000000  0.5306180000000  0.5654060000000 1.0
C      1  0.5037920000000  0.5230190000000  0.4787460000000 1.0
C      1  0.5696610000000  0.4926890000000  0.4531600000000 1.0
C      1  0.5380740000000  0.4534490000000  0.5724630000000 1.0
C      1  0.5696700000000  0.5549390000000  0.5111400000000 1.0
C      1  0.5174270000000  0.4667150000000  0.5821420000000 1.0
C      1  0.5464690000000  0.5610480000000  0.4699510000000 1.0
C      1  0.4808000000000  0.5543450000000  0.5479430000000 1.0
C      1  0.4286910000000  0.5229920000000  0.4646060000000 1.0
C      1  0.5434950000000  0.5259050000000  0.5427210000000 1.0
C      1  0.5206060000000  0.4802420000000  0.4687450000000 1.0
C      1  0.5202350000000  0.5628760000000  0.4589830000000 1.0
C      1  0.5704760000000  0.5011590000000  0.5023610000000 1.0
C      1  0.5276700000000  0.4299740000000  0.4885900000000 1.0
C      1  0.4795990000000  0.4865070000000  0.5771080000000 1.0
C      1  0.4749390000000  0.4915730000000  0.4794000000000 1.0
C      1  0.4974880000000  0.5016890000000  0.5199780000000 1.0
C      1  0.5464370000000  0.5854620000000  0.5377390000000 1.0
C      1  0.5724070000000  0.5307380000000  0.4957680000000 1.0
C      1  0.4616340000000  0.5384100000000  0.5004050000000 1.0
C      1  0.5160990000000  0.5441850000000  0.4367450000000 1.0
C      1  0.4474560000000  0.5259350000000  0.4427820000000 1.0
C      1  0.4895730000000  0.5388280000000  0.4288490000000 1.0
C      1  0.4733180000000  0.4676930000000  0.4961750000000 1.0
C      1  0.4877630000000  0.4450680000000  0.5524040000000 1.0
C      1  0.4614060000000  0.5065980000000  0.5681380000000 1.0
C      1  0.4922130000000  0.5765970000000  0.5033970000000 1.0
C      1  0.4109800000000  0.4882110000000  0.4913250000000 1.0
C      1  0.5130220000000  0.4705540000000  0.4261060000000 1.0
C      1  0.5553370000000  0.5168140000000  0.4482200000000 1.0
C      1  0.5269350000000  0.5409960000000  0.5212860000000 1.0
C      1  0.5483550000000  0.4510380000000  0.4973500000000 1.0
C      1  0.4178920000000  0.4592250000000  0.4907880000000 1.0
C      1  0.5320220000000  0.4609180000000  0.4476070000000 1.0
C      1  0.5236960000000  0.5456140000000  0.5701010000000 1.0
C      1  0.4243970000000  0.4769710000000  0.4477660000000 1.0
C      1  0.5787460000000  0.4857200000000  0.4797880000000 1.0
C      1  0.5002220000000  0.4729530000000  0.5095400000000 1.0
C      1  0.4167640000000  0.5122810000000  0.5094420000000 1.0
C      1  0.5165490000000  0.5199530000000  0.5050360000000 1.0
C      1  0.4429910000000  0.4732790000000  0.5374970000000 1.0
C      1  0.4689840000000  0.5437080000000  0.4473940000000 1.0
C      1  0.4739710000000  0.5593830000000  0.5195530000000 1.0
C      1  0.5542090000000  0.5729890000000  0.4945500000000 1.0
C      1  0.5309510000000  0.5197470000000  0.4320380000000 1.0
C      1  0.4799740000000  0.4245280000000  0.5099180000000 1.0
C      1  0.4427110000000  0.4447480000000  0.5324950000000 1.0
C      1  0.5057710000000  0.4615320000000  0.5365020000000 1.0
C      1  0.4348230000000  0.4412210000000  0.5054810000000 1.0
C      1  0.4990850000000  0.4979790000000  0.4677910000000 1.0
C      1  0.5416760000000  0.4978870000000  0.5378930000000 1.0
C      1  0.4584560000000  0.5044490000000  0.4258430000000 1.0
C      1  0.4503020000000  0.4399140000000  0.4603050000000 1.0
C      1  0.4905370000000  0.4526050000000  0.4305120000000 1.0
C      1  0.5384240000000  0.4992310000000  0.5052430000000 1.0
C      1  0.4253160000000  0.4535540000000  0.4637250000000 1.0
C      1  0.5095350000000  0.4235280000000  0.5097210000000 1.0
C      1  0.4883960000000  0.4588830000000  0.5772850000000 1.0
C      1  0.5142380000000  0.4891950000000  0.5455810000000 1.0
C      1  0.4685790000000  0.4327130000000  0.5354220000000 1.0
C      1  0.4794580000000  0.5442450000000  0.4749310000000 1.0
C      1  0.5653990000000  0.4835970000000  0.5282560000000 1.0
C      1  0.4546980000000  0.4838180000000  0.5140670000000 1.0
C      1  0.4157680000000  0.4977600000000  0.4647560000000 1.0
C      1  0.4860160000000  0.5124280000000  0.4185410000000 1.0
C      1  0.5218340000000  0.4356560000000  0.4613330000000 1.0
C      1  0.5181410000000  0.5866700000000  0.5441390000000 1.0
C      1  0.5064800000000  0.5650330000000  0.5566360000000 1.0
C      1  0.5399470000000  0.5910850000000  0.5097450000000 1.0
C      1  0.4703100000000  0.5084790000000  0.5081510000000 1.0
C      1  0.4602630000000  0.4370680000000  0.4896940000000 1.0
C      1  0.5685190000000  0.4587290000000  0.4777140000000 1.0
C      1  0.5608150000000  0.5365690000000  0.4688330000000 1.0
END
