TITL C-39234-6469-9 7.94721222724264 125000 -938.781243478254 0 0 133 (C1) n - 1
REM
REM in /rds/project/t2_vol4/rds-t2-cs072/BORA/CARBON/from-Arr/AIRSS/Generating-Clusters/GAP-ML-2020/Only-C1/SD-CG/HFTN-CG
REM
REM
REM
REM
REM
REM ./C.cell (11c1c37f851c82e70ff6c80c92926a4b)
REM AIRSS Version 0.9.1 bugfix July 2018 build 013d7b7c2542+ Fri, 06 Jul 2018 19:26:36 +0100
REM compiler GCC version 9.3.0
REM options -cpp -mtune=generic -march=x86-64 -g -O0
REM seed -1085796907 1747467474 1023967519 -557536659 -799597898 -1004348356 -901120700 -1961264897 -1266485939 515807389 -192263146 662053384 64213828 1955039513 -1593759932 -635000594 -128781353 -1192233100 -1671952718 -994612901 -1319160074 743024261 -1933872729 -1482533237 234244445 -549760874 -28117211 -1318723810 1536615212 355348429 145249027 1811294254 -153893632
REM
CELL 1.54180   50.00000   50.00000   50.00000   90.00000   90.00000   90.00000
LATT -1
SFAC C  
C      1  0.5109370000000  0.4956070000000  0.4869680000000 1.0
C      1  0.4594430000000  0.4176010000000  0.4665510000000 1.0
C      1  0.4067520000000  0.4973460000000  0.5113120000000 1.0
C      1  0.5704470000000  0.4261450000000  0.4998980000000 1.0
C      1  0.5601630000000  0.4727240000000  0.5670570000000 1.0
C      1  0.5134260000000  0.4583730000000  0.5710530000000 1.0
C      1  0.5044570000000  0.4433440000000  0.4475030000000 1.0
C      1  0.5921250000000  0.5145820000000  0.5103250000000 1.0
C      1  0.4122190000000  0.5332590000000  0.4713050000000 1.0
C      1  0.4462410000000  0.4321720000000  0.4866480000000 1.0
C      1  0.5689670000000  0.5778460000000  0.4890470000000 1.0
C      1  0.5591150000000  0.5657280000000  0.4449260000000 1.0
C      1  0.5221720000000  0.5776380000000  0.5444320000000 1.0
C      1  0.5232720000000  0.5904100000000  0.4705750000000 1.0
C      1  0.4800600000000  0.4897580000000  0.5300000000000 1.0
C      1  0.5464810000000  0.5209410000000  0.5898380000000 1.0
C      1  0.5157520000000  0.5738780000000  0.4242290000000 1.0
C      1  0.5285560000000  0.5236800000000  0.3956040000000 1.0
C      1  0.4015460000000  0.4921550000000  0.5403630000000 1.0
C      1  0.5103660000000  0.4658960000000  0.4976430000000 1.0
C      1  0.4284460000000  0.4914790000000  0.4409720000000 1.0
C      1  0.5572080000000  0.4251950000000  0.4742910000000 1.0
C      1  0.5523790000000  0.5829690000000  0.4666400000000 1.0
C      1  0.4637690000000  0.4822250000000  0.5848800000000 1.0
C      1  0.5014910000000  0.4861290000000  0.4142800000000 1.0
C      1  0.4367750000000  0.4831330000000  0.5742790000000 1.0
C      1  0.5029670000000  0.4208210000000  0.5413340000000 1.0
C      1  0.4415400000000  0.5614990000000  0.4942190000000 1.0
C      1  0.5194760000000  0.5419200000000  0.4621390000000 1.0
C      1  0.4048700000000  0.4646530000000  0.5446690000000 1.0
C      1  0.5518250000000  0.4670130000000  0.4412340000000 1.0
C      1  0.4901310000000  0.5427290000000  0.4902230000000 1.0
C      1  0.4889770000000  0.5414160000000  0.4614920000000 1.0
C      1  0.5521990000000  0.4174470000000  0.5197610000000 1.0
C      1  0.5442270000000  0.5339540000000  0.4149080000000 1.0
C      1  0.4352180000000  0.5002620000000  0.5251290000000 1.0
C      1  0.4338720000000  0.5552320000000  0.4676960000000 1.0
C      1  0.4701060000000  0.5183800000000  0.4570960000000 1.0
C      1  0.5151160000000  0.4758340000000  0.5459140000000 1.0
C      1  0.4309990000000  0.4590270000000  0.4798920000000 1.0
C      1  0.5678180000000  0.4526550000000  0.5487210000000 1.0
C      1  0.4516170000000  0.5552120000000  0.4447210000000 1.0
C      1  0.4917220000000  0.5592260000000  0.4191680000000 1.0
C      1  0.5738600000000  0.5413680000000  0.4481120000000 1.0
C      1  0.4753600000000  0.5499780000000  0.5800910000000 1.0
C      1  0.5329740000000  0.5167520000000  0.4592720000000 1.0
C      1  0.4118200000000  0.4493540000000  0.5216740000000 1.0
C      1  0.4593310000000  0.5278470000000  0.4292040000000 1.0
C      1  0.5897400000000  0.5434640000000  0.5145410000000 1.0
C      1  0.5681130000000  0.4911840000000  0.4433260000000 1.0
C      1  0.4894220000000  0.5172480000000  0.5279870000000 1.0
C      1  0.5760280000000  0.4929510000000  0.5249530000000 1.0
C      1  0.5414670000000  0.5615660000000  0.4233620000000 1.0
C      1  0.5292320000000  0.5007930000000  0.5465280000000 1.0
C      1  0.4480610000000  0.5098520000000  0.4805170000000 1.0
C      1  0.4483210000000  0.5012280000000  0.4229970000000 1.0
C      1  0.4970730000000  0.4670710000000  0.5252270000000 1.0
C      1  0.4245890000000  0.5453730000000  0.5128640000000 1.0
C      1  0.5576840000000  0.5187590000000  0.4384370000000 1.0
C      1  0.4834600000000  0.4926850000000  0.4519430000000 1.0
C      1  0.4892670000000  0.5820200000000  0.5142170000000 1.0
C      1  0.4695230000000  0.5100080000000  0.5894550000000 1.0
C      1  0.4417110000000  0.4394270000000  0.5563620000000 1.0
C      1  0.5829100000000  0.4636950000000  0.5267530000000 1.0
C      1  0.4297850000000  0.5524690000000  0.5423250000000 1.0
C      1  0.5209910000000  0.4690480000000  0.4380250000000 1.0
C      1  0.4584600000000  0.4250200000000  0.4404660000000 1.0
C      1  0.5230510000000  0.4325400000000  0.5566280000000 1.0
C      1  0.4736320000000  0.5707010000000  0.5594260000000 1.0
C      1  0.4703290000000  0.5605490000000  0.5059540000000 1.0
C      1  0.5157260000000  0.5832700000000  0.4990080000000 1.0
C      1  0.4347790000000  0.4321470000000  0.5294080000000 1.0
C      1  0.4055320000000  0.5274490000000  0.4990950000000 1.0
C      1  0.5491990000000  0.4308190000000  0.5446970000000 1.0
C      1  0.5738360000000  0.5597540000000  0.5326130000000 1.0
C      1  0.4281070000000  0.4640820000000  0.4494660000000 1.0
C      1  0.5310710000000  0.5513970000000  0.5509760000000 1.0
C      1  0.4907240000000  0.5141570000000  0.4981870000000 1.0
C      1  0.4481600000000  0.5715160000000  0.5475610000000 1.0
C      1  0.5523350000000  0.4871970000000  0.5037570000000 1.0
C      1  0.5906620000000  0.5368840000000  0.4694520000000 1.0
C      1  0.4311360000000  0.5320120000000  0.5626790000000 1.0
C      1  0.4225660000000  0.5089990000000  0.4628090000000 1.0
C      1  0.5944750000000  0.5111770000000  0.4813380000000 1.0
C      1  0.4591100000000  0.4259660000000  0.5127840000000 1.0
C      1  0.5339150000000  0.4973220000000  0.5954860000000 1.0
C      1  0.4823420000000  0.4367430000000  0.4292760000000 1.0
C      1  0.5088670000000  0.4155870000000  0.4624930000000 1.0
C      1  0.5858660000000  0.4495770000000  0.5020590000000 1.0
C      1  0.5611190000000  0.4986440000000  0.5520330000000 1.0
C      1  0.5190190000000  0.5252630000000  0.5348430000000 1.0
C      1  0.4670850000000  0.5367740000000  0.5255740000000 1.0
C      1  0.5130670000000  0.4935960000000  0.4563860000000 1.0
C      1  0.5051660000000  0.4051340000000  0.5184160000000 1.0
C      1  0.4941240000000  0.5810790000000  0.5421870000000 1.0
C      1  0.4810640000000  0.4060530000000  0.5032540000000 1.0
C      1  0.5350080000000  0.5881720000000  0.5209280000000 1.0
C      1  0.5377080000000  0.5091410000000  0.4906650000000 1.0
C      1  0.4837390000000  0.5332370000000  0.4130430000000 1.0
C      1  0.5637760000000  0.5239020000000  0.5679890000000 1.0
C      1  0.4557980000000  0.4819330000000  0.5178850000000 1.0
C      1  0.5615140000000  0.5807280000000  0.5165490000000 1.0
C      1  0.4648560000000  0.4563390000000  0.4175560000000 1.0
C      1  0.4692960000000  0.4424010000000  0.5607520000000 1.0
C      1  0.5196160000000  0.5224580000000  0.5984390000000 1.0
C      1  0.4841080000000  0.4064550000000  0.4753870000000 1.0
C      1  0.5879030000000  0.5565100000000  0.4893950000000 1.0
C      1  0.4527590000000  0.5322750000000  0.5804510000000 1.0
C      1  0.4825510000000  0.4596070000000  0.5781840000000 1.0
C      1  0.5302160000000  0.4058900000000  0.5057860000000 1.0
C      1  0.5652660000000  0.4481780000000  0.4592530000000 1.0
C      1  0.4097310000000  0.4668070000000  0.4990510000000 1.0
C      1  0.5385740000000  0.4632030000000  0.5023540000000 1.0
C      1  0.5322670000000  0.4114090000000  0.4773720000000 1.0
C      1  0.4933790000000  0.4534900000000  0.4764090000000 1.0
C      1  0.5846120000000  0.4618260000000  0.4754280000000 1.0
C      1  0.4744540000000  0.4722030000000  0.4700080000000 1.0
C      1  0.5871540000000  0.4884760000000  0.4653760000000 1.0
C      1  0.4816900000000  0.4398420000000  0.5341490000000 1.0
C      1  0.5046630000000  0.5129470000000  0.4050310000000 1.0
C      1  0.4534470000000  0.4803970000000  0.4880800000000 1.0
C      1  0.4733450000000  0.4827350000000  0.4210510000000 1.0
C      1  0.4257310000000  0.5046940000000  0.5559510000000 1.0
C      1  0.5323860000000  0.5314600000000  0.5076890000000 1.0
C      1  0.5188010000000  0.5511450000000  0.4918660000000 1.0
C      1  0.4927190000000  0.5284530000000  0.5915010000000 1.0
C      1  0.4799830000000  0.5655940000000  0.4454600000000 1.0
C      1  0.5593310000000  0.5480320000000  0.5538570000000 1.0
C      1  0.4417150000000  0.4470180000000  0.4321630000000 1.0
C      1  0.5057970000000  0.5851480000000  0.4490330000000 1.0
C      1  0.4241280000000  0.4594260000000  0.5650890000000 1.0
C      1  0.4444700000000  0.5233370000000  0.5103350000000 1.0
C      1  0.5370200000000  0.4720910000000  0.5850630000000 1.0
END
