TITL C-39537-2505-9 0.222057119668783 125000 -309.754234657187 0 0 47 (C1) n - 1
REM
REM in /rds/project/t2_vol4/rds-t2-cs072/BORA/CARBON/from-Arr/AIRSS/Generating-Clusters/GAP-ML-2020/Only-C1/SD-CG/HFTN-CG
REM
REM
REM
REM
REM
REM ./C.cell (11c1c37f851c82e70ff6c80c92926a4b)
REM AIRSS Version 0.9.1 bugfix July 2018 build 013d7b7c2542+ Fri, 06 Jul 2018 19:26:36 +0100
REM compiler GCC version 9.3.0
REM options -cpp -mtune=generic -march=x86-64 -g -O0
REM seed 7128207 472548393 -1954060010 1098900014 -262371099 -2076447151 2063090204 308855896 1515161847 -1513349183 1120181702 1820883854 912465800 -1513768814 -2051777584 -1643885996 -328493533 377690338 1059452772 -1076882055 944814567 678808978 -1937498666 -746833255 277776028 -598893897 849268839 2127441838 1875793965 -1890078924 -1336616304 -711754611 -750069087
REM
CELL 1.54180   50.00000   50.00000   50.00000   90.00000   90.00000   90.00000
LATT -1
SFAC C  
C      1  0.5625250000000  0.4747110000000  0.5009790000000 1.0
C      1  0.5073460000000  0.5526480000000  0.5355890000000 1.0
C      1  0.5114010000000  0.4480050000000  0.4693020000000 1.0
C      1  0.5115580000000  0.5242970000000  0.4941440000000 1.0
C      1  0.5214690000000  0.4827830000000  0.4396960000000 1.0
C      1  0.4661850000000  0.5436950000000  0.5623740000000 1.0
C      1  0.4537940000000  0.5029680000000  0.5401340000000 1.0
C      1  0.5032310000000  0.5049390000000  0.4474760000000 1.0
C      1  0.4959260000000  0.5081480000000  0.5331960000000 1.0
C      1  0.5359180000000  0.5150610000000  0.5093300000000 1.0
C      1  0.4724370000000  0.4853380000000  0.5257580000000 1.0
C      1  0.4649220000000  0.4543010000000  0.4846170000000 1.0
C      1  0.4825210000000  0.5434060000000  0.4630670000000 1.0
C      1  0.5082130000000  0.4696280000000  0.5545670000000 1.0
C      1  0.5507250000000  0.5062650000000  0.4713200000000 1.0
C      1  0.5573190000000  0.4605930000000  0.4739180000000 1.0
C      1  0.5100490000000  0.5469470000000  0.4751200000000 1.0
C      1  0.4770990000000  0.4654450000000  0.4428770000000 1.0
C      1  0.5583360000000  0.5026360000000  0.4970950000000 1.0
C      1  0.4585590000000  0.4526700000000  0.4578570000000 1.0
C      1  0.4753170000000  0.4930820000000  0.4465210000000 1.0
C      1  0.5188660000000  0.5688940000000  0.4917000000000 1.0
C      1  0.4926580000000  0.5159150000000  0.5612720000000 1.0
C      1  0.4878750000000  0.4620180000000  0.5377040000000 1.0
C      1  0.5234390000000  0.4612890000000  0.5091000000000 1.0
C      1  0.5477980000000  0.4640730000000  0.5229460000000 1.0
C      1  0.4422220000000  0.5244850000000  0.5251790000000 1.0
C      1  0.4712120000000  0.5001060000000  0.4761080000000 1.0
C      1  0.5018240000000  0.5008400000000  0.4786340000000 1.0
C      1  0.4952960000000  0.5454490000000  0.5602060000000 1.0
C      1  0.4696130000000  0.5501250000000  0.5157600000000 1.0
C      1  0.5434630000000  0.4824470000000  0.4594530000000 1.0
C      1  0.5322050000000  0.4784070000000  0.5427190000000 1.0
C      1  0.4895550000000  0.4418580000000  0.4898880000000 1.0
C      1  0.4526800000000  0.5488900000000  0.5387110000000 1.0
C      1  0.4997360000000  0.4475620000000  0.5155740000000 1.0
C      1  0.5402360000000  0.4392170000000  0.4728610000000 1.0
C      1  0.5190850000000  0.5696270000000  0.5174040000000 1.0
C      1  0.4510540000000  0.5347520000000  0.4993820000000 1.0
C      1  0.5252700000000  0.5036560000000  0.5321810000000 1.0
C      1  0.4944960000000  0.5329100000000  0.5177190000000 1.0
C      1  0.5052810000000  0.4588540000000  0.4427680000000 1.0
C      1  0.4644150000000  0.5140110000000  0.5647730000000 1.0
C      1  0.4633950000000  0.4802950000000  0.4974210000000 1.0
C      1  0.5183740000000  0.4754780000000  0.4820070000000 1.0
C      1  0.5028540000000  0.5336120000000  0.4479170000000 1.0
C      1  0.4622500000000  0.5276630000000  0.4756770000000 1.0
END
