TITL C-39547-5354-7 -0.0320985079921799 125000 -173.915925268981 0 0 27 (C1) n - 1
REM
REM in /rds/project/t2_vol4/rds-t2-cs072/BORA/CARBON/from-Arr/AIRSS/Generating-Clusters/GAP-ML-2020/Only-C1/SD-CG/HFTN-CG
REM
REM
REM
REM
REM
REM ./C.cell (11c1c37f851c82e70ff6c80c92926a4b)
REM AIRSS Version 0.9.1 bugfix July 2018 build 013d7b7c2542+ Fri, 06 Jul 2018 19:26:36 +0100
REM compiler GCC version 9.3.0
REM options -cpp -mtune=generic -march=x86-64 -g -O0
REM seed -665856280 -388236238 -579101052 -425684719 -1533365012 1244331580 1229824485 -1878105992 1374709202 110851724 1088462141 -952388940 -1898272945 -1856940058 981059024 977287426 -1371388537 340129053 -1869899017 -1529646366 1407632901 -1663509928 -330488834 779887657 638828464 -732018365 -1660759406 -987129155 -1178811487 -503716798 -1143842287 -1696708352 -177149473
REM
CELL 1.54180   50.00000   50.00000   50.00000   90.00000   90.00000   90.00000
LATT -1
SFAC C  
C      1  0.4768190000000  0.4786010000000  0.5117300000000 1.0
C      1  0.4896070000000  0.4211450000000  0.4889390000000 1.0
C      1  0.4840780000000  0.4542270000000  0.5235740000000 1.0
C      1  0.5027720000000  0.4649100000000  0.4691240000000 1.0
C      1  0.5021180000000  0.5578630000000  0.4915820000000 1.0
C      1  0.5319500000000  0.5212420000000  0.5228520000000 1.0
C      1  0.4619760000000  0.5057980000000  0.4746310000000 1.0
C      1  0.4532640000000  0.4871730000000  0.4886930000000 1.0
C      1  0.4847560000000  0.5747080000000  0.4794830000000 1.0
C      1  0.4759720000000  0.5032310000000  0.5279250000000 1.0
C      1  0.5100580000000  0.5346450000000  0.5362530000000 1.0
C      1  0.5415180000000  0.4959880000000  0.4866630000000 1.0
C      1  0.4965650000000  0.4381860000000  0.4704650000000 1.0
C      1  0.5292510000000  0.4934800000000  0.5309420000000 1.0
C      1  0.5263190000000  0.4757250000000  0.4578560000000 1.0
C      1  0.4985020000000  0.4840810000000  0.4920580000000 1.0
C      1  0.5115000000000  0.5337540000000  0.4791590000000 1.0
C      1  0.4933350000000  0.5461180000000  0.5172310000000 1.0
C      1  0.4775500000000  0.5234820000000  0.5085450000000 1.0
C      1  0.4594100000000  0.5719600000000  0.4798610000000 1.0
C      1  0.4852910000000  0.4297700000000  0.5152150000000 1.0
C      1  0.5248060000000  0.4817870000000  0.5054500000000 1.0
C      1  0.5135030000000  0.4918600000000  0.5532630000000 1.0
C      1  0.4947000000000  0.5109350000000  0.5478820000000 1.0
C      1  0.5338490000000  0.5216870000000  0.4941780000000 1.0
C      1  0.5500120000000  0.4854690000000  0.4626520000000 1.0
C      1  0.4905190000000  0.5121770000000  0.4837950000000 1.0
END
