TITL C-39217-6469-1 -208.833896704728 125000 -880.56658815414 0 0 125 (C1) n - 1
REM
REM in /rds/project/t2_vol4/rds-t2-cs072/BORA/CARBON/from-Arr/AIRSS/Generating-Clusters/GAP-ML-2020/Only-C1/SD-CG/HFTN-CG
REM
REM
REM
REM
REM
REM ./C.cell (11c1c37f851c82e70ff6c80c92926a4b)
REM AIRSS Version 0.9.1 bugfix July 2018 build 013d7b7c2542+ Fri, 06 Jul 2018 19:26:36 +0100
REM compiler GCC version 9.3.0
REM options -cpp -mtune=generic -march=x86-64 -g -O0
REM seed -472909524 1226984577 -1830821365 708719689 -1017701360 1298122749 1318847949 -1387084274 2063127117 98948378 1802786223 -1131433306 1418849762 -1299568852 -1292757931 -112899615 -1453221140 711332769 1351746626 -1122926830 -73121243 -787319694 1283472601 603119082 2016909408 744921860 -458404473 -1844393835 -285532557 325423657 35482552 199129744 335953969
REM
CELL 1.54180   50.00000   50.00000   50.00000   90.00000   90.00000   90.00000
LATT -1
SFAC C  
C      1  0.5033290000000  0.4835670000000  0.5937760000000 1.0
C      1  0.5040330000000  0.5664730000000  0.5731390000000 1.0
C      1  0.5154510000000  0.5206480000000  0.4109290000000 1.0
C      1  0.4827000000000  0.5485070000000  0.5788390000000 1.0
C      1  0.5714620000000  0.4422650000000  0.4692700000000 1.0
C      1  0.5042180000000  0.4938710000000  0.4119140000000 1.0
C      1  0.5092610000000  0.4095710000000  0.5272600000000 1.0
C      1  0.5314650000000  0.5596020000000  0.5693150000000 1.0
C      1  0.4760320000000  0.4867850000000  0.4148410000000 1.0
C      1  0.4250670000000  0.4438160000000  0.5157780000000 1.0
C      1  0.4508000000000  0.4886940000000  0.5403380000000 1.0
C      1  0.5431220000000  0.4723400000000  0.5614390000000 1.0
C      1  0.5629630000000  0.4949380000000  0.5412910000000 1.0
C      1  0.5194370000000  0.5146730000000  0.5636380000000 1.0
C      1  0.4718150000000  0.4686810000000  0.5016870000000 1.0
C      1  0.4616180000000  0.5647830000000  0.5661970000000 1.0
C      1  0.4617780000000  0.4653590000000  0.5555010000000 1.0
C      1  0.5014200000000  0.5775620000000  0.4770460000000 1.0
C      1  0.5938060000000  0.4783420000000  0.4955990000000 1.0
C      1  0.5174090000000  0.4710300000000  0.4267180000000 1.0
C      1  0.5486080000000  0.4832750000000  0.4705600000000 1.0
C      1  0.4165560000000  0.4970190000000  0.4553610000000 1.0
C      1  0.4832080000000  0.4093800000000  0.5376260000000 1.0
C      1  0.4532400000000  0.4949700000000  0.5890980000000 1.0
C      1  0.4586630000000  0.4165160000000  0.4935600000000 1.0
C      1  0.5717640000000  0.5299460000000  0.4523340000000 1.0
C      1  0.4699110000000  0.4602870000000  0.4249460000000 1.0
C      1  0.5008150000000  0.5459950000000  0.4205240000000 1.0
C      1  0.5200280000000  0.5656920000000  0.4272620000000 1.0
C      1  0.4297960000000  0.4534790000000  0.4665140000000 1.0
C      1  0.5909540000000  0.5334450000000  0.4971910000000 1.0
C      1  0.4640050000000  0.5204440000000  0.4457380000000 1.0
C      1  0.5223710000000  0.5795910000000  0.4989300000000 1.0
C      1  0.5409780000000  0.5327110000000  0.5700520000000 1.0
C      1  0.4044610000000  0.5146490000000  0.5074060000000 1.0
C      1  0.4329760000000  0.5075580000000  0.5705750000000 1.0
C      1  0.5417480000000  0.5631280000000  0.5433460000000 1.0
C      1  0.5443330000000  0.5274880000000  0.4135370000000 1.0
C      1  0.5443560000000  0.4999550000000  0.5176420000000 1.0
C      1  0.4353460000000  0.5548760000000  0.4977370000000 1.0
C      1  0.4769690000000  0.5321160000000  0.5243900000000 1.0
C      1  0.4216150000000  0.4922990000000  0.5460260000000 1.0
C      1  0.5051130000000  0.4628240000000  0.4732810000000 1.0
C      1  0.5655960000000  0.5475670000000  0.5053540000000 1.0
C      1  0.4858450000000  0.4148580000000  0.4830430000000 1.0
C      1  0.5103030000000  0.5882440000000  0.5235040000000 1.0
C      1  0.4502740000000  0.5693180000000  0.4757860000000 1.0
C      1  0.4544970000000  0.4371650000000  0.5574390000000 1.0
C      1  0.4945310000000  0.4661400000000  0.5180440000000 1.0
C      1  0.4798190000000  0.4240150000000  0.5609530000000 1.0
C      1  0.4896750000000  0.4597240000000  0.5907170000000 1.0
C      1  0.4533890000000  0.5590790000000  0.4498150000000 1.0
C      1  0.4386020000000  0.5592820000000  0.5506120000000 1.0
C      1  0.4805490000000  0.4777990000000  0.4759250000000 1.0
C      1  0.5616440000000  0.5567490000000  0.4455800000000 1.0
C      1  0.5206420000000  0.5127880000000  0.4654390000000 1.0
C      1  0.4960120000000  0.4497160000000  0.4261750000000 1.0
C      1  0.5938840000000  0.5220260000000  0.4714820000000 1.0
C      1  0.4622300000000  0.4687710000000  0.5843140000000 1.0
C      1  0.4846690000000  0.5918760000000  0.5328400000000 1.0
C      1  0.5046160000000  0.5324300000000  0.5147050000000 1.0
C      1  0.5205940000000  0.4823760000000  0.4577170000000 1.0
C      1  0.5197120000000  0.5607210000000  0.5236990000000 1.0
C      1  0.4546850000000  0.5029360000000  0.4244490000000 1.0
C      1  0.5701560000000  0.5165930000000  0.4252300000000 1.0
C      1  0.4557740000000  0.5097020000000  0.4944930000000 1.0
C      1  0.4405540000000  0.4284350000000  0.5344080000000 1.0
C      1  0.4755240000000  0.5068850000000  0.4735860000000 1.0
C      1  0.5491180000000  0.5142220000000  0.4711360000000 1.0
C      1  0.5474220000000  0.5736920000000  0.4634620000000 1.0
C      1  0.5495250000000  0.4239740000000  0.4673020000000 1.0
C      1  0.4959280000000  0.5500250000000  0.4672890000000 1.0
C      1  0.4720540000000  0.5829800000000  0.4870820000000 1.0
C      1  0.5978280000000  0.4938730000000  0.4712020000000 1.0
C      1  0.5659580000000  0.4643110000000  0.4510340000000 1.0
C      1  0.5527970000000  0.5214350000000  0.4984700000000 1.0
C      1  0.5208450000000  0.5778410000000  0.4534540000000 1.0
C      1  0.5494200000000  0.5712090000000  0.4915220000000 1.0
C      1  0.5639600000000  0.5474360000000  0.5352280000000 1.0
C      1  0.4112270000000  0.5174080000000  0.5351690000000 1.0
C      1  0.5008430000000  0.5251350000000  0.4823960000000 1.0
C      1  0.5848100000000  0.4511860000000  0.4929670000000 1.0
C      1  0.5011370000000  0.4444540000000  0.5682490000000 1.0
C      1  0.5994960000000  0.5172020000000  0.5175430000000 1.0
C      1  0.4379830000000  0.5361030000000  0.4476630000000 1.0
C      1  0.5879480000000  0.4963330000000  0.4218620000000 1.0
C      1  0.4750530000000  0.5089300000000  0.5429740000000 1.0
C      1  0.4635310000000  0.5867490000000  0.5148140000000 1.0
C      1  0.4047280000000  0.4855170000000  0.5006040000000 1.0
C      1  0.4131260000000  0.5347960000000  0.4887700000000 1.0
C      1  0.5452370000000  0.5544120000000  0.4226320000000 1.0
C      1  0.4802180000000  0.5459850000000  0.4422560000000 1.0
C      1  0.4894550000000  0.5207660000000  0.5706480000000 1.0
C      1  0.4123700000000  0.4688870000000  0.5220770000000 1.0
C      1  0.5436180000000  0.4545490000000  0.4322630000000 1.0
C      1  0.4556210000000  0.5338590000000  0.5067320000000 1.0
C      1  0.4260570000000  0.5329830000000  0.5554100000000 1.0
C      1  0.4130250000000  0.4765170000000  0.4742200000000 1.0
C      1  0.5366070000000  0.4158330000000  0.4914050000000 1.0
C      1  0.4534410000000  0.4870520000000  0.5112070000000 1.0
C      1  0.4334850000000  0.4867310000000  0.4349490000000 1.0
C      1  0.5097780000000  0.4083750000000  0.4985360000000 1.0
C      1  0.4405110000000  0.5711990000000  0.5228860000000 1.0
C      1  0.4595500000000  0.4116870000000  0.5212990000000 1.0
C      1  0.4169360000000  0.5253360000000  0.4620700000000 1.0
C      1  0.4430550000000  0.4606680000000  0.4403630000000 1.0
C      1  0.4831870000000  0.5820420000000  0.5594190000000 1.0
C      1  0.5305300000000  0.4448670000000  0.5592400000000 1.0
C      1  0.5169650000000  0.4623660000000  0.4999880000000 1.0
C      1  0.5434720000000  0.4744090000000  0.5001670000000 1.0
C      1  0.4967510000000  0.4907660000000  0.5342030000000 1.0
C      1  0.5072330000000  0.4272320000000  0.4395510000000 1.0
C      1  0.4812410000000  0.5027830000000  0.5918090000000 1.0
C      1  0.5898000000000  0.4925390000000  0.5217500000000 1.0
C      1  0.4952650000000  0.4325020000000  0.4636350000000 1.0
C      1  0.5323940000000  0.4245090000000  0.5383640000000 1.0
C      1  0.4901470000000  0.4648010000000  0.5471690000000 1.0
C      1  0.5265370000000  0.4894360000000  0.5775190000000 1.0
C      1  0.4359320000000  0.4356650000000  0.4886800000000 1.0
C      1  0.5355930000000  0.4298610000000  0.4422830000000 1.0
C      1  0.5628320000000  0.5240590000000  0.5523780000000 1.0
C      1  0.5892090000000  0.4818430000000  0.4454040000000 1.0
C      1  0.5631480000000  0.4499280000000  0.5097480000000 1.0
C      1  0.5184100000000  0.5097240000000  0.5306320000000 1.0
C      1  0.5488820000000  0.4266730000000  0.5154540000000 1.0
END
