TITL C-39050-4789-1 3.10730477631325 125000 -130.68686495565 0 0 20 (C1) n - 1
REM
REM in /rds/project/t2_vol4/rds-t2-cs072/BORA/CARBON/from-Arr/AIRSS/Generating-Clusters/GAP-ML-2020/Only-C1/SD-CG/HFTN-CG
REM
REM
REM
REM
REM
REM ./C.cell (11c1c37f851c82e70ff6c80c92926a4b)
REM AIRSS Version 0.9.1 bugfix July 2018 build 013d7b7c2542+ Fri, 06 Jul 2018 19:26:36 +0100
REM compiler GCC version 9.3.0
REM options -cpp -mtune=generic -march=x86-64 -g -O0
REM seed 788798886 615849824 1933926651 1707272146 -955345587 1495960590 -763979634 -1923748471 -1687645812 -63890693 1470390864 -846582901 1415697333 -735409046 1638712072 -67411781 135848589 -137703149 2088886911 1416815789 -1938494814 863665646 1071095654 2112904700 -1449745047 57353663 -1351183479 -1326585704 -523032907 2079192158 -75767227 -722309 1283591542
REM
CELL 1.54180   50.00000   50.00000   50.00000   90.00000   90.00000   90.00000
LATT -1
SFAC C  
C      1  0.4853510000000  0.4535860000000  0.4793230000000 1.0
C      1  0.5372610000000  0.4904400000000  0.5129330000000 1.0
C      1  0.4867490000000  0.5003770000000  0.5497830000000 1.0
C      1  0.5313550000000  0.5346650000000  0.5270440000000 1.0
C      1  0.5230540000000  0.4789690000000  0.4605820000000 1.0
C      1  0.5121890000000  0.4619160000000  0.4810560000000 1.0
C      1  0.4431280000000  0.4821340000000  0.4776840000000 1.0
C      1  0.4452010000000  0.5083660000000  0.4770160000000 1.0
C      1  0.5345580000000  0.5169410000000  0.5058520000000 1.0
C      1  0.4559600000000  0.5321000000000  0.4763040000000 1.0
C      1  0.5061800000000  0.4578640000000  0.5296780000000 1.0
C      1  0.5051040000000  0.5429580000000  0.4771580000000 1.0
C      1  0.4933000000000  0.4771120000000  0.5404780000000 1.0
C      1  0.5200590000000  0.5382180000000  0.5494060000000 1.0
C      1  0.4620880000000  0.4633720000000  0.4783550000000 1.0
C      1  0.5287120000000  0.5036430000000  0.4592210000000 1.0
C      1  0.5224840000000  0.4677720000000  0.5078410000000 1.0
C      1  0.5007300000000  0.5210420000000  0.5555050000000 1.0
C      1  0.5266030000000  0.5249760000000  0.4787090000000 1.0
C      1  0.4799350000000  0.5435510000000  0.4760720000000 1.0
END
