TITL C-39562-6236-3 0.17015955693923 125000 -592.510642190019 0 0 85 (C1) n - 1
REM
REM in /rds/project/t2_vol4/rds-t2-cs072/BORA/CARBON/from-Arr/AIRSS/Generating-Clusters/GAP-ML-2020/Only-C1/SD-CG/HFTN-CG
REM
REM
REM
REM
REM
REM ./C.cell (11c1c37f851c82e70ff6c80c92926a4b)
REM AIRSS Version 0.9.1 bugfix July 2018 build 013d7b7c2542+ Fri, 06 Jul 2018 19:26:36 +0100
REM compiler GCC version 9.3.0
REM options -cpp -mtune=generic -march=x86-64 -g -O0
REM seed 1408179023 -762110753 190041519 920992194 933082802 517464906 1187958264 1887130257 -1709470356 -1413908177 -536820817 1087861512 1972634718 898366706 1755794660 1173033656 431612089 -1651113094 1461258257 -2135405017 582223508 -1283826279 -1862871770 1240782333 -1420560125 -1547684664 -1420840183 1561517704 -992388446 -1515897733 -1291662856 853729065 -570284873
REM
CELL 1.54180   50.00000   50.00000   50.00000   90.00000   90.00000   90.00000
LATT -1
SFAC C  
C      1  0.4862190000000  0.5113860000000  0.4148120000000 1.0
C      1  0.5477520000000  0.5085810000000  0.5700840000000 1.0
C      1  0.4954970000000  0.4786820000000  0.4680060000000 1.0
C      1  0.4730770000000  0.4777000000000  0.5700120000000 1.0
C      1  0.5061250000000  0.5396710000000  0.4490150000000 1.0
C      1  0.5726300000000  0.4849800000000  0.5080560000000 1.0
C      1  0.5607980000000  0.4580620000000  0.5094550000000 1.0
C      1  0.4936990000000  0.5339180000000  0.5748820000000 1.0
C      1  0.5305260000000  0.4664560000000  0.5728250000000 1.0
C      1  0.4471240000000  0.4829530000000  0.5579080000000 1.0
C      1  0.5097940000000  0.4258490000000  0.5170900000000 1.0
C      1  0.4353100000000  0.5277590000000  0.5078380000000 1.0
C      1  0.4364700000000  0.5114980000000  0.4550900000000 1.0
C      1  0.4547330000000  0.5088820000000  0.5510310000000 1.0
C      1  0.4570660000000  0.5146520000000  0.5224110000000 1.0
C      1  0.4842470000000  0.4517260000000  0.5631490000000 1.0
C      1  0.4614370000000  0.5496830000000  0.4385230000000 1.0
C      1  0.5657810000000  0.5022990000000  0.4595970000000 1.0
C      1  0.4522330000000  0.5377980000000  0.4645810000000 1.0
C      1  0.5098150000000  0.4304320000000  0.4602390000000 1.0
C      1  0.4632190000000  0.5271860000000  0.4218990000000 1.0
C      1  0.4324540000000  0.4685520000000  0.5372140000000 1.0
C      1  0.5193990000000  0.5084740000000  0.4967090000000 1.0
C      1  0.5004380000000  0.5147510000000  0.5395800000000 1.0
C      1  0.4976030000000  0.5310690000000  0.4963260000000 1.0
C      1  0.4461910000000  0.5489320000000  0.4915350000000 1.0
C      1  0.4813010000000  0.4256700000000  0.5196640000000 1.0
C      1  0.5101010000000  0.5621990000000  0.5304460000000 1.0
C      1  0.5512220000000  0.4531730000000  0.4598330000000 1.0
C      1  0.5386070000000  0.4830380000000  0.4269860000000 1.0
C      1  0.5730190000000  0.5025360000000  0.5312170000000 1.0
C      1  0.4870420000000  0.5633650000000  0.4441090000000 1.0
C      1  0.5435900000000  0.5313430000000  0.5540720000000 1.0
C      1  0.4787170000000  0.5587390000000  0.5308570000000 1.0
C      1  0.4665560000000  0.5652970000000  0.5046500000000 1.0
C      1  0.5253510000000  0.4352410000000  0.5386650000000 1.0
C      1  0.5288680000000  0.5854710000000  0.5326560000000 1.0
C      1  0.4218670000000  0.4792890000000  0.5129440000000 1.0
C      1  0.4830260000000  0.4382980000000  0.4483680000000 1.0
C      1  0.4892150000000  0.4655330000000  0.4361090000000 1.0
C      1  0.5181890000000  0.4629610000000  0.4276860000000 1.0
C      1  0.4887040000000  0.5813780000000  0.4641150000000 1.0
C      1  0.4948120000000  0.4576380000000  0.4909300000000 1.0
C      1  0.4439600000000  0.4444950000000  0.5380540000000 1.0
C      1  0.5471610000000  0.5220080000000  0.4995770000000 1.0
C      1  0.4830320000000  0.5072710000000  0.5638600000000 1.0
C      1  0.5591440000000  0.5293610000000  0.5278830000000 1.0
C      1  0.5289280000000  0.4433030000000  0.4449130000000 1.0
C      1  0.5351860000000  0.5435690000000  0.4601850000000 1.0
C      1  0.4267060000000  0.4677650000000  0.4864610000000 1.0
C      1  0.5404860000000  0.5499470000000  0.4890210000000 1.0
C      1  0.4723140000000  0.4858210000000  0.4224840000000 1.0
C      1  0.5349780000000  0.5110140000000  0.4261800000000 1.0
C      1  0.5658050000000  0.4912930000000  0.5556470000000 1.0
C      1  0.4687580000000  0.4919000000000  0.5046360000000 1.0
C      1  0.4233620000000  0.4950880000000  0.4739580000000 1.0
C      1  0.5528740000000  0.5793400000000  0.5249520000000 1.0
C      1  0.4766270000000  0.4987650000000  0.4775480000000 1.0
C      1  0.4705490000000  0.4376470000000  0.4943840000000 1.0
C      1  0.4900220000000  0.4758500000000  0.5140950000000 1.0
C      1  0.5507130000000  0.5233610000000  0.4468910000000 1.0
C      1  0.5549520000000  0.4654590000000  0.5570680000000 1.0
C      1  0.5096570000000  0.5225990000000  0.4254570000000 1.0
C      1  0.5195510000000  0.4921410000000  0.4730090000000 1.0
C      1  0.4691630000000  0.5601270000000  0.5579470000000 1.0
C      1  0.4433710000000  0.4452440000000  0.4835080000000 1.0
C      1  0.5464130000000  0.4475160000000  0.4871760000000 1.0
C      1  0.5181220000000  0.4366130000000  0.4898330000000 1.0
C      1  0.4617960000000  0.4331650000000  0.4665120000000 1.0
C      1  0.4818470000000  0.5301310000000  0.5218170000000 1.0
C      1  0.5679150000000  0.5039390000000  0.4872070000000 1.0
C      1  0.5508620000000  0.4489840000000  0.5348450000000 1.0
C      1  0.5279260000000  0.4926660000000  0.5818030000000 1.0
C      1  0.4191150000000  0.5061340000000  0.5005560000000 1.0
C      1  0.5586400000000  0.4775890000000  0.4465990000000 1.0
C      1  0.5121280000000  0.4473270000000  0.5621490000000 1.0
C      1  0.4896510000000  0.5735010000000  0.4895730000000 1.0
C      1  0.4690060000000  0.4353530000000  0.5436160000000 1.0
C      1  0.5109500000000  0.4936490000000  0.5210640000000 1.0
C      1  0.5123070000000  0.5568070000000  0.5004290000000 1.0
C      1  0.5617240000000  0.5566940000000  0.5125190000000 1.0
C      1  0.4829300000000  0.5266320000000  0.4706650000000 1.0
C      1  0.4761680000000  0.5548690000000  0.5827190000000 1.0
C      1  0.5157760000000  0.5388150000000  0.5512140000000 1.0
C      1  0.4496040000000  0.5031460000000  0.4308140000000 1.0
END
