TITL C-39216-6427-2 774.599930239557 125000 -793.660842743704 0 0 113 (C1) n - 1
REM
REM in /rds/project/t2_vol4/rds-t2-cs072/BORA/CARBON/from-Arr/AIRSS/Generating-Clusters/GAP-ML-2020/Only-C1/SD-CG/HFTN-CG
REM
REM
REM
REM
REM
REM ./C.cell (11c1c37f851c82e70ff6c80c92926a4b)
REM AIRSS Version 0.9.1 bugfix July 2018 build 013d7b7c2542+ Fri, 06 Jul 2018 19:26:36 +0100
REM compiler GCC version 9.3.0
REM options -cpp -mtune=generic -march=x86-64 -g -O0
REM seed 1669418412 -1768962430 -1619319668 2041266062 357378517 1568218103 -287168775 -2094962650 -336002270 -2053348062 -2028726619 1068195201 -1339765730 1354815462 1069261061 1928042963 -54275287 -1368316985 -1507198420 990406236 730597779 -1191022769 -1006810574 -1595520897 -650347978 -1366817602 -1292643645 1649510883 -1050614838 -88993320 431640444 555136520 -2012709709
REM
CELL 1.54180   50.00000   50.00000   50.00000   90.00000   90.00000   90.00000
LATT -1
SFAC C  
C      1  0.4870420000000  0.5581950000000  0.5688030000000 1.0
C      1  0.5146360000000  0.4963270000000  0.4782340000000 1.0
C      1  0.5542090000000  0.5519460000000  0.5511530000000 1.0
C      1  0.5085840000000  0.4546400000000  0.5059680000000 1.0
C      1  0.4771030000000  0.5379980000000  0.4353020000000 1.0
C      1  0.4252240000000  0.4682140000000  0.4773050000000 1.0
C      1  0.5642690000000  0.4326670000000  0.5140820000000 1.0
C      1  0.5180110000000  0.5183200000000  0.5015440000000 1.0
C      1  0.4168550000000  0.5417840000000  0.4701370000000 1.0
C      1  0.5133530000000  0.4209660000000  0.5543940000000 1.0
C      1  0.5099340000000  0.5031570000000  0.4081990000000 1.0
C      1  0.5320200000000  0.4615990000000  0.4269050000000 1.0
C      1  0.4331700000000  0.5208070000000  0.4621790000000 1.0
C      1  0.4613440000000  0.4633480000000  0.4431740000000 1.0
C      1  0.4964020000000  0.4328620000000  0.4439870000000 1.0
C      1  0.4860320000000  0.5336840000000  0.5842450000000 1.0
C      1  0.5567880000000  0.5654390000000  0.5030030000000 1.0
C      1  0.4710620000000  0.5248920000000  0.4863060000000 1.0
C      1  0.5564250000000  0.4365890000000  0.4610910000000 1.0
C      1  0.5765100000000  0.5369290000000  0.5474370000000 1.0
C      1  0.4547320000000  0.4302910000000  0.4804080000000 1.0
C      1  0.5462700000000  0.5213240000000  0.4912460000000 1.0
C      1  0.5211390000000  0.4340370000000  0.4297670000000 1.0
C      1  0.4208480000000  0.4555380000000  0.5020800000000 1.0
C      1  0.5550340000000  0.5003480000000  0.4259560000000 1.0
C      1  0.5697630000000  0.5234580000000  0.4346790000000 1.0
C      1  0.5615890000000  0.4866880000000  0.4521170000000 1.0
C      1  0.4981130000000  0.5832340000000  0.4851280000000 1.0
C      1  0.6028260000000  0.5032020000000  0.4745420000000 1.0
C      1  0.5088080000000  0.5025550000000  0.4514780000000 1.0
C      1  0.5172460000000  0.4114470000000  0.5265960000000 1.0
C      1  0.5391660000000  0.4325390000000  0.5530270000000 1.0
C      1  0.5841260000000  0.5294400000000  0.5213030000000 1.0
C      1  0.4971800000000  0.5703930000000  0.5122640000000 1.0
C      1  0.5219750000000  0.3985950000000  0.4598140000000 1.0
C      1  0.5254040000000  0.5479060000000  0.4335000000000 1.0
C      1  0.5552910000000  0.4596030000000  0.4439220000000 1.0
C      1  0.4122820000000  0.5083760000000  0.5036870000000 1.0
C      1  0.4885270000000  0.4963200000000  0.5303790000000 1.0
C      1  0.4437690000000  0.4517760000000  0.4619590000000 1.0
C      1  0.4976040000000  0.4717010000000  0.4860520000000 1.0
C      1  0.4360830000000  0.4521410000000  0.5454310000000 1.0
C      1  0.5624630000000  0.5673510000000  0.4556540000000 1.0
C      1  0.5813040000000  0.4775780000000  0.5131770000000 1.0
C      1  0.4883780000000  0.4595840000000  0.4556410000000 1.0
C      1  0.5601650000000  0.4437200000000  0.4880490000000 1.0
C      1  0.4493930000000  0.4589270000000  0.5694410000000 1.0
C      1  0.5543600000000  0.5480500000000  0.4378930000000 1.0
C      1  0.5144380000000  0.4899690000000  0.5828370000000 1.0
C      1  0.4943760000000  0.4259500000000  0.5109740000000 1.0
C      1  0.4833010000000  0.5665840000000  0.4445690000000 1.0
C      1  0.5452900000000  0.4177500000000  0.5276430000000 1.0
C      1  0.5303850000000  0.4703620000000  0.5190150000000 1.0
C      1  0.4377160000000  0.5082340000000  0.5753020000000 1.0
C      1  0.5363060000000  0.4831270000000  0.5659540000000 1.0
C      1  0.5116040000000  0.5699190000000  0.4439770000000 1.0
C      1  0.4057790000000  0.5347610000000  0.4975160000000 1.0
C      1  0.4966280000000  0.4103630000000  0.4628160000000 1.0
C      1  0.5063010000000  0.4762130000000  0.4388000000000 1.0
C      1  0.5691670000000  0.5088460000000  0.5505820000000 1.0
C      1  0.5064130000000  0.5249440000000  0.4309130000000 1.0
C      1  0.5536770000000  0.4722610000000  0.4975910000000 1.0
C      1  0.5348090000000  0.4884620000000  0.4114690000000 1.0
C      1  0.4910600000000  0.4826290000000  0.4140940000000 1.0
C      1  0.4298290000000  0.5125880000000  0.5484330000000 1.0
C      1  0.4513310000000  0.5855820000000  0.5115950000000 1.0
C      1  0.4747790000000  0.5824320000000  0.5271930000000 1.0
C      1  0.4304160000000  0.5713350000000  0.5250830000000 1.0
C      1  0.4778420000000  0.5232440000000  0.5307850000000 1.0
C      1  0.5721950000000  0.4544780000000  0.5313290000000 1.0
C      1  0.4634020000000  0.4804430000000  0.4195640000000 1.0
C      1  0.4297910000000  0.4974210000000  0.4817810000000 1.0
C      1  0.4435360000000  0.5584050000000  0.5466320000000 1.0
C      1  0.5297940000000  0.5350870000000  0.5640810000000 1.0
C      1  0.4773180000000  0.4524610000000  0.5737070000000 1.0
C      1  0.5855750000000  0.5073230000000  0.4536070000000 1.0
C      1  0.5195200000000  0.4987430000000  0.5254430000000 1.0
C      1  0.4240930000000  0.5681650000000  0.4789130000000 1.0
C      1  0.5115150000000  0.5198910000000  0.5829520000000 1.0
C      1  0.4802700000000  0.4174040000000  0.4852190000000 1.0
C      1  0.4479750000000  0.4318160000000  0.5294450000000 1.0
C      1  0.4505400000000  0.5040820000000  0.4100640000000 1.0
C      1  0.4685560000000  0.4909330000000  0.5964800000000 1.0
C      1  0.4578530000000  0.5283490000000  0.4126360000000 1.0
C      1  0.5122820000000  0.5584680000000  0.5574050000000 1.0
C      1  0.4908400000000  0.5357720000000  0.5059820000000 1.0
C      1  0.4775630000000  0.4819410000000  0.5067430000000 1.0
C      1  0.5851630000000  0.5011540000000  0.5283200000000 1.0
C      1  0.5388310000000  0.5080200000000  0.5497940000000 1.0
C      1  0.6015060000000  0.4850700000000  0.4930510000000 1.0
C      1  0.5674090000000  0.5389780000000  0.5001290000000 1.0
C      1  0.4198960000000  0.4682260000000  0.5281460000000 1.0
C      1  0.5384050000000  0.4176390000000  0.4476900000000 1.0
C      1  0.4122950000000  0.5617320000000  0.5060110000000 1.0
C      1  0.4384540000000  0.4333990000000  0.5032590000000 1.0
C      1  0.5208640000000  0.5811930000000  0.4685760000000 1.0
C      1  0.4681300000000  0.5719140000000  0.5528140000000 1.0
C      1  0.4634390000000  0.5181510000000  0.5897890000000 1.0
C      1  0.4498620000000  0.5308960000000  0.5405860000000 1.0
C      1  0.4900390000000  0.4749860000000  0.5877300000000 1.0
C      1  0.4597810000000  0.5002900000000  0.4941480000000 1.0
C      1  0.4744240000000  0.4257480000000  0.5332260000000 1.0
C      1  0.4872280000000  0.4312360000000  0.5578200000000 1.0
C      1  0.5478840000000  0.5757470000000  0.4775240000000 1.0
C      1  0.4494600000000  0.5817360000000  0.4828860000000 1.0
C      1  0.5457980000000  0.5684410000000  0.5292430000000 1.0
C      1  0.5181960000000  0.5715780000000  0.5332230000000 1.0
C      1  0.4615350000000  0.5280030000000  0.4592890000000 1.0
C      1  0.4433410000000  0.4818340000000  0.5847460000000 1.0
C      1  0.5459270000000  0.4937640000000  0.4786780000000 1.0
C      1  0.5452690000000  0.4608530000000  0.5469060000000 1.0
C      1  0.4741780000000  0.5799230000000  0.4689370000000 1.0
C      1  0.4158060000000  0.4962620000000  0.5297180000000 1.0
END
