TITL C-39560-4977-3 -186.864407548511 125000 -756.029131432753 0 0 110 (C1) n - 1
REM
REM in /rds/project/t2_vol4/rds-t2-cs072/BORA/CARBON/from-Arr/AIRSS/Generating-Clusters/GAP-ML-2020/Only-C1/SD-CG/HFTN-CG
REM
REM
REM
REM
REM
REM ./C.cell (11c1c37f851c82e70ff6c80c92926a4b)
REM AIRSS Version 0.9.1 bugfix July 2018 build 013d7b7c2542+ Fri, 06 Jul 2018 19:26:36 +0100
REM compiler GCC version 9.3.0
REM options -cpp -mtune=generic -march=x86-64 -g -O0
REM seed -501473792 1607613104 1094667701 -549413087 57528710 468795507 719135673 -1085586380 -1415991263 1578963071 1360670455 -1140328992 1846719594 -1793271403 -976058356 366794250 -1250254416 -719635875 1660781472 -1223248758 -1037311721 2012231242 573615496 -103751337 -1724826576 1924204139 -857411060 1407923054 316499731 850724859 -2037995745 133407848 1959387682
REM
CELL 1.54180   50.00000   50.00000   50.00000   90.00000   90.00000   90.00000
LATT -1
SFAC C  
C      1  0.4254860000000  0.5168730000000  0.5503340000000 1.0
C      1  0.4971120000000  0.5869920000000  0.4774300000000 1.0
C      1  0.5386910000000  0.5716230000000  0.4949660000000 1.0
C      1  0.5264020000000  0.5890790000000  0.4767280000000 1.0
C      1  0.5414810000000  0.4376850000000  0.4540630000000 1.0
C      1  0.4721200000000  0.5390000000000  0.5282120000000 1.0
C      1  0.5652940000000  0.5546260000000  0.5287370000000 1.0
C      1  0.5890450000000  0.4627890000000  0.5056310000000 1.0
C      1  0.5703670000000  0.5093050000000  0.5409840000000 1.0
C      1  0.4735930000000  0.5133980000000  0.5677510000000 1.0
C      1  0.4631300000000  0.4347420000000  0.5354930000000 1.0
C      1  0.6138210000000  0.4756320000000  0.5061030000000 1.0
C      1  0.5121910000000  0.5201150000000  0.5455830000000 1.0
C      1  0.4289150000000  0.5700880000000  0.4855180000000 1.0
C      1  0.5694550000000  0.4850940000000  0.4621910000000 1.0
C      1  0.5212380000000  0.4543650000000  0.5622750000000 1.0
C      1  0.5098440000000  0.4313540000000  0.5293460000000 1.0
C      1  0.5221900000000  0.4760420000000  0.5118040000000 1.0
C      1  0.4875230000000  0.4736650000000  0.5957510000000 1.0
C      1  0.5321630000000  0.5057320000000  0.4315440000000 1.0
C      1  0.4551490000000  0.5246550000000  0.4403710000000 1.0
C      1  0.4460300000000  0.5002350000000  0.5623570000000 1.0
C      1  0.4612620000000  0.4384380000000  0.4519680000000 1.0
C      1  0.4809040000000  0.5321440000000  0.4322340000000 1.0
C      1  0.4828760000000  0.5141470000000  0.5395850000000 1.0
C      1  0.5077290000000  0.5221330000000  0.4987350000000 1.0
C      1  0.5631630000000  0.5377300000000  0.5511140000000 1.0
C      1  0.4875280000000  0.5461550000000  0.5681180000000 1.0
C      1  0.4549230000000  0.5709480000000  0.4945070000000 1.0
C      1  0.5146160000000  0.5499070000000  0.5580960000000 1.0
C      1  0.5038040000000  0.5432940000000  0.4465340000000 1.0
C      1  0.5373260000000  0.4776700000000  0.5629600000000 1.0
C      1  0.5222000000000  0.4106370000000  0.4876220000000 1.0
C      1  0.4269230000000  0.4626920000000  0.5353390000000 1.0
C      1  0.5825930000000  0.5358600000000  0.4794300000000 1.0
C      1  0.4855560000000  0.4190130000000  0.5255390000000 1.0
C      1  0.4444470000000  0.5634210000000  0.5580300000000 1.0
C      1  0.5909820000000  0.5169220000000  0.5207570000000 1.0
C      1  0.5166050000000  0.5713710000000  0.5375910000000 1.0
C      1  0.5767230000000  0.4590880000000  0.4784880000000 1.0
C      1  0.4799530000000  0.5848990000000  0.5002420000000 1.0
C      1  0.5879470000000  0.5073100000000  0.4750590000000 1.0
C      1  0.5033610000000  0.4720150000000  0.4087660000000 1.0
C      1  0.4551840000000  0.4974170000000  0.5014880000000 1.0
C      1  0.5458090000000  0.4875450000000  0.5029730000000 1.0
C      1  0.5531130000000  0.4825450000000  0.4356970000000 1.0
C      1  0.5181420000000  0.5283950000000  0.4722450000000 1.0
C      1  0.5426120000000  0.5434400000000  0.5698880000000 1.0
C      1  0.4737420000000  0.4843550000000  0.4626620000000 1.0
C      1  0.5091910000000  0.4529010000000  0.4266160000000 1.0
C      1  0.4050310000000  0.4992270000000  0.4795320000000 1.0
C      1  0.4875120000000  0.5410720000000  0.5042940000000 1.0
C      1  0.4066840000000  0.4743050000000  0.4915890000000 1.0
C      1  0.4972810000000  0.4069090000000  0.5015540000000 1.0
C      1  0.4928550000000  0.4964220000000  0.5818270000000 1.0
C      1  0.5476690000000  0.5573530000000  0.4419400000000 1.0
C      1  0.4994850000000  0.4804660000000  0.4732640000000 1.0
C      1  0.5017330000000  0.4483920000000  0.4812080000000 1.0
C      1  0.5158500000000  0.4273470000000  0.4622910000000 1.0
C      1  0.4355610000000  0.4558840000000  0.4511130000000 1.0
C      1  0.4187040000000  0.5023930000000  0.4551290000000 1.0
C      1  0.4903660000000  0.5787220000000  0.5285990000000 1.0
C      1  0.5626100000000  0.4807090000000  0.5492740000000 1.0
C      1  0.5428430000000  0.5467200000000  0.4800220000000 1.0
C      1  0.5310690000000  0.5359450000000  0.4318130000000 1.0
C      1  0.4278870000000  0.5440450000000  0.5592620000000 1.0
C      1  0.4840840000000  0.5062830000000  0.4195740000000 1.0
C      1  0.6005690000000  0.4992480000000  0.5001560000000 1.0
C      1  0.4566210000000  0.4262560000000  0.4772200000000 1.0
C      1  0.5317090000000  0.4335160000000  0.5460100000000 1.0
C      1  0.5098920000000  0.4977840000000  0.4137350000000 1.0
C      1  0.4074750000000  0.5490460000000  0.4902140000000 1.0
C      1  0.4192940000000  0.5525460000000  0.4658590000000 1.0
C      1  0.5009100000000  0.4919400000000  0.5014170000000 1.0
C      1  0.5218910000000  0.5005770000000  0.4617930000000 1.0
C      1  0.5019280000000  0.5727360000000  0.4515200000000 1.0
C      1  0.5367030000000  0.5218110000000  0.5847060000000 1.0
C      1  0.5298040000000  0.5794170000000  0.4496530000000 1.0
C      1  0.5450110000000  0.4921660000000  0.4759140000000 1.0
C      1  0.5187190000000  0.4484830000000  0.5054030000000 1.0
C      1  0.5716620000000  0.4582080000000  0.5308590000000 1.0
C      1  0.4454250000000  0.4726940000000  0.5557290000000 1.0
C      1  0.4921850000000  0.4584090000000  0.5716450000000 1.0
C      1  0.4569760000000  0.4782260000000  0.4831190000000 1.0
C      1  0.4721880000000  0.5612140000000  0.5473990000000 1.0
C      1  0.4340410000000  0.4824130000000  0.4408770000000 1.0
C      1  0.5656320000000  0.5510740000000  0.4627980000000 1.0
C      1  0.5506460000000  0.5092690000000  0.5186690000000 1.0
C      1  0.5591520000000  0.4381050000000  0.4761260000000 1.0
C      1  0.4347470000000  0.5277170000000  0.4597420000000 1.0
C      1  0.4385740000000  0.4404330000000  0.5216640000000 1.0
C      1  0.5269210000000  0.5231120000000  0.5209450000000 1.0
C      1  0.5544660000000  0.4362400000000  0.5281940000000 1.0
C      1  0.5417550000000  0.5714390000000  0.5228100000000 1.0
C      1  0.4615630000000  0.4955240000000  0.4373750000000 1.0
C      1  0.5831410000000  0.5412320000000  0.5088620000000 1.0
C      1  0.4118300000000  0.5076600000000  0.5264190000000 1.0
C      1  0.5207860000000  0.5025790000000  0.5701280000000 1.0
C      1  0.5438530000000  0.4288470000000  0.4994600000000 1.0
C      1  0.4342150000000  0.4351550000000  0.4935380000000 1.0
C      1  0.4123880000000  0.5213230000000  0.4997080000000 1.0
C      1  0.4808530000000  0.4257270000000  0.4898800000000 1.0
C      1  0.4198450000000  0.4529980000000  0.4772930000000 1.0
C      1  0.4774730000000  0.4943360000000  0.5179210000000 1.0
C      1  0.4926170000000  0.4356480000000  0.4440150000000 1.0
C      1  0.4595980000000  0.5435710000000  0.5007740000000 1.0
C      1  0.4102640000000  0.4798110000000  0.5204450000000 1.0
C      1  0.5384010000000  0.4575150000000  0.4348210000000 1.0
C      1  0.4433490000000  0.5223870000000  0.4910270000000 1.0
C      1  0.4672460000000  0.4539310000000  0.5564210000000 1.0
END
