TITL C-39034-1080-2 -206.149305601288 125000 -756.86608129673 0 0 109 (C1) n - 1
REM
REM in /rds/project/t2_vol4/rds-t2-cs072/BORA/CARBON/from-Arr/AIRSS/Generating-Clusters/GAP-ML-2020/Only-C1/SD-CG/HFTN-CG
REM
REM
REM
REM
REM
REM ./C.cell (11c1c37f851c82e70ff6c80c92926a4b)
REM AIRSS Version 0.9.1 bugfix July 2018 build 013d7b7c2542+ Fri, 06 Jul 2018 19:26:36 +0100
REM compiler GCC version 9.3.0
REM options -cpp -mtune=generic -march=x86-64 -g -O0
REM seed -932578128 -1729983454 -1381376439 637188793 -2044045334 -310506415 394311311 677449550 1469314764 1957512558 -2047168773 167996436 1314326928 -467858539 1405832874 482533856 1234915590 -286718988 8812597 -1983902223 2094491676 -1722838712 -368700729 -246681309 -1249572659 -1920987528 763639498 915550676 565134550 1292281847 572091452 2118559121 -1812320588
REM
CELL 1.54180   50.00000   50.00000   50.00000   90.00000   90.00000   90.00000
LATT -1
SFAC C  
C      1  0.5373750000000  0.4333230000000  0.4607700000000 1.0
C      1  0.4393360000000  0.5508900000000  0.4562660000000 1.0
C      1  0.5447220000000  0.5068280000000  0.5623550000000 1.0
C      1  0.5170900000000  0.5145800000000  0.5687450000000 1.0
C      1  0.5624190000000  0.4605080000000  0.5558300000000 1.0
C      1  0.5243020000000  0.5114980000000  0.4670990000000 1.0
C      1  0.4970800000000  0.4110000000000  0.5214090000000 1.0
C      1  0.4332610000000  0.4334070000000  0.5198670000000 1.0
C      1  0.4697210000000  0.4906890000000  0.4164130000000 1.0
C      1  0.4948930000000  0.5903370000000  0.5040900000000 1.0
C      1  0.4731170000000  0.4949720000000  0.5793450000000 1.0
C      1  0.5285790000000  0.5648850000000  0.4427010000000 1.0
C      1  0.4999250000000  0.5808720000000  0.5418970000000 1.0
C      1  0.4374120000000  0.5459510000000  0.5080900000000 1.0
C      1  0.4787700000000  0.5741210000000  0.5228750000000 1.0
C      1  0.5206010000000  0.5721780000000  0.4687600000000 1.0
C      1  0.4906180000000  0.4211810000000  0.4480680000000 1.0
C      1  0.4183160000000  0.5042170000000  0.5167100000000 1.0
C      1  0.4864480000000  0.4129630000000  0.4749080000000 1.0
C      1  0.5217400000000  0.4675490000000  0.5769750000000 1.0
C      1  0.5638020000000  0.5443140000000  0.5364080000000 1.0
C      1  0.5394990000000  0.5108370000000  0.5099480000000 1.0
C      1  0.5160140000000  0.5947770000000  0.5225210000000 1.0
C      1  0.5573880000000  0.5744390000000  0.5032480000000 1.0
C      1  0.4595110000000  0.5162140000000  0.5641970000000 1.0
C      1  0.5186450000000  0.4240080000000  0.4422320000000 1.0
C      1  0.5357260000000  0.4813060000000  0.5046680000000 1.0
C      1  0.5468330000000  0.4794150000000  0.5705160000000 1.0
C      1  0.5192100000000  0.4719730000000  0.5265690000000 1.0
C      1  0.4378540000000  0.4969360000000  0.5545880000000 1.0
C      1  0.5745650000000  0.4694830000000  0.5321880000000 1.0
C      1  0.5042850000000  0.5279910000000  0.4181930000000 1.0
C      1  0.5807740000000  0.4963830000000  0.5267150000000 1.0
C      1  0.4644360000000  0.5051520000000  0.4831530000000 1.0
C      1  0.4233820000000  0.5214900000000  0.4959820000000 1.0
C      1  0.4524580000000  0.4192910000000  0.5353750000000 1.0
C      1  0.4339370000000  0.5069650000000  0.4724650000000 1.0
C      1  0.4685210000000  0.4907510000000  0.5103110000000 1.0
C      1  0.4766120000000  0.5316470000000  0.4860580000000 1.0
C      1  0.4560990000000  0.5148980000000  0.4270120000000 1.0
C      1  0.5243260000000  0.4811100000000  0.4762230000000 1.0
C      1  0.4945860000000  0.5831260000000  0.4774010000000 1.0
C      1  0.4695880000000  0.4067050000000  0.5167430000000 1.0
C      1  0.4684310000000  0.5465760000000  0.5167900000000 1.0
C      1  0.5275700000000  0.5133440000000  0.4351990000000 1.0
C      1  0.4547880000000  0.4497260000000  0.5730520000000 1.0
C      1  0.4171970000000  0.5155740000000  0.5420700000000 1.0
C      1  0.4309160000000  0.4768200000000  0.4666580000000 1.0
C      1  0.5792380000000  0.4737570000000  0.4859530000000 1.0
C      1  0.4403350000000  0.4849600000000  0.5251750000000 1.0
C      1  0.5118010000000  0.5216860000000  0.5103700000000 1.0
C      1  0.5375270000000  0.5567890000000  0.4892980000000 1.0
C      1  0.4539610000000  0.4699490000000  0.4518170000000 1.0
C      1  0.5528200000000  0.4310520000000  0.5074250000000 1.0
C      1  0.5479650000000  0.4213620000000  0.5322350000000 1.0
C      1  0.5158170000000  0.5622700000000  0.5557350000000 1.0
C      1  0.5861740000000  0.4976110000000  0.4984390000000 1.0
C      1  0.5433470000000  0.4628340000000  0.4545760000000 1.0
C      1  0.4993300000000  0.4531610000000  0.5227940000000 1.0
C      1  0.5794050000000  0.5203770000000  0.4803570000000 1.0
C      1  0.5455760000000  0.4367390000000  0.5541740000000 1.0
C      1  0.5002490000000  0.5392630000000  0.5642390000000 1.0
C      1  0.4776900000000  0.5500650000000  0.5811820000000 1.0
C      1  0.4596580000000  0.5685660000000  0.4456650000000 1.0
C      1  0.4382960000000  0.5234630000000  0.4483770000000 1.0
C      1  0.4514610000000  0.5440490000000  0.5764990000000 1.0
C      1  0.4511950000000  0.4765620000000  0.5758200000000 1.0
C      1  0.5407010000000  0.5613090000000  0.5409650000000 1.0
C      1  0.4250770000000  0.5427730000000  0.5372500000000 1.0
C      1  0.5211920000000  0.4892210000000  0.4194900000000 1.0
C      1  0.5086600000000  0.4118190000000  0.4940080000000 1.0
C      1  0.5031220000000  0.4887330000000  0.5429850000000 1.0
C      1  0.4380050000000  0.4302540000000  0.4910700000000 1.0
C      1  0.4259280000000  0.4612760000000  0.5155940000000 1.0
C      1  0.5297420000000  0.4647960000000  0.4280190000000 1.0
C      1  0.4616330000000  0.4130570000000  0.4898060000000 1.0
C      1  0.5769300000000  0.5554860000000  0.5128140000000 1.0
C      1  0.4267090000000  0.4572250000000  0.4861400000000 1.0
C      1  0.5513200000000  0.5497400000000  0.4397870000000 1.0
C      1  0.4963610000000  0.4327360000000  0.5455850000000 1.0
C      1  0.4773520000000  0.5288360000000  0.5415720000000 1.0
C      1  0.4646690000000  0.4635040000000  0.4265290000000 1.0
C      1  0.4661570000000  0.5783950000000  0.4716940000000 1.0
C      1  0.5072740000000  0.5576960000000  0.4248500000000 1.0
C      1  0.5641060000000  0.4587030000000  0.5064690000000 1.0
C      1  0.5560420000000  0.5236250000000  0.4361270000000 1.0
C      1  0.5017130000000  0.4900890000000  0.5730980000000 1.0
C      1  0.5473430000000  0.5261360000000  0.4841850000000 1.0
C      1  0.5029180000000  0.5250630000000  0.4825710000000 1.0
C      1  0.5196050000000  0.4413880000000  0.5647530000000 1.0
C      1  0.5351800000000  0.4215930000000  0.4868210000000 1.0
C      1  0.4747880000000  0.5341840000000  0.4191310000000 1.0
C      1  0.4965020000000  0.4985640000000  0.4096450000000 1.0
C      1  0.5200950000000  0.5490270000000  0.5127710000000 1.0
C      1  0.5907670000000  0.5433970000000  0.4927160000000 1.0
C      1  0.4786350000000  0.5609140000000  0.4271980000000 1.0
C      1  0.4836580000000  0.4423130000000  0.4277300000000 1.0
C      1  0.4890550000000  0.5070700000000  0.5266830000000 1.0
C      1  0.5690570000000  0.4788370000000  0.4597380000000 1.0
C      1  0.4966560000000  0.4712120000000  0.4777520000000 1.0
C      1  0.5122160000000  0.4439790000000  0.4220320000000 1.0
C      1  0.4764080000000  0.4858640000000  0.4640030000000 1.0
C      1  0.5593930000000  0.5152810000000  0.5370080000000 1.0
C      1  0.5723710000000  0.5069530000000  0.4541770000000 1.0
C      1  0.5424340000000  0.5858570000000  0.5244630000000 1.0
C      1  0.4676590000000  0.4318820000000  0.5561390000000 1.0
C      1  0.4310340000000  0.5546640000000  0.5608400000000 1.0
C      1  0.4428080000000  0.5631060000000  0.4832430000000 1.0
C      1  0.4842020000000  0.4657280000000  0.5027670000000 1.0
END
