TITL C-39037-1878-7 -83.2933613587276 125000 -328.795362565182 0 0 50 (C1) n - 1
REM
REM in /rds/project/t2_vol4/rds-t2-cs072/BORA/CARBON/from-Arr/AIRSS/Generating-Clusters/GAP-ML-2020/Only-C1/SD-CG/HFTN-CG
REM
REM
REM
REM
REM
REM ./C.cell (11c1c37f851c82e70ff6c80c92926a4b)
REM AIRSS Version 0.9.1 bugfix July 2018 build 013d7b7c2542+ Fri, 06 Jul 2018 19:26:36 +0100
REM compiler GCC version 9.3.0
REM options -cpp -mtune=generic -march=x86-64 -g -O0
REM seed -1172352232 -604398133 1824183518 -1694689276 132894110 -1736290939 1144520815 -1995369191 2124958023 808154403 186708848 660078350 -1487237598 1450246786 -577699149 -1449510351 -295230404 -1053428135 -106886178 -1488891538 1161323669 -857661758 884774822 972579760 -412477113 327024141 1596329024 565036595 -1270190721 -62921915 1403278894 1400169980 1931250876
REM
CELL 1.54180   50.00000   50.00000   50.00000   90.00000   90.00000   90.00000
LATT -1
SFAC C  
C      1  0.5691200000000  0.4948730000000  0.5166930000000 1.0
C      1  0.4442700000000  0.5122800000000  0.4789850000000 1.0
C      1  0.5401820000000  0.4836670000000  0.4535440000000 1.0
C      1  0.4573780000000  0.5562560000000  0.4865670000000 1.0
C      1  0.5600880000000  0.4681420000000  0.5249940000000 1.0
C      1  0.4677000000000  0.5281940000000  0.4872390000000 1.0
C      1  0.4703720000000  0.4695790000000  0.5142390000000 1.0
C      1  0.5474710000000  0.4694760000000  0.5491230000000 1.0
C      1  0.4827240000000  0.4438400000000  0.4649890000000 1.0
C      1  0.5022970000000  0.4591040000000  0.5493620000000 1.0
C      1  0.4506650000000  0.5596960000000  0.5133330000000 1.0
C      1  0.4373710000000  0.5042070000000  0.5272410000000 1.0
C      1  0.4915220000000  0.4306440000000  0.4844750000000 1.0
C      1  0.5410710000000  0.5370850000000  0.5242310000000 1.0
C      1  0.4694700000000  0.4928240000000  0.4446010000000 1.0
C      1  0.4916260000000  0.5544800000000  0.5425820000000 1.0
C      1  0.4465820000000  0.5090020000000  0.4512390000000 1.0
C      1  0.4923630000000  0.4765400000000  0.4928180000000 1.0
C      1  0.4800810000000  0.4743690000000  0.5408590000000 1.0
C      1  0.5388370000000  0.5411400000000  0.4955470000000 1.0
C      1  0.5560670000000  0.4752630000000  0.4762670000000 1.0
C      1  0.4628520000000  0.5496120000000  0.5370690000000 1.0
C      1  0.5077090000000  0.5159100000000  0.4502800000000 1.0
C      1  0.5365040000000  0.5132550000000  0.4544650000000 1.0
C      1  0.5641300000000  0.4994290000000  0.4892580000000 1.0
C      1  0.5097550000000  0.5060300000000  0.5474480000000 1.0
C      1  0.5117280000000  0.5449100000000  0.4924050000000 1.0
C      1  0.5497980000000  0.5219740000000  0.4777910000000 1.0
C      1  0.4609720000000  0.5354900000000  0.4427440000000 1.0
C      1  0.5091640000000  0.4257270000000  0.5049280000000 1.0
C      1  0.5360530000000  0.4301060000000  0.4983800000000 1.0
C      1  0.5231570000000  0.4793350000000  0.5567540000000 1.0
C      1  0.5213260000000  0.4965140000000  0.5199040000000 1.0
C      1  0.4783640000000  0.5203670000000  0.5132840000000 1.0
C      1  0.5459570000000  0.4569290000000  0.4991440000000 1.0
C      1  0.4308790000000  0.4996360000000  0.4997330000000 1.0
C      1  0.4604870000000  0.5191060000000  0.5380680000000 1.0
C      1  0.5178450000000  0.4687570000000  0.5081360000000 1.0
C      1  0.4809730000000  0.5012050000000  0.5485840000000 1.0
C      1  0.5125190000000  0.4831360000000  0.4477950000000 1.0
C      1  0.4833620000000  0.5180430000000  0.4346420000000 1.0
C      1  0.5497150000000  0.5111590000000  0.5258800000000 1.0
C      1  0.5001550000000  0.5042800000000  0.4990420000000 1.0
C      1  0.5155670000000  0.5353550000000  0.5410970000000 1.0
C      1  0.4972970000000  0.5256180000000  0.4764260000000 1.0
C      1  0.5094510000000  0.4454510000000  0.5259940000000 1.0
C      1  0.4981070000000  0.5421770000000  0.5184320000000 1.0
C      1  0.4875130000000  0.4724340000000  0.4603630000000 1.0
C      1  0.4440580000000  0.4800840000000  0.5148290000000 1.0
C      1  0.4573440000000  0.5573080000000  0.4581990000000 1.0
END
