TITL C-39035-4581-9 -0.0185048864871512 125000 -278.117456388736 0 0 42 (C1) n - 1
REM
REM in /rds/project/t2_vol4/rds-t2-cs072/BORA/CARBON/from-Arr/AIRSS/Generating-Clusters/GAP-ML-2020/Only-C1/SD-CG/HFTN-CG
REM
REM
REM
REM
REM
REM ./C.cell (11c1c37f851c82e70ff6c80c92926a4b)
REM AIRSS Version 0.9.1 bugfix July 2018 build 013d7b7c2542+ Fri, 06 Jul 2018 19:26:36 +0100
REM compiler GCC version 9.3.0
REM options -cpp -mtune=generic -march=x86-64 -g -O0
REM seed -2094847349 -1612952024 -220293042 1825163069 1598160205 1443783727 -1760491856 -1132520631 -1363423893 -1799536173 -1742872675 1346076185 570974760 393639170 -30695866 -1432741929 -2008267480 190464076 -1677875979 235398466 -138199093 -1366076875 -931230445 -1969701149 -1069016033 -1795194940 821064698 377398772 -552744438 1507877785 -61658980 473079258 904664393
REM
CELL 1.54180   50.00000   50.00000   50.00000   90.00000   90.00000   90.00000
LATT -1
SFAC C  
C      1  0.4672370000000  0.5117970000000  0.4995770000000 1.0
C      1  0.5278120000000  0.4646570000000  0.4261370000000 1.0
C      1  0.5163670000000  0.5554330000000  0.4704080000000 1.0
C      1  0.5473910000000  0.5267290000000  0.5221210000000 1.0
C      1  0.5045210000000  0.4969950000000  0.5249420000000 1.0
C      1  0.4862240000000  0.5122930000000  0.4541440000000 1.0
C      1  0.4635010000000  0.4739380000000  0.4762200000000 1.0
C      1  0.4906130000000  0.4893610000000  0.4379070000000 1.0
C      1  0.4789550000000  0.5460450000000  0.5272950000000 1.0
C      1  0.4713030000000  0.4477950000000  0.5268690000000 1.0
C      1  0.5080630000000  0.5211220000000  0.5432180000000 1.0
C      1  0.5386670000000  0.4977540000000  0.4836640000000 1.0
C      1  0.4686170000000  0.4625440000000  0.5517250000000 1.0
C      1  0.5134490000000  0.4746560000000  0.5415870000000 1.0
C      1  0.5103620000000  0.4505490000000  0.5230470000000 1.0
C      1  0.4749470000000  0.5056960000000  0.5620400000000 1.0
C      1  0.4606180000000  0.5237600000000  0.4585370000000 1.0
C      1  0.4840460000000  0.4684810000000  0.4574690000000 1.0
C      1  0.4931010000000  0.4305770000000  0.5291380000000 1.0
C      1  0.5550420000000  0.5036200000000  0.5365460000000 1.0
C      1  0.5324110000000  0.4614170000000  0.4535840000000 1.0
C      1  0.4636390000000  0.5405080000000  0.5032230000000 1.0
C      1  0.4914530000000  0.4774840000000  0.5624350000000 1.0
C      1  0.4901310000000  0.5634370000000  0.4669190000000 1.0
C      1  0.4823170000000  0.5300100000000  0.5507520000000 1.0
C      1  0.4747490000000  0.4921530000000  0.5191920000000 1.0
C      1  0.4746660000000  0.4673320000000  0.5033290000000 1.0
C      1  0.5260400000000  0.5409130000000  0.5347750000000 1.0
C      1  0.4952880000000  0.5107610000000  0.4836610000000 1.0
C      1  0.5076100000000  0.4547800000000  0.4684710000000 1.0
C      1  0.5425230000000  0.5506460000000  0.4772980000000 1.0
C      1  0.5418580000000  0.4837330000000  0.5452440000000 1.0
C      1  0.5097200000000  0.4812070000000  0.4193280000000 1.0
C      1  0.4696890000000  0.5479990000000  0.4760550000000 1.0
C      1  0.5056990000000  0.5503310000000  0.5174700000000 1.0
C      1  0.5106540000000  0.5340490000000  0.4929960000000 1.0
C      1  0.4528790000000  0.5015450000000  0.4755800000000 1.0
C      1  0.5133670000000  0.4905930000000  0.4963180000000 1.0
C      1  0.4603130000000  0.4891830000000  0.5451450000000 1.0
C      1  0.5050540000000  0.4618870000000  0.4963720000000 1.0
C      1  0.5413230000000  0.5258890000000  0.4937390000000 1.0
C      1  0.5477830000000  0.4803450000000  0.4655190000000 1.0
END
