TITL C-39023-4703-3 0.0980304812702734 125000 -298.721075952647 0 0 45 (C1) n - 1
REM
REM in /rds/project/t2_vol4/rds-t2-cs072/BORA/CARBON/from-Arr/AIRSS/Generating-Clusters/GAP-ML-2020/Only-C1/SD-CG/HFTN-CG
REM
REM
REM
REM
REM
REM ./C.cell (11c1c37f851c82e70ff6c80c92926a4b)
REM AIRSS Version 0.9.1 bugfix July 2018 build 013d7b7c2542+ Fri, 06 Jul 2018 19:26:36 +0100
REM compiler GCC version 9.3.0
REM options -cpp -mtune=generic -march=x86-64 -g -O0
REM seed 388789296 1433089762 -221809619 -1037844747 -1759190781 1763716541 1056276697 1076941351 1150356847 1105310319 -1378035797 341870102 1147263403 -1236430781 1980869843 896538339 133554927 -1514209495 -15023018 1152903203 -482779402 -41630383 577788086 1893034937 1673236744 -633893246 127020088 1541799573 2134059086 453927965 -1929576564 1465526520 -1494828970
REM
CELL 1.54180   50.00000   50.00000   50.00000   90.00000   90.00000   90.00000
LATT -1
SFAC C  
C      1  0.4812970000000  0.4549940000000  0.4683430000000 1.0
C      1  0.5461560000000  0.5296460000000  0.5271060000000 1.0
C      1  0.5206040000000  0.5039360000000  0.5558260000000 1.0
C      1  0.5321950000000  0.5470060000000  0.5094550000000 1.0
C      1  0.4528500000000  0.4933560000000  0.4808580000000 1.0
C      1  0.4727780000000  0.4840130000000  0.5035360000000 1.0
C      1  0.4640980000000  0.5318800000000  0.5344870000000 1.0
C      1  0.4673320000000  0.5129570000000  0.4643510000000 1.0
C      1  0.5188140000000  0.4629610000000  0.5008010000000 1.0
C      1  0.5556740000000  0.5199170000000  0.4769420000000 1.0
C      1  0.5471340000000  0.5019010000000  0.5185500000000 1.0
C      1  0.4631770000000  0.4584810000000  0.5410580000000 1.0
C      1  0.5348190000000  0.5377660000000  0.4828110000000 1.0
C      1  0.4748210000000  0.4938750000000  0.4449980000000 1.0
C      1  0.5404450000000  0.4862450000000  0.5434480000000 1.0
C      1  0.5358930000000  0.4533490000000  0.5224300000000 1.0
C      1  0.4758180000000  0.4432440000000  0.5214480000000 1.0
C      1  0.5352810000000  0.4584330000000  0.4758720000000 1.0
C      1  0.4610570000000  0.4737830000000  0.4602840000000 1.0
C      1  0.5462450000000  0.4589710000000  0.5452040000000 1.0
C      1  0.5460120000000  0.5013220000000  0.4561800000000 1.0
C      1  0.4836860000000  0.5503290000000  0.5239900000000 1.0
C      1  0.4700380000000  0.5119650000000  0.5527130000000 1.0
C      1  0.4877770000000  0.4567070000000  0.4985690000000 1.0
C      1  0.5249530000000  0.5303910000000  0.5466480000000 1.0
C      1  0.4354870000000  0.5086990000000  0.4996890000000 1.0
C      1  0.5019350000000  0.4879420000000  0.4412510000000 1.0
C      1  0.5272420000000  0.4450600000000  0.4533230000000 1.0
C      1  0.4276430000000  0.4918470000000  0.5211860000000 1.0
C      1  0.4506450000000  0.5303010000000  0.5089910000000 1.0
C      1  0.4878800000000  0.5241340000000  0.4826500000000 1.0
C      1  0.4498180000000  0.4771240000000  0.5239200000000 1.0
C      1  0.5050040000000  0.4603690000000  0.4511800000000 1.0
C      1  0.4717650000000  0.4818940000000  0.5562750000000 1.0
C      1  0.4932050000000  0.5050580000000  0.5063780000000 1.0
C      1  0.5182550000000  0.4934490000000  0.5035700000000 1.0
C      1  0.4946050000000  0.5581110000000  0.4556930000000 1.0
C      1  0.5104100000000  0.5489520000000  0.5298010000000 1.0
C      1  0.5533740000000  0.4796040000000  0.4729450000000 1.0
C      1  0.5199320000000  0.5084330000000  0.4490110000000 1.0
C      1  0.5620670000000  0.4978070000000  0.4943370000000 1.0
C      1  0.5110860000000  0.5327690000000  0.4651790000000 1.0
C      1  0.4752870000000  0.5651800000000  0.4711900000000 1.0
C      1  0.4726270000000  0.5466270000000  0.4955020000000 1.0
C      1  0.4927820000000  0.4992120000000  0.5620220000000 1.0
END
