TITL C-39029-1156-6 -18.8220480404885 125000 -965.404693076453 0 0 139 (C1) n - 1
REM
REM in /rds/project/t2_vol4/rds-t2-cs072/BORA/CARBON/from-Arr/AIRSS/Generating-Clusters/GAP-ML-2020/Only-C1/SD-CG/HFTN-CG
REM
REM
REM
REM
REM
REM ./C.cell (11c1c37f851c82e70ff6c80c92926a4b)
REM AIRSS Version 0.9.1 bugfix July 2018 build 013d7b7c2542+ Fri, 06 Jul 2018 19:26:36 +0100
REM compiler GCC version 9.3.0
REM options -cpp -mtune=generic -march=x86-64 -g -O0
REM seed -1830842233 -1859388850 -2112415240 -1866760935 -719760681 -1267144329 1161112270 1730002096 -840019614 60742094 -851430087 -1915345274 -708034562 992224817 583030625 1601653179 -1558385500 -87523617 -1934054745 1346334547 -1457321638 241332632 -1841407761 1305743454 379340068 -350680299 -1872185836 1117197272 1181312578 745652704 -1725967233 -209363577 1262217406
REM
CELL 1.54180   50.00000   50.00000   50.00000   90.00000   90.00000   90.00000
LATT -1
SFAC C  
C      1  0.5476380000000  0.5585300000000  0.4544530000000 1.0
C      1  0.4825420000000  0.4802340000000  0.6025450000000 1.0
C      1  0.5529370000000  0.5781810000000  0.5238680000000 1.0
C      1  0.5064240000000  0.4875800000000  0.4726950000000 1.0
C      1  0.4561790000000  0.4115100000000  0.5286750000000 1.0
C      1  0.5200420000000  0.6068060000000  0.5064960000000 1.0
C      1  0.5470480000000  0.4952540000000  0.4973520000000 1.0
C      1  0.5667930000000  0.5429210000000  0.4335630000000 1.0
C      1  0.5366710000000  0.5305710000000  0.4692900000000 1.0
C      1  0.5031070000000  0.5475990000000  0.5859580000000 1.0
C      1  0.4534790000000  0.4949890000000  0.5015560000000 1.0
C      1  0.4574300000000  0.5355180000000  0.5635070000000 1.0
C      1  0.4786620000000  0.5345190000000  0.4297970000000 1.0
C      1  0.5526290000000  0.5818930000000  0.4745330000000 1.0
C      1  0.5570380000000  0.5111440000000  0.4752760000000 1.0
C      1  0.5844050000000  0.4526610000000  0.4618830000000 1.0
C      1  0.4318390000000  0.5330790000000  0.4355290000000 1.0
C      1  0.5125180000000  0.5788760000000  0.5509110000000 1.0
C      1  0.5463480000000  0.4120860000000  0.4673530000000 1.0
C      1  0.4022840000000  0.4825540000000  0.5168180000000 1.0
C      1  0.5727510000000  0.5272020000000  0.5206770000000 1.0
C      1  0.4760230000000  0.4550960000000  0.5120970000000 1.0
C      1  0.5505790000000  0.4647380000000  0.5812270000000 1.0
C      1  0.5150390000000  0.5040290000000  0.4242510000000 1.0
C      1  0.4034360000000  0.5044760000000  0.4748780000000 1.0
C      1  0.5174040000000  0.4151740000000  0.5390960000000 1.0
C      1  0.5567890000000  0.5496060000000  0.5118070000000 1.0
C      1  0.5816780000000  0.5204030000000  0.4427530000000 1.0
C      1  0.4815880000000  0.4075230000000  0.4748910000000 1.0
C      1  0.6040220000000  0.4944930000000  0.4742280000000 1.0
C      1  0.5507230000000  0.4707320000000  0.4833490000000 1.0
C      1  0.5311550000000  0.4795340000000  0.5967030000000 1.0
C      1  0.5075510000000  0.4484390000000  0.5715610000000 1.0
C      1  0.4252040000000  0.4915560000000  0.5648730000000 1.0
C      1  0.5004870000000  0.4734970000000  0.5480470000000 1.0
C      1  0.4428590000000  0.5558720000000  0.5467230000000 1.0
C      1  0.4747250000000  0.3953530000000  0.5180700000000 1.0
C      1  0.4833800000000  0.5750430000000  0.5537800000000 1.0
C      1  0.5550450000000  0.4387370000000  0.5037510000000 1.0
C      1  0.4709540000000  0.5423810000000  0.5037240000000 1.0
C      1  0.4443380000000  0.4613320000000  0.4137290000000 1.0
C      1  0.5470070000000  0.4526060000000  0.5277290000000 1.0
C      1  0.4908110000000  0.5038830000000  0.5891130000000 1.0
C      1  0.5256900000000  0.4650910000000  0.4704040000000 1.0
C      1  0.4775770000000  0.5168460000000  0.5444790000000 1.0
C      1  0.4425760000000  0.4716000000000  0.5780240000000 1.0
C      1  0.4068060000000  0.4754430000000  0.4713250000000 1.0
C      1  0.4354000000000  0.4474840000000  0.4945630000000 1.0
C      1  0.5645090000000  0.4482070000000  0.4412460000000 1.0
C      1  0.4899600000000  0.5344080000000  0.4581420000000 1.0
C      1  0.5680790000000  0.4746160000000  0.5343250000000 1.0
C      1  0.5126480000000  0.4413180000000  0.4810290000000 1.0
C      1  0.4526190000000  0.5505120000000  0.4348000000000 1.0
C      1  0.5062840000000  0.5814160000000  0.4461100000000 1.0
C      1  0.5718410000000  0.5035160000000  0.5739650000000 1.0
C      1  0.4844410000000  0.6065870000000  0.4759040000000 1.0
C      1  0.5877070000000  0.5188570000000  0.4728770000000 1.0
C      1  0.4635030000000  0.4965320000000  0.5281740000000 1.0
C      1  0.5524180000000  0.5201530000000  0.5824020000000 1.0
C      1  0.5940570000000  0.5202030000000  0.5037310000000 1.0
C      1  0.5279270000000  0.5690980000000  0.4346040000000 1.0
C      1  0.4884050000000  0.5314460000000  0.5224950000000 1.0
C      1  0.4954210000000  0.4285370000000  0.4587130000000 1.0
C      1  0.5110810000000  0.5636190000000  0.4914990000000 1.0
C      1  0.4466080000000  0.5673340000000  0.4593540000000 1.0
C      1  0.5333800000000  0.4784780000000  0.4181580000000 1.0
C      1  0.3997770000000  0.5084420000000  0.5037100000000 1.0
C      1  0.5232450000000  0.5577120000000  0.5681790000000 1.0
C      1  0.4127010000000  0.5559810000000  0.4984830000000 1.0
C      1  0.5330040000000  0.5083870000000  0.5994860000000 1.0
C      1  0.4718140000000  0.4696470000000  0.5378910000000 1.0
C      1  0.4900470000000  0.4915570000000  0.4163110000000 1.0
C      1  0.4561980000000  0.4728100000000  0.6018020000000 1.0
C      1  0.4720580000000  0.4462410000000  0.4514350000000 1.0
C      1  0.5130640000000  0.5140110000000  0.4562690000000 1.0
C      1  0.5603000000000  0.4730900000000  0.4261600000000 1.0
C      1  0.4659910000000  0.4255470000000  0.5521500000000 1.0
C      1  0.4511650000000  0.4517980000000  0.5555230000000 1.0
C      1  0.4203360000000  0.5266490000000  0.4614920000000 1.0
C      1  0.5173850000000  0.4693090000000  0.5222490000000 1.0
C      1  0.5062860000000  0.4655180000000  0.5963220000000 1.0
C      1  0.4606680000000  0.4686020000000  0.4922380000000 1.0
C      1  0.5177640000000  0.4316410000000  0.4358270000000 1.0
C      1  0.4065780000000  0.5338350000000  0.5159970000000 1.0
C      1  0.5092150000000  0.6049360000000  0.4608970000000 1.0
C      1  0.5162440000000  0.4543290000000  0.4184880000000 1.0
C      1  0.4947150000000  0.5631330000000  0.4669920000000 1.0
C      1  0.4299620000000  0.5200460000000  0.5636600000000 1.0
C      1  0.5558660000000  0.5030860000000  0.5269000000000 1.0
C      1  0.5699690000000  0.4783100000000  0.5645450000000 1.0
C      1  0.5402410000000  0.4306260000000  0.5470040000000 1.0
C      1  0.5407580000000  0.5362270000000  0.5612390000000 1.0
C      1  0.5363460000000  0.4426030000000  0.5714720000000 1.0
C      1  0.5285550000000  0.5412950000000  0.4974420000000 1.0
C      1  0.4591200000000  0.5721830000000  0.5052280000000 1.0
C      1  0.5540090000000  0.5454840000000  0.4096300000000 1.0
C      1  0.4229290000000  0.4593600000000  0.4533950000000 1.0
C      1  0.4676550000000  0.4510000000000  0.4220060000000 1.0
C      1  0.4767100000000  0.4744400000000  0.4652690000000 1.0
C      1  0.4941780000000  0.6154510000000  0.4994400000000 1.0
C      1  0.5644500000000  0.5750130000000  0.4994000000000 1.0
C      1  0.4576010000000  0.4931370000000  0.4501700000000 1.0
C      1  0.5966290000000  0.4770850000000  0.4545030000000 1.0
C      1  0.4429280000000  0.4194260000000  0.5043930000000 1.0
C      1  0.4937080000000  0.3978000000000  0.4994940000000 1.0
C      1  0.5148390000000  0.5220480000000  0.5160490000000 1.0
C      1  0.5353210000000  0.4207220000000  0.4916460000000 1.0
C      1  0.5078850000000  0.5227380000000  0.5994720000000 1.0
C      1  0.5184240000000  0.4053590000000  0.5116030000000 1.0
C      1  0.4712910000000  0.5272510000000  0.4799410000000 1.0
C      1  0.5063710000000  0.5323710000000  0.4137600000000 1.0
C      1  0.5019890000000  0.4503390000000  0.5065800000000 1.0
C      1  0.4230910000000  0.5543530000000  0.4717330000000 1.0
C      1  0.5809120000000  0.4917230000000  0.4352280000000 1.0
C      1  0.5023450000000  0.5017750000000  0.5572670000000 1.0
C      1  0.4252800000000  0.4527930000000  0.5430070000000 1.0
C      1  0.5885900000000  0.4700100000000  0.5123890000000 1.0
C      1  0.4906170000000  0.4640790000000  0.4129960000000 1.0
C      1  0.5756530000000  0.4531960000000  0.4904670000000 1.0
C      1  0.4430140000000  0.4384710000000  0.4641880000000 1.0
C      1  0.5176710000000  0.4940820000000  0.5022740000000 1.0
C      1  0.4094610000000  0.4632900000000  0.4967160000000 1.0
C      1  0.4946060000000  0.4252350000000  0.5563350000000 1.0
C      1  0.4604110000000  0.5757280000000  0.5355530000000 1.0
C      1  0.4686170000000  0.5797250000000  0.4757290000000 1.0
C      1  0.4535880000000  0.4132500000000  0.4785030000000 1.0
C      1  0.5264930000000  0.5517110000000  0.4120020000000 1.0
C      1  0.4365010000000  0.4759940000000  0.4354700000000 1.0
C      1  0.5448370000000  0.4272280000000  0.4447380000000 1.0
C      1  0.6025140000000  0.4921820000000  0.5024690000000 1.0
C      1  0.4497440000000  0.5100890000000  0.4748800000000 1.0
C      1  0.4118580000000  0.4764530000000  0.5431080000000 1.0
C      1  0.5286240000000  0.5908730000000  0.5299390000000 1.0
C      1  0.4203010000000  0.5376960000000  0.5421170000000 1.0
C      1  0.4305980000000  0.5746320000000  0.5037410000000 1.0
C      1  0.4692750000000  0.5068820000000  0.4268520000000 1.0
C      1  0.5320200000000  0.6023950000000  0.4785930000000 1.0
C      1  0.5300220000000  0.5150310000000  0.5418720000000 1.0
C      1  0.4785710000000  0.5550340000000  0.5742560000000 1.0
END
