TITL C-39245-6459-9 0.0116509741364171 125000 -204.649126637212 0 0 31 (C1) n - 1
REM
REM in /rds/project/t2_vol4/rds-t2-cs072/BORA/CARBON/from-Arr/AIRSS/Generating-Clusters/GAP-ML-2020/Only-C1/SD-CG/HFTN-CG
REM
REM
REM
REM
REM
REM ./C.cell (11c1c37f851c82e70ff6c80c92926a4b)
REM AIRSS Version 0.9.1 bugfix July 2018 build 013d7b7c2542+ Fri, 06 Jul 2018 19:26:36 +0100
REM compiler GCC version 9.3.0
REM options -cpp -mtune=generic -march=x86-64 -g -O0
REM seed -239249606 -873515557 -1527366028 -11289264 -2053439448 1228599191 890142586 164322580 -1568929482 2054031313 1193352059 364554038 -918442010 -1309615155 701215468 1864953366 1325689476 285972860 -2129150979 406196707 -1739445668 -1966562584 -138797305 1640305277 2044741027 -1592475743 1443830123 -1591525537 -1651921996 -2052476678 207451284 555232341 99491376
REM
CELL 1.54180   50.00000   50.00000   50.00000   90.00000   90.00000   90.00000
LATT -1
SFAC C  
C      1  0.4941380000000  0.4453430000000  0.5190010000000 1.0
C      1  0.4704070000000  0.5318550000000  0.5130560000000 1.0
C      1  0.4919870000000  0.4378890000000  0.4918640000000 1.0
C      1  0.4704640000000  0.4828830000000  0.5357160000000 1.0
C      1  0.5485360000000  0.4959520000000  0.5190960000000 1.0
C      1  0.4610260000000  0.5328780000000  0.4858260000000 1.0
C      1  0.5405100000000  0.4677870000000  0.4395340000000 1.0
C      1  0.5118300000000  0.5440670000000  0.5290150000000 1.0
C      1  0.4777040000000  0.5112280000000  0.5320760000000 1.0
C      1  0.5295660000000  0.4797610000000  0.5388090000000 1.0
C      1  0.4681910000000  0.4616840000000  0.4672170000000 1.0
C      1  0.4583390000000  0.4868890000000  0.4637540000000 1.0
C      1  0.5385970000000  0.5371650000000  0.5185770000000 1.0
C      1  0.4852490000000  0.4685760000000  0.5547350000000 1.0
C      1  0.4862940000000  0.5719570000000  0.4947410000000 1.0
C      1  0.4891310000000  0.5542410000000  0.5153730000000 1.0
C      1  0.4633150000000  0.4488800000000  0.4926270000000 1.0
C      1  0.5425550000000  0.5155620000000  0.4970940000000 1.0
C      1  0.4548990000000  0.5106040000000  0.4712320000000 1.0
C      1  0.5088580000000  0.4607750000000  0.5387290000000 1.0
C      1  0.4954600000000  0.4507510000000  0.4656810000000 1.0
C      1  0.5169940000000  0.4618980000000  0.4528310000000 1.0
C      1  0.4779820000000  0.5554220000000  0.4739790000000 1.0
C      1  0.5311010000000  0.5129110000000  0.4701110000000 1.0
C      1  0.5323690000000  0.4881600000000  0.4553720000000 1.0
C      1  0.4964700000000  0.5494710000000  0.4531970000000 1.0
C      1  0.5148690000000  0.5329960000000  0.4588350000000 1.0
C      1  0.5475010000000  0.5177300000000  0.5377630000000 1.0
C      1  0.4678490000000  0.4583720000000  0.5188350000000 1.0
C      1  0.5254370000000  0.5055420000000  0.5520240000000 1.0
C      1  0.5023710000000  0.5207720000000  0.5433010000000 1.0
END
