TITL C-39226-7471-8 -37.128413610659 125000 -593.141042597811 0 0 87 (C1) n - 1
REM
REM in /rds/project/t2_vol4/rds-t2-cs072/BORA/CARBON/from-Arr/AIRSS/Generating-Clusters/GAP-ML-2020/Only-C1/SD-CG/HFTN-CG
REM
REM
REM
REM
REM
REM ./C.cell (11c1c37f851c82e70ff6c80c92926a4b)
REM AIRSS Version 0.9.1 bugfix July 2018 build 013d7b7c2542+ Fri, 06 Jul 2018 19:26:36 +0100
REM compiler GCC version 9.3.0
REM options -cpp -mtune=generic -march=x86-64 -g -O0
REM seed 1101389932 -789931301 -1940396096 1961090437 209616491 -976840017 -1637992432 -1717423924 275707879 -1016885722 631081701 1230081684 -1426227438 -78068036 -1743793722 -262964810 1036981004 -166054597 1463601452 -1741218184 1825374869 -1082440735 -738293635 177421178 54539410 -58753053 1780462576 -841244379 -1156222830 1064332726 613620813 -550896745 279279935
REM
CELL 1.54180   50.00000   50.00000   50.00000   90.00000   90.00000   90.00000
LATT -1
SFAC C  
C      1  0.4472870000000  0.5229660000000  0.4614970000000 1.0
C      1  0.4765140000000  0.4449470000000  0.4635170000000 1.0
C      1  0.4976940000000  0.5768430000000  0.4914880000000 1.0
C      1  0.4633690000000  0.5143720000000  0.5257550000000 1.0
C      1  0.5724960000000  0.5041310000000  0.4507440000000 1.0
C      1  0.4727300000000  0.4837550000000  0.4378620000000 1.0
C      1  0.5850160000000  0.4719080000000  0.4941600000000 1.0
C      1  0.4581440000000  0.5134060000000  0.5559800000000 1.0
C      1  0.5340350000000  0.5452240000000  0.4873060000000 1.0
C      1  0.5355960000000  0.5568650000000  0.4236240000000 1.0
C      1  0.5065190000000  0.4486710000000  0.5224660000000 1.0
C      1  0.4941340000000  0.5498160000000  0.5607300000000 1.0
C      1  0.4302160000000  0.5420440000000  0.5033710000000 1.0
C      1  0.4771860000000  0.5252250000000  0.4567190000000 1.0
C      1  0.5095270000000  0.5162180000000  0.4237150000000 1.0
C      1  0.4609420000000  0.4252790000000  0.5011670000000 1.0
C      1  0.5272700000000  0.4431550000000  0.5789790000000 1.0
C      1  0.4735740000000  0.4741890000000  0.4690020000000 1.0
C      1  0.5699910000000  0.5355720000000  0.5175090000000 1.0
C      1  0.4772020000000  0.5327580000000  0.5068570000000 1.0
C      1  0.4842250000000  0.5088800000000  0.4338120000000 1.0
C      1  0.4823450000000  0.4300610000000  0.5194020000000 1.0
C      1  0.4610200000000  0.5668100000000  0.5319360000000 1.0
C      1  0.5384600000000  0.4744250000000  0.4375680000000 1.0
C      1  0.4397590000000  0.4352420000000  0.5190530000000 1.0
C      1  0.4248350000000  0.4801720000000  0.5482010000000 1.0
C      1  0.5506970000000  0.5510760000000  0.5332300000000 1.0
C      1  0.4884570000000  0.4851680000000  0.4914980000000 1.0
C      1  0.5558070000000  0.4411960000000  0.5128290000000 1.0
C      1  0.5112830000000  0.4645560000000  0.5744070000000 1.0
C      1  0.5133160000000  0.4683030000000  0.4955530000000 1.0
C      1  0.4424030000000  0.5600590000000  0.5503270000000 1.0
C      1  0.5430480000000  0.4493920000000  0.5573720000000 1.0
C      1  0.4474060000000  0.4687250000000  0.4330120000000 1.0
C      1  0.5346990000000  0.4403600000000  0.5310690000000 1.0
C      1  0.5107480000000  0.5115410000000  0.5635740000000 1.0
C      1  0.5790140000000  0.5169090000000  0.4753330000000 1.0
C      1  0.4694320000000  0.5754270000000  0.4837340000000 1.0
C      1  0.5640780000000  0.4859910000000  0.5349820000000 1.0
C      1  0.4675330000000  0.4662720000000  0.5432490000000 1.0
C      1  0.4240930000000  0.4552380000000  0.5061260000000 1.0
C      1  0.5799460000000  0.5090460000000  0.5225970000000 1.0
C      1  0.4287680000000  0.5034750000000  0.4609900000000 1.0
C      1  0.4909140000000  0.5165380000000  0.4856070000000 1.0
C      1  0.4929890000000  0.5529520000000  0.4504990000000 1.0
C      1  0.5201120000000  0.4535830000000  0.4474850000000 1.0
C      1  0.4421470000000  0.4983870000000  0.5098890000000 1.0
C      1  0.5525350000000  0.4777680000000  0.5605240000000 1.0
C      1  0.4535740000000  0.4345010000000  0.4754260000000 1.0
C      1  0.5518230000000  0.4420680000000  0.4843210000000 1.0
C      1  0.5342450000000  0.4910090000000  0.5236600000000 1.0
C      1  0.5312370000000  0.5592800000000  0.5142780000000 1.0
C      1  0.5091530000000  0.4940660000000  0.5379550000000 1.0
C      1  0.4935220000000  0.4445340000000  0.4410850000000 1.0
C      1  0.5276070000000  0.4893110000000  0.5753240000000 1.0
C      1  0.4865050000000  0.4974420000000  0.5200300000000 1.0
C      1  0.4313440000000  0.4545040000000  0.4779650000000 1.0
C      1  0.5259990000000  0.4486240000000  0.4751960000000 1.0
C      1  0.5451620000000  0.5531500000000  0.5609220000000 1.0
C      1  0.5748430000000  0.4621140000000  0.5186660000000 1.0
C      1  0.5573650000000  0.5437560000000  0.4232560000000 1.0
C      1  0.5306100000000  0.4930720000000  0.4965860000000 1.0
C      1  0.4833270000000  0.5239360000000  0.5672640000000 1.0
C      1  0.4724110000000  0.5732810000000  0.4565970000000 1.0
C      1  0.5206520000000  0.5175160000000  0.4857940000000 1.0
C      1  0.5881700000000  0.4997770000000  0.4963410000000 1.0
C      1  0.4322320000000  0.5171560000000  0.4871480000000 1.0
C      1  0.4225690000000  0.5349180000000  0.5290260000000 1.0
C      1  0.4881000000000  0.5681020000000  0.5396970000000 1.0
C      1  0.4303210000000  0.4743070000000  0.4564760000000 1.0
C      1  0.4972390000000  0.4675250000000  0.5460190000000 1.0
C      1  0.4351040000000  0.5341360000000  0.5542300000000 1.0
C      1  0.4603050000000  0.4390390000000  0.5377210000000 1.0
C      1  0.5643140000000  0.5385620000000  0.4889920000000 1.0
C      1  0.4714200000000  0.4561900000000  0.4264520000000 1.0
C      1  0.5109390000000  0.5448310000000  0.4282540000000 1.0
C      1  0.5213950000000  0.5398370000000  0.5637020000000 1.0
C      1  0.5711830000000  0.4598940000000  0.4724760000000 1.0
C      1  0.4561830000000  0.5579660000000  0.5036060000000 1.0
C      1  0.5335940000000  0.5007170000000  0.4255750000000 1.0
C      1  0.5064240000000  0.5717650000000  0.5181520000000 1.0
C      1  0.4497390000000  0.4851770000000  0.5575200000000 1.0
C      1  0.4215560000000  0.4796800000000  0.5213620000000 1.0
C      1  0.5136350000000  0.5630310000000  0.4729160000000 1.0
C      1  0.5637560000000  0.4766530000000  0.4512270000000 1.0
C      1  0.5570210000000  0.5168880000000  0.4305100000000 1.0
C      1  0.4659100000000  0.4767830000000  0.5119680000000 1.0
END
