TITL C-39030-4522-10 0.0186285175197286 125000 -343.931991583577 0 0 51 (C1) n - 1
REM
REM in /rds/project/t2_vol4/rds-t2-cs072/BORA/CARBON/from-Arr/AIRSS/Generating-Clusters/GAP-ML-2020/Only-C1/SD-CG/HFTN-CG
REM
REM
REM
REM
REM
REM ./C.cell (11c1c37f851c82e70ff6c80c92926a4b)
REM AIRSS Version 0.9.1 bugfix July 2018 build 013d7b7c2542+ Fri, 06 Jul 2018 19:26:36 +0100
REM compiler GCC version 9.3.0
REM options -cpp -mtune=generic -march=x86-64 -g -O0
REM seed -1000614302 778465137 -1622877041 -1718275278 245718105 1640753471 -954687482 -838480770 -369272624 490258938 722772644 -1497287612 2035245803 -1499041691 -1091113941 -938786463 -1593972481 -562483714 155529509 -171764963 898047150 788001537 2018961126 931111717 -1923520832 -1629579415 -388689262 -2016821542 -1223598727 -1772617195 -357390899 1661296748 1779347966
REM
CELL 1.54180   50.00000   50.00000   50.00000   90.00000   90.00000   90.00000
LATT -1
SFAC C  
C      1  0.5016420000000  0.5027170000000  0.4744930000000 1.0
C      1  0.5413630000000  0.5007570000000  0.5459420000000 1.0
C      1  0.4876950000000  0.5451530000000  0.5400650000000 1.0
C      1  0.5172200000000  0.4584010000000  0.5371650000000 1.0
C      1  0.4899690000000  0.5647860000000  0.4915630000000 1.0
C      1  0.4475230000000  0.4585380000000  0.4903760000000 1.0
C      1  0.4369810000000  0.4853350000000  0.4944590000000 1.0
C      1  0.4970980000000  0.4656290000000  0.5552850000000 1.0
C      1  0.5653890000000  0.5026210000000  0.5048240000000 1.0
C      1  0.4689610000000  0.5336250000000  0.5566010000000 1.0
C      1  0.4966410000000  0.5140520000000  0.4237080000000 1.0
C      1  0.5565610000000  0.5174360000000  0.5293120000000 1.0
C      1  0.5149490000000  0.5368310000000  0.5468990000000 1.0
C      1  0.5327120000000  0.4524060000000  0.4935120000000 1.0
C      1  0.4915330000000  0.4429600000000  0.4758230000000 1.0
C      1  0.5169220000000  0.5515360000000  0.4588980000000 1.0
C      1  0.4775060000000  0.5502760000000  0.5132500000000 1.0
C      1  0.4877090000000  0.5556470000000  0.4646540000000 1.0
C      1  0.5005020000000  0.4967280000000  0.5222000000000 1.0
C      1  0.5293320000000  0.4844130000000  0.4277320000000 1.0
C      1  0.5153280000000  0.4422500000000  0.5145730000000 1.0
C      1  0.4842400000000  0.4807890000000  0.4815180000000 1.0
C      1  0.4865960000000  0.5138090000000  0.4490590000000 1.0
C      1  0.5192560000000  0.4500200000000  0.4683820000000 1.0
C      1  0.4702680000000  0.5350530000000  0.4581920000000 1.0
C      1  0.4671650000000  0.5245290000000  0.5031070000000 1.0
C      1  0.4686190000000  0.5068550000000  0.5588940000000 1.0
C      1  0.5220110000000  0.5373090000000  0.5029380000000 1.0
C      1  0.5343400000000  0.5325050000000  0.4467860000000 1.0
C      1  0.5183610000000  0.5601580000000  0.4869260000000 1.0
C      1  0.5281770000000  0.4834130000000  0.5262060000000 1.0
C      1  0.4752880000000  0.4506730000000  0.5628760000000 1.0
C      1  0.5190360000000  0.5123540000000  0.5602650000000 1.0
C      1  0.4659370000000  0.4525250000000  0.5141440000000 1.0
C      1  0.4898610000000  0.4369030000000  0.5039650000000 1.0
C      1  0.4796610000000  0.4803590000000  0.5096880000000 1.0
C      1  0.5722070000000  0.5150570000000  0.4813080000000 1.0
C      1  0.4684010000000  0.4584570000000  0.4701830000000 1.0
C      1  0.4596700000000  0.4605600000000  0.5424650000000 1.0
C      1  0.5278460000000  0.4728490000000  0.4519020000000 1.0
C      1  0.4518880000000  0.5262120000000  0.4778780000000 1.0
C      1  0.5420360000000  0.4817350000000  0.4994360000000 1.0
C      1  0.4344830000000  0.5051160000000  0.4761840000000 1.0
C      1  0.5498980000000  0.5164470000000  0.4650760000000 1.0
C      1  0.4522570000000  0.4891570000000  0.5423390000000 1.0
C      1  0.5230130000000  0.5116950000000  0.4282770000000 1.0
C      1  0.4954760000000  0.4954880000000  0.5551530000000 1.0
C      1  0.4558200000000  0.4980960000000  0.5148950000000 1.0
C      1  0.4983320000000  0.5175430000000  0.5006690000000 1.0
C      1  0.5309380000000  0.4944340000000  0.4728750000000 1.0
C      1  0.5353830000000  0.5378030000000  0.5270790000000 1.0
END
