TITL C-39220-6497-7 -0.0918972810056593 125000 -430.001033413834 0 0 63 (C1) n - 1
REM
REM in /rds/project/t2_vol4/rds-t2-cs072/BORA/CARBON/from-Arr/AIRSS/Generating-Clusters/GAP-ML-2020/Only-C1/SD-CG/HFTN-CG
REM
REM
REM
REM
REM
REM ./C.cell (11c1c37f851c82e70ff6c80c92926a4b)
REM AIRSS Version 0.9.1 bugfix July 2018 build 013d7b7c2542+ Fri, 06 Jul 2018 19:26:36 +0100
REM compiler GCC version 9.3.0
REM options -cpp -mtune=generic -march=x86-64 -g -O0
REM seed -1898451510 -809755927 1965230194 -2074983845 -1198379229 688661334 -1627417034 1408658664 2001091721 -979861366 -219568995 225555335 56267684 -1541141676 2066434375 -2029604806 -580262628 1884897312 -630720849 -2093931826 136122142 -1202660553 -1128729900 606790421 1294602203 286531286 -1402479474 -1784811542 1098611618 549157494 -259226368 1127480412 -899679309
REM
CELL 1.54180   50.00000   50.00000   50.00000   90.00000   90.00000   90.00000
LATT -1
SFAC C  
C      1  0.4244570000000  0.4755650000000  0.4921980000000 1.0
C      1  0.4591290000000  0.4559330000000  0.4639620000000 1.0
C      1  0.4540980000000  0.4154750000000  0.4952570000000 1.0
C      1  0.4756190000000  0.5482430000000  0.5542990000000 1.0
C      1  0.4231590000000  0.5038690000000  0.4999640000000 1.0
C      1  0.5344160000000  0.5258670000000  0.5406930000000 1.0
C      1  0.4376720000000  0.4742330000000  0.4659910000000 1.0
C      1  0.4858880000000  0.5320830000000  0.4556720000000 1.0
C      1  0.4760670000000  0.4413180000000  0.5337050000000 1.0
C      1  0.5816540000000  0.5067550000000  0.4957140000000 1.0
C      1  0.4887420000000  0.4964080000000  0.5155880000000 1.0
C      1  0.5452950000000  0.4575900000000  0.5303640000000 1.0
C      1  0.5516810000000  0.5511550000000  0.5424550000000 1.0
C      1  0.4298060000000  0.4930610000000  0.5504070000000 1.0
C      1  0.4826610000000  0.4707420000000  0.4770160000000 1.0
C      1  0.4562210000000  0.4375930000000  0.5128280000000 1.0
C      1  0.5075330000000  0.5136400000000  0.4687580000000 1.0
C      1  0.4719840000000  0.5072770000000  0.4468600000000 1.0
C      1  0.5353630000000  0.4984970000000  0.5507970000000 1.0
C      1  0.4992390000000  0.5609710000000  0.5456170000000 1.0
C      1  0.5127390000000  0.5818390000000  0.4750730000000 1.0
C      1  0.5146710000000  0.4360490000000  0.5033410000000 1.0
C      1  0.5520820000000  0.4851320000000  0.5321260000000 1.0
C      1  0.5612180000000  0.4859100000000  0.4820020000000 1.0
C      1  0.5141240000000  0.4800030000000  0.5557640000000 1.0
C      1  0.5145250000000  0.4444790000000  0.4554620000000 1.0
C      1  0.5416620000000  0.4459800000000  0.5047150000000 1.0
C      1  0.4889410000000  0.4862140000000  0.5445920000000 1.0
C      1  0.4679490000000  0.4849540000000  0.4996900000000 1.0
C      1  0.4681200000000  0.4316240000000  0.4777660000000 1.0
C      1  0.5654120000000  0.5513160000000  0.5157300000000 1.0
C      1  0.4765320000000  0.5509540000000  0.4772370000000 1.0
C      1  0.5422500000000  0.4502070000000  0.4575830000000 1.0
C      1  0.5261360000000  0.5522640000000  0.5514620000000 1.0
C      1  0.5808300000000  0.5296550000000  0.5081500000000 1.0
C      1  0.4472450000000  0.5001760000000  0.4589480000000 1.0
C      1  0.5040110000000  0.4377110000000  0.5297490000000 1.0
C      1  0.4902830000000  0.5440610000000  0.5007110000000 1.0
C      1  0.4317590000000  0.5203690000000  0.5441060000000 1.0
C      1  0.4429180000000  0.4727980000000  0.5401980000000 1.0
C      1  0.4978880000000  0.5571310000000  0.4443650000000 1.0
C      1  0.5548560000000  0.4570790000000  0.4823610000000 1.0
C      1  0.5499460000000  0.4958490000000  0.4569810000000 1.0
C      1  0.4537720000000  0.5366030000000  0.5517500000000 1.0
C      1  0.5111910000000  0.4700240000000  0.4402510000000 1.0
C      1  0.4992110000000  0.5646630000000  0.5177940000000 1.0
C      1  0.4978280000000  0.4420410000000  0.4794140000000 1.0
C      1  0.5404650000000  0.5498390000000  0.4973230000000 1.0
C      1  0.4496070000000  0.5053780000000  0.4875210000000 1.0
C      1  0.5349020000000  0.5192990000000  0.4592210000000 1.0
C      1  0.5041520000000  0.5170790000000  0.5002400000000 1.0
C      1  0.5324040000000  0.5228650000000  0.5108550000000 1.0
C      1  0.4157100000000  0.5189690000000  0.5203800000000 1.0
C      1  0.5204250000000  0.5714270000000  0.5004910000000 1.0
C      1  0.4696350000000  0.4651010000000  0.5474590000000 1.0
C      1  0.4436830000000  0.4649390000000  0.5115590000000 1.0
C      1  0.5401710000000  0.5455770000000  0.4679590000000 1.0
C      1  0.5393670000000  0.4746590000000  0.4415680000000 1.0
C      1  0.4867260000000  0.5751830000000  0.4657020000000 1.0
C      1  0.5246030000000  0.5649160000000  0.4543620000000 1.0
C      1  0.4939490000000  0.4884540000000  0.4560340000000 1.0
C      1  0.5536380000000  0.5012460000000  0.5078570000000 1.0
C      1  0.5217820000000  0.4537130000000  0.5460020000000 1.0
END
