TITL C-3983-9890-6 21.6736181504348 125000 -486.89503669667 0 0 71 (C1) n - 1
REM
REM in /rds/project/t2_vol4/rds-t2-cs072/BORA/CARBON/from-Arr/AIRSS/Generating-Clusters/GAP-ML-2020/Only-C1/SD-CG/HFTN-CG
REM
REM
REM
REM
REM
REM ./C.cell (11c1c37f851c82e70ff6c80c92926a4b)
REM AIRSS Version 0.9.1 bugfix July 2018 build 013d7b7c2542+ Fri, 06 Jul 2018 19:26:36 +0100
REM compiler GCC version 9.3.0
REM options -cpp -mtune=generic -march=x86-64 -g -O0
REM seed 121034049 -469655665 417830269 -1194149380 1017800045 1433209905 -760029058 1687699873 -2026498406 -483431965 1707937741 1302719141 -2012354842 -1665087430 -210130556 -2007249913 1090837417 -1103954919 36610304 891097143 -393322372 -534285930 611843466 67355718 -1585056858 -1542144033 1719525719 8191743 376723542 2011450021 1250650147 1050915565 1479620808
REM
CELL 1.54180   50.00000   50.00000   50.00000   90.00000   90.00000   90.00000
LATT -1
SFAC C  
C      1  0.4593950000000  0.4448520000000  0.5638480000000 1.0
C      1  0.4978940000000  0.5184210000000  0.5298520000000 1.0
C      1  0.5109390000000  0.4916520000000  0.5247480000000 1.0
C      1  0.5213140000000  0.5077690000000  0.4835360000000 1.0
C      1  0.5054130000000  0.5388790000000  0.4537210000000 1.0
C      1  0.5305530000000  0.4590640000000  0.4408930000000 1.0
C      1  0.5570480000000  0.5147230000000  0.5463230000000 1.0
C      1  0.4797760000000  0.5636350000000  0.5112270000000 1.0
C      1  0.4477270000000  0.5587740000000  0.4721370000000 1.0
C      1  0.5008050000000  0.4337540000000  0.5419490000000 1.0
C      1  0.4786700000000  0.5046070000000  0.4300130000000 1.0
C      1  0.5327130000000  0.4960930000000  0.5068480000000 1.0
C      1  0.5036640000000  0.4926220000000  0.4227970000000 1.0
C      1  0.5160330000000  0.5108920000000  0.5722320000000 1.0
C      1  0.5478970000000  0.5489340000000  0.5154420000000 1.0
C      1  0.5265170000000  0.5596870000000  0.5002830000000 1.0
C      1  0.4958720000000  0.5579740000000  0.5535230000000 1.0
C      1  0.5394760000000  0.4347070000000  0.4888170000000 1.0
C      1  0.5623720000000  0.4764580000000  0.4608480000000 1.0
C      1  0.4749730000000  0.5108660000000  0.4927250000000 1.0
C      1  0.4928820000000  0.4698350000000  0.4848830000000 1.0
C      1  0.4345450000000  0.4705380000000  0.4797470000000 1.0
C      1  0.4286120000000  0.4854450000000  0.5041760000000 1.0
C      1  0.5038000000000  0.4651500000000  0.4315700000000 1.0
C      1  0.5075850000000  0.5742130000000  0.5157350000000 1.0
C      1  0.4767690000000  0.4465810000000  0.4717260000000 1.0
C      1  0.5108390000000  0.5793500000000  0.5424590000000 1.0
C      1  0.5528940000000  0.5333620000000  0.4567530000000 1.0
C      1  0.4720860000000  0.4903160000000  0.5603500000000 1.0
C      1  0.5748800000000  0.5121550000000  0.5230480000000 1.0
C      1  0.4531500000000  0.5362160000000  0.4565420000000 1.0
C      1  0.4990960000000  0.4877070000000  0.5687060000000 1.0
C      1  0.5255740000000  0.4483940000000  0.5385750000000 1.0
C      1  0.4581010000000  0.5735620000000  0.4943370000000 1.0
C      1  0.5681080000000  0.5326670000000  0.5043840000000 1.0
C      1  0.4699990000000  0.5101690000000  0.5388440000000 1.0
C      1  0.4361360000000  0.5146340000000  0.4672670000000 1.0
C      1  0.4784580000000  0.4589150000000  0.4431730000000 1.0
C      1  0.5125160000000  0.5333060000000  0.5522080000000 1.0
C      1  0.5299930000000  0.5298920000000  0.4411680000000 1.0
C      1  0.4924380000000  0.4279130000000  0.4922260000000 1.0
C      1  0.5460440000000  0.4834950000000  0.4375950000000 1.0
C      1  0.5779780000000  0.4881630000000  0.5068740000000 1.0
C      1  0.5554620000000  0.4732350000000  0.5136340000000 1.0
C      1  0.5402120000000  0.4974740000000  0.5616720000000 1.0
C      1  0.5122930000000  0.5388210000000  0.4842880000000 1.0
C      1  0.5682240000000  0.5230380000000  0.4764440000000 1.0
C      1  0.4900780000000  0.5335850000000  0.5038190000000 1.0
C      1  0.4526150000000  0.4698660000000  0.5535350000000 1.0
C      1  0.4620420000000  0.4825040000000  0.4400090000000 1.0
C      1  0.4410000000000  0.4884370000000  0.4581040000000 1.0
C      1  0.5428550000000  0.4483800000000  0.5154760000000 1.0
C      1  0.4528860000000  0.5342010000000  0.5358420000000 1.0
C      1  0.4276510000000  0.5132750000000  0.4956300000000 1.0
C      1  0.4414470000000  0.4772140000000  0.5271940000000 1.0
C      1  0.4819620000000  0.4318760000000  0.5625260000000 1.0
C      1  0.4789940000000  0.5297900000000  0.4439960000000 1.0
C      1  0.5173710000000  0.4175560000000  0.4890120000000 1.0
C      1  0.4658490000000  0.4911340000000  0.5156110000000 1.0
C      1  0.4702160000000  0.5568760000000  0.5388390000000 1.0
C      1  0.4349090000000  0.5345140000000  0.5132020000000 1.0
C      1  0.5753710000000  0.4947290000000  0.4785670000000 1.0
C      1  0.4501700000000  0.4488020000000  0.4800280000000 1.0
C      1  0.5212750000000  0.4768240000000  0.5500770000000 1.0
C      1  0.5289700000000  0.5045500000000  0.4276090000000 1.0
C      1  0.5467370000000  0.4513590000000  0.4647560000000 1.0
C      1  0.4352800000000  0.5577080000000  0.4972020000000 1.0
C      1  0.4954560000000  0.4965170000000  0.4773840000000 1.0
C      1  0.5411230000000  0.5375780000000  0.5412040000000 1.0
C      1  0.4890550000000  0.4418140000000  0.5172260000000 1.0
C      1  0.4889640000000  0.4719970000000  0.5130070000000 1.0
END
