TITL C-39056-1196-7 -0.0478815342085151 125000 -99.3890592272058 0 0 16 (C1) n - 1
REM
REM in /rds/project/t2_vol4/rds-t2-cs072/BORA/CARBON/from-Arr/AIRSS/Generating-Clusters/GAP-ML-2020/Only-C1/SD-CG/HFTN-CG
REM
REM
REM
REM
REM
REM ./C.cell (11c1c37f851c82e70ff6c80c92926a4b)
REM AIRSS Version 0.9.1 bugfix July 2018 build 013d7b7c2542+ Fri, 06 Jul 2018 19:26:36 +0100
REM compiler GCC version 9.3.0
REM options -cpp -mtune=generic -march=x86-64 -g -O0
REM seed -1532357742 -411635875 1274276188 1589564055 959723115 1084832174 751613910 -945456323 -922895172 1358872760 -9248673 -1556386855 1045988448 1485649225 -563854082 728953878 -1843536011 -1152106089 -381890224 -28436958 1782016561 -1569638935 558741640 1538091896 932002525 445485585 -1408672248 -560343766 -1263293860 -502691424 2072682487 277096113 1000847008
REM
CELL 1.54180   50.00000   50.00000   50.00000   90.00000   90.00000   90.00000
LATT -1
SFAC C  
C      1  0.5208760000000  0.5300850000000  0.5380340000000 1.0
C      1  0.4724330000000  0.5487020000000  0.4903480000000 1.0
C      1  0.4763540000000  0.5076760000000  0.4881780000000 1.0
C      1  0.4925910000000  0.5492380000000  0.4736300000000 1.0
C      1  0.5278460000000  0.4780160000000  0.5285970000000 1.0
C      1  0.5240640000000  0.5200310000000  0.5614320000000 1.0
C      1  0.5236980000000  0.5009100000000  0.5416450000000 1.0
C      1  0.5200670000000  0.4627930000000  0.5040460000000 1.0
C      1  0.5018140000000  0.4670560000000  0.4833110000000 1.0
C      1  0.4943400000000  0.5200780000000  0.4697670000000 1.0
C      1  0.4596010000000  0.5278750000000  0.5000070000000 1.0
C      1  0.5102720000000  0.4807090000000  0.4609780000000 1.0
C      1  0.5099850000000  0.5047080000000  0.4520930000000 1.0
C      1  0.4758900000000  0.4791800000000  0.4907450000000 1.0
C      1  0.4517130000000  0.4695700000000  0.4956830000000 1.0
C      1  0.5384550000000  0.4533730000000  0.5215060000000 1.0
END
