TITL C-39542-2117-4 -0.0897600230804318 125000 -357.595394311093 0 0 53 (C1) n - 1
REM
REM in /rds/project/t2_vol4/rds-t2-cs072/BORA/CARBON/from-Arr/AIRSS/Generating-Clusters/GAP-ML-2020/Only-C1/SD-CG/HFTN-CG
REM
REM
REM
REM
REM
REM ./C.cell (11c1c37f851c82e70ff6c80c92926a4b)
REM AIRSS Version 0.9.1 bugfix July 2018 build 013d7b7c2542+ Fri, 06 Jul 2018 19:26:36 +0100
REM compiler GCC version 9.3.0
REM options -cpp -mtune=generic -march=x86-64 -g -O0
REM seed 1368865182 -1295308405 -1651305943 -1074908709 -1134323443 -1550098725 762279021 1942263431 -669840787 723490660 -1561575721 -1546120275 474800275 -236666301 1064199351 38470347 -65299836 -1237067250 1266017308 742973403 -1488996013 51272784 -881555963 476967843 467603627 -1446745609 -1252583821 132738475 1206261919 -1482664692 -1289758651 -554553912 1357760866
REM
CELL 1.54180   50.00000   50.00000   50.00000   90.00000   90.00000   90.00000
LATT -1
SFAC C  
C      1  0.4563930000000  0.4619090000000  0.4742420000000 1.0
C      1  0.5171220000000  0.5613100000000  0.5003780000000 1.0
C      1  0.5582840000000  0.5367540000000  0.4908450000000 1.0
C      1  0.4938590000000  0.4964210000000  0.4302430000000 1.0
C      1  0.4584350000000  0.4785650000000  0.4538390000000 1.0
C      1  0.4990530000000  0.4486550000000  0.5384670000000 1.0
C      1  0.4863370000000  0.5230850000000  0.5494150000000 1.0
C      1  0.4693140000000  0.4850330000000  0.5927210000000 1.0
C      1  0.5500890000000  0.4677500000000  0.4792520000000 1.0
C      1  0.5032380000000  0.5223810000000  0.5088470000000 1.0
C      1  0.5437070000000  0.5103660000000  0.4987270000000 1.0
C      1  0.5001300000000  0.4909290000000  0.4778200000000 1.0
C      1  0.5512600000000  0.4820070000000  0.5040520000000 1.0
C      1  0.5441540000000  0.5266250000000  0.5275610000000 1.0
C      1  0.5063420000000  0.5179880000000  0.4183470000000 1.0
C      1  0.5356330000000  0.5530390000000  0.4806770000000 1.0
C      1  0.4881200000000  0.4355610000000  0.4966480000000 1.0
C      1  0.5251760000000  0.5203000000000  0.4386030000000 1.0
C      1  0.4765050000000  0.4415420000000  0.5224650000000 1.0
C      1  0.4883830000000  0.5602800000000  0.4912210000000 1.0
C      1  0.4695910000000  0.5254950000000  0.4633460000000 1.0
C      1  0.4547570000000  0.4818230000000  0.5428260000000 1.0
C      1  0.5351490000000  0.4916660000000  0.4417440000000 1.0
C      1  0.5169390000000  0.5141970000000  0.4845650000000 1.0
C      1  0.5221510000000  0.4888060000000  0.5444430000000 1.0
C      1  0.5231140000000  0.4475370000000  0.5236740000000 1.0
C      1  0.4562210000000  0.5605240000000  0.5293440000000 1.0
C      1  0.5550240000000  0.4828180000000  0.4569250000000 1.0
C      1  0.5169220000000  0.4377300000000  0.4984870000000 1.0
C      1  0.4768930000000  0.4994840000000  0.4533170000000 1.0
C      1  0.5388410000000  0.4708630000000  0.5271500000000 1.0
C      1  0.5121140000000  0.4748810000000  0.4367860000000 1.0
C      1  0.4559990000000  0.5221490000000  0.4876980000000 1.0
C      1  0.4997110000000  0.4715330000000  0.5544220000000 1.0
C      1  0.4637870000000  0.5323470000000  0.5344590000000 1.0
C      1  0.4485970000000  0.5064950000000  0.5297910000000 1.0
C      1  0.5682530000000  0.5373380000000  0.5162480000000 1.0
C      1  0.4459960000000  0.4717020000000  0.4987050000000 1.0
C      1  0.5278020000000  0.4500120000000  0.4760930000000 1.0
C      1  0.4809560000000  0.4472030000000  0.4722770000000 1.0
C      1  0.4547850000000  0.4603510000000  0.5234820000000 1.0
C      1  0.4442170000000  0.5005460000000  0.5022270000000 1.0
C      1  0.5183080000000  0.5435120000000  0.5244260000000 1.0
C      1  0.5110120000000  0.5353150000000  0.5518720000000 1.0
C      1  0.5053980000000  0.4612800000000  0.4613980000000 1.0
C      1  0.4755020000000  0.5345850000000  0.5060410000000 1.0
C      1  0.4892680000000  0.5458910000000  0.4650500000000 1.0
C      1  0.4736270000000  0.4792400000000  0.5670870000000 1.0
C      1  0.4680290000000  0.5718490000000  0.5077340000000 1.0
C      1  0.4981400000000  0.4993360000000  0.5260150000000 1.0
C      1  0.5181220000000  0.5355850000000  0.4630300000000 1.0
C      1  0.4912270000000  0.4822690000000  0.5034440000000 1.0
C      1  0.5320140000000  0.5151390000000  0.5515250000000 1.0
END
