TITL C-39051-1101-3 210.201242431965 125000 -648.727686629987 0 0 93 (C1) n - 1
REM
REM in /rds/project/t2_vol4/rds-t2-cs072/BORA/CARBON/from-Arr/AIRSS/Generating-Clusters/GAP-ML-2020/Only-C1/SD-CG/HFTN-CG
REM
REM
REM
REM
REM
REM ./C.cell (11c1c37f851c82e70ff6c80c92926a4b)
REM AIRSS Version 0.9.1 bugfix July 2018 build 013d7b7c2542+ Fri, 06 Jul 2018 19:26:36 +0100
REM compiler GCC version 9.3.0
REM options -cpp -mtune=generic -march=x86-64 -g -O0
REM seed -2068857146 1766150119 -1628277638 -1413580292 -537300807 -1897402958 -915640356 -691551015 -928824329 -1601082742 1633857617 2119746225 337389500 885685565 -1463540394 -1276902228 1910766641 1537910550 -1708048226 -998733457 -502242003 797004233 1938452077 981803531 -980828007 160974992 -1775416175 -1987080426 1962318678 -1891980987 -1498199636 574465258 -1331715485
REM
CELL 1.54180   50.00000   50.00000   50.00000   90.00000   90.00000   90.00000
LATT -1
SFAC C  
C      1  0.4629900000000  0.4945190000000  0.5681050000000 1.0
C      1  0.4417140000000  0.5309330000000  0.5485870000000 1.0
C      1  0.4247850000000  0.5562370000000  0.5108180000000 1.0
C      1  0.4601360000000  0.4675740000000  0.4333860000000 1.0
C      1  0.4249750000000  0.4820370000000  0.4940650000000 1.0
C      1  0.5190560000000  0.4994490000000  0.5075970000000 1.0
C      1  0.4340220000000  0.5071810000000  0.5348220000000 1.0
C      1  0.5186980000000  0.4498360000000  0.4627450000000 1.0
C      1  0.4982240000000  0.5109420000000  0.5268890000000 1.0
C      1  0.4408430000000  0.4579250000000  0.4526660000000 1.0
C      1  0.5468250000000  0.4467320000000  0.4573690000000 1.0
C      1  0.4412270000000  0.5537010000000  0.4635120000000 1.0
C      1  0.4446260000000  0.5260900000000  0.4697500000000 1.0
C      1  0.4790820000000  0.4868030000000  0.5248720000000 1.0
C      1  0.5543190000000  0.5380180000000  0.5114360000000 1.0
C      1  0.5217250000000  0.5397960000000  0.4315350000000 1.0
C      1  0.5301080000000  0.5831780000000  0.5190650000000 1.0
C      1  0.5315450000000  0.5136780000000  0.4430540000000 1.0
C      1  0.5328520000000  0.4380590000000  0.5523460000000 1.0
C      1  0.5031490000000  0.5116790000000  0.4596300000000 1.0
C      1  0.4921080000000  0.4524510000000  0.5709320000000 1.0
C      1  0.5515740000000  0.4717580000000  0.4450520000000 1.0
C      1  0.5268410000000  0.5618200000000  0.5545250000000 1.0
C      1  0.5690100000000  0.4756250000000  0.5392780000000 1.0
C      1  0.4999630000000  0.4164460000000  0.4660760000000 1.0
C      1  0.4628780000000  0.5236610000000  0.5667380000000 1.0
C      1  0.5358330000000  0.5344140000000  0.5555320000000 1.0
C      1  0.4868260000000  0.4585330000000  0.4298780000000 1.0
C      1  0.4855990000000  0.5808240000000  0.5376420000000 1.0
C      1  0.4865590000000  0.5075360000000  0.4318200000000 1.0
C      1  0.4633820000000  0.4361250000000  0.5311380000000 1.0
C      1  0.4997030000000  0.4915930000000  0.4822810000000 1.0
C      1  0.5385210000000  0.4143380000000  0.4910850000000 1.0
C      1  0.4881790000000  0.5377370000000  0.5668550000000 1.0
C      1  0.5094850000000  0.4945690000000  0.5783080000000 1.0
C      1  0.5388890000000  0.5148640000000  0.4941100000000 1.0
C      1  0.4886120000000  0.4399190000000  0.5445430000000 1.0
C      1  0.5454770000000  0.4562860000000  0.5338460000000 1.0
C      1  0.5107430000000  0.4648930000000  0.4863160000000 1.0
C      1  0.5793100000000  0.4815310000000  0.4856550000000 1.0
C      1  0.5250350000000  0.4028180000000  0.4684970000000 1.0
C      1  0.5208990000000  0.4502620000000  0.5753180000000 1.0
C      1  0.5725830000000  0.5024130000000  0.5315500000000 1.0
C      1  0.4963590000000  0.5703850000000  0.4595950000000 1.0
C      1  0.5784610000000  0.5319880000000  0.4951300000000 1.0
C      1  0.4395990000000  0.5036640000000  0.4531800000000 1.0
C      1  0.4400660000000  0.4331340000000  0.4639400000000 1.0
C      1  0.5308900000000  0.4870520000000  0.4312840000000 1.0
C      1  0.5144020000000  0.4152190000000  0.5107220000000 1.0
C      1  0.5032790000000  0.5396760000000  0.4704470000000 1.0
C      1  0.4589860000000  0.5175950000000  0.4948580000000 1.0
C      1  0.4740290000000  0.4913930000000  0.4953740000000 1.0
C      1  0.5453430000000  0.5593580000000  0.4726420000000 1.0
C      1  0.5231960000000  0.5582560000000  0.4543110000000 1.0
C      1  0.4981330000000  0.4664580000000  0.5312930000000 1.0
C      1  0.5127370000000  0.4235300000000  0.5376600000000 1.0
C      1  0.4649840000000  0.4239270000000  0.5056130000000 1.0
C      1  0.4606400000000  0.5809190000000  0.4994590000000 1.0
C      1  0.4796260000000  0.5604840000000  0.4369880000000 1.0
C      1  0.4598030000000  0.5762790000000  0.5278590000000 1.0
C      1  0.5591220000000  0.4354730000000  0.4806780000000 1.0
C      1  0.4307850000000  0.4573920000000  0.5071620000000 1.0
C      1  0.4836120000000  0.5311350000000  0.5109110000000 1.0
C      1  0.5662630000000  0.4890770000000  0.4616730000000 1.0
C      1  0.4292150000000  0.4808530000000  0.4658560000000 1.0
C      1  0.5020970000000  0.5891920000000  0.5149330000000 1.0
C      1  0.5279040000000  0.4749130000000  0.5842170000000 1.0
C      1  0.4888000000000  0.5779200000000  0.4900420000000 1.0
C      1  0.5400090000000  0.5837840000000  0.5446780000000 1.0
C      1  0.4901550000000  0.4152740000000  0.4945890000000 1.0
C      1  0.4846320000000  0.4798220000000  0.5775290000000 1.0
C      1  0.4590320000000  0.4957980000000  0.4334720000000 1.0
C      1  0.5825900000000  0.5045450000000  0.5037810000000 1.0
C      1  0.4314420000000  0.5069690000000  0.5066580000000 1.0
C      1  0.5212780000000  0.4694220000000  0.5140400000000 1.0
C      1  0.5721860000000  0.4540800000000  0.5227330000000 1.0
C      1  0.5102830000000  0.5185420000000  0.5590800000000 1.0
C      1  0.5356510000000  0.5598420000000  0.5006400000000 1.0
C      1  0.4437880000000  0.4573690000000  0.5322110000000 1.0
C      1  0.5032080000000  0.4828540000000  0.4243680000000 1.0
C      1  0.5529400000000  0.5146130000000  0.4630130000000 1.0
C      1  0.4374450000000  0.5676910000000  0.4886980000000 1.0
C      1  0.4974050000000  0.5629950000000  0.5574810000000 1.0
C      1  0.4525300000000  0.5645070000000  0.4402410000000 1.0
C      1  0.5027120000000  0.5487480000000  0.4974820000000 1.0
C      1  0.4391330000000  0.5565360000000  0.5346920000000 1.0
C      1  0.5574280000000  0.5268570000000  0.5381690000000 1.0
C      1  0.4429660000000  0.4355660000000  0.4910550000000 1.0
C      1  0.5669690000000  0.5398080000000  0.4699560000000 1.0
C      1  0.4937840000000  0.5371230000000  0.4257520000000 1.0
C      1  0.4511570000000  0.4843620000000  0.5427800000000 1.0
C      1  0.4982620000000  0.4389240000000  0.4469580000000 1.0
C      1  0.5757770000000  0.4539120000000  0.4948890000000 1.0
END
