TITL C-39540-2431-6 223.119199427259 125000 -125.155405530422 0 0 20 (C1) n - 1
REM
REM in /rds/project/t2_vol4/rds-t2-cs072/BORA/CARBON/from-Arr/AIRSS/Generating-Clusters/GAP-ML-2020/Only-C1/SD-CG/HFTN-CG
REM
REM
REM
REM
REM
REM ./C.cell (11c1c37f851c82e70ff6c80c92926a4b)
REM AIRSS Version 0.9.1 bugfix July 2018 build 013d7b7c2542+ Fri, 06 Jul 2018 19:26:36 +0100
REM compiler GCC version 9.3.0
REM options -cpp -mtune=generic -march=x86-64 -g -O0
REM seed 546391146 419037771 2084727372 -1880460576 187100050 -1940310642 1076931287 1395480025 -998639193 879087883 -203854333 1354703681 447616914 -949785730 -1103178891 -1294942046 1820607159 191961649 1870711132 -1571399212 251457301 -1830312234 725942951 2128789587 1544784216 1398329888 -1917752777 -1047344565 -1178434788 -720215438 -843419284 2065781640 -743286825
REM
CELL 1.54180   50.00000   50.00000   50.00000   90.00000   90.00000   90.00000
LATT -1
SFAC C  
C      1  0.4625460000000  0.5008530000000  0.5183960000000 1.0
C      1  0.5458630000000  0.4752800000000  0.4758540000000 1.0
C      1  0.4909480000000  0.5287120000000  0.4972720000000 1.0
C      1  0.5351170000000  0.4695660000000  0.4998250000000 1.0
C      1  0.5347070000000  0.5067750000000  0.5777890000000 1.0
C      1  0.5190570000000  0.4551150000000  0.5138770000000 1.0
C      1  0.5157000000000  0.5113750000000  0.5620380000000 1.0
C      1  0.4647130000000  0.5175960000000  0.4953420000000 1.0
C      1  0.4871190000000  0.4857730000000  0.5137990000000 1.0
C      1  0.4613860000000  0.5105620000000  0.4685850000000 1.0
C      1  0.4950140000000  0.4640920000000  0.4998640000000 1.0
C      1  0.5112660000000  0.5474250000000  0.4556700000000 1.0
C      1  0.4974110000000  0.5156080000000  0.5429140000000 1.0
C      1  0.4683750000000  0.5163930000000  0.5418240000000 1.0
C      1  0.4944240000000  0.4686390000000  0.4712230000000 1.0
C      1  0.5214690000000  0.4789050000000  0.4622410000000 1.0
C      1  0.5041780000000  0.5102250000000  0.5149720000000 1.0
C      1  0.4819970000000  0.4936100000000  0.4617490000000 1.0
C      1  0.5021110000000  0.5446410000000  0.4785610000000 1.0
C      1  0.5065990000000  0.4988540000000  0.4482030000000 1.0
END
