TITL C-39026-4585-1 -0.013387458930177 125000 -142.831012659106 0 0 22 (C1) n - 1
REM
REM in /rds/project/t2_vol4/rds-t2-cs072/BORA/CARBON/from-Arr/AIRSS/Generating-Clusters/GAP-ML-2020/Only-C1/SD-CG/HFTN-CG
REM
REM
REM
REM
REM
REM ./C.cell (11c1c37f851c82e70ff6c80c92926a4b)
REM AIRSS Version 0.9.1 bugfix July 2018 build 013d7b7c2542+ Fri, 06 Jul 2018 19:26:36 +0100
REM compiler GCC version 9.3.0
REM options -cpp -mtune=generic -march=x86-64 -g -O0
REM seed -1423404373 1656572083 1178388090 -2012480141 -1687745265 942100690 -629212590 -1805625115 419621723 915976823 1026998558 -2090592358 -1002662761 555534276 121006474 -393711121 73719908 -536083960 -1992604408 -1302812401 -1163076477 -1443624497 -1899238720 -1518523378 1552053172 -1026394369 1224682294 1303879246 -359297965 1412794062 43009460 -154515952 -1038656568
REM
CELL 1.54180   50.00000   50.00000   50.00000   90.00000   90.00000   90.00000
LATT -1
SFAC C  
C      1  0.5603650000000  0.4739080000000  0.5130420000000 1.0
C      1  0.5687830000000  0.4732670000000  0.5369640000000 1.0
C      1  0.5056660000000  0.4766750000000  0.4660280000000 1.0
C      1  0.4560930000000  0.5166030000000  0.4631700000000 1.0
C      1  0.4810770000000  0.5322710000000  0.5327450000000 1.0
C      1  0.4650900000000  0.5290500000000  0.4382710000000 1.0
C      1  0.4899010000000  0.5354060000000  0.5575250000000 1.0
C      1  0.5333900000000  0.4721970000000  0.4705430000000 1.0
C      1  0.5404720000000  0.4813720000000  0.4961140000000 1.0
C      1  0.4345260000000  0.4977810000000  0.4603650000000 1.0
C      1  0.5629850000000  0.4828650000000  0.5609430000000 1.0
C      1  0.4488380000000  0.4787060000000  0.4504400000000 1.0
C      1  0.4517970000000  0.5491710000000  0.4464300000000 1.0
C      1  0.5473980000000  0.4977300000000  0.5745860000000 1.0
C      1  0.4720900000000  0.5284840000000  0.5095750000000 1.0
C      1  0.4745350000000  0.5141550000000  0.4858700000000 1.0
C      1  0.5284340000000  0.5138010000000  0.5822680000000 1.0
C      1  0.5179000000000  0.4988240000000  0.5046660000000 1.0
C      1  0.5077700000000  0.5271470000000  0.5738530000000 1.0
C      1  0.4972760000000  0.4976240000000  0.4854630000000 1.0
C      1  0.4654800000000  0.4600220000000  0.4420480000000 1.0
C      1  0.4901330000000  0.4629420000000  0.4490920000000 1.0
END
