TITL C-39036-1172-2 2.53154818693616 125000 -539.615436666652 0 0 80 (C1) n - 1
REM
REM in /rds/project/t2_vol4/rds-t2-cs072/BORA/CARBON/from-Arr/AIRSS/Generating-Clusters/GAP-ML-2020/Only-C1/SD-CG/HFTN-CG
REM
REM
REM
REM
REM
REM ./C.cell (11c1c37f851c82e70ff6c80c92926a4b)
REM AIRSS Version 0.9.1 bugfix July 2018 build 013d7b7c2542+ Fri, 06 Jul 2018 19:26:36 +0100
REM compiler GCC version 9.3.0
REM options -cpp -mtune=generic -march=x86-64 -g -O0
REM seed 713074970 1300300901 1583115730 1522343666 -567672342 -1549158085 2135596663 -270650532 725833931 39530413 2106258871 -1210065089 -1594362856 -1106352473 -313753614 -886810284 1586050130 -1888678962 1330974211 -795593512 -2063462362 -3415272 1115625601 -438055803 933754653 -219090412 1840709300 -926801931 773080873 62178899 -687847830 -1194425131 -1534126703
REM
CELL 1.54180   50.00000   50.00000   50.00000   90.00000   90.00000   90.00000
LATT -1
SFAC C  
C      1  0.5032830000000  0.5265670000000  0.4586590000000 1.0
C      1  0.4478370000000  0.5389900000000  0.4939080000000 1.0
C      1  0.4744690000000  0.5608470000000  0.4499090000000 1.0
C      1  0.4253340000000  0.5188280000000  0.4872480000000 1.0
C      1  0.4788040000000  0.4162520000000  0.4763610000000 1.0
C      1  0.4287390000000  0.4999560000000  0.4658710000000 1.0
C      1  0.5004450000000  0.4978300000000  0.4654610000000 1.0
C      1  0.5217550000000  0.4487490000000  0.4773520000000 1.0
C      1  0.5663720000000  0.5348380000000  0.4924540000000 1.0
C      1  0.5518600000000  0.4709380000000  0.5163800000000 1.0
C      1  0.5238480000000  0.4606930000000  0.4513370000000 1.0
C      1  0.4809770000000  0.4625440000000  0.5658990000000 1.0
C      1  0.4298350000000  0.4718530000000  0.4714770000000 1.0
C      1  0.5549470000000  0.5181470000000  0.5386040000000 1.0
C      1  0.4577730000000  0.4794190000000  0.5648220000000 1.0
C      1  0.4906480000000  0.5762570000000  0.5141700000000 1.0
C      1  0.5500810000000  0.4934670000000  0.4722370000000 1.0
C      1  0.4620100000000  0.5580090000000  0.4764100000000 1.0
C      1  0.5018710000000  0.4731990000000  0.5153340000000 1.0
C      1  0.4985000000000  0.5738480000000  0.4594330000000 1.0
C      1  0.5646790000000  0.4758470000000  0.4908620000000 1.0
C      1  0.4583180000000  0.4293960000000  0.4649800000000 1.0
C      1  0.5236290000000  0.4973660000000  0.4825580000000 1.0
C      1  0.4391360000000  0.5294950000000  0.5399630000000 1.0
C      1  0.5225350000000  0.4881370000000  0.5553890000000 1.0
C      1  0.4634620000000  0.4956370000000  0.4326070000000 1.0
C      1  0.5704540000000  0.4723860000000  0.5405770000000 1.0
C      1  0.5430420000000  0.5234260000000  0.4253650000000 1.0
C      1  0.4905160000000  0.5505380000000  0.5525550000000 1.0
C      1  0.4996420000000  0.4280980000000  0.5432520000000 1.0
C      1  0.5367420000000  0.4959560000000  0.5294230000000 1.0
C      1  0.4238910000000  0.4732690000000  0.4999890000000 1.0
C      1  0.4954210000000  0.4798900000000  0.5462570000000 1.0
C      1  0.4600360000000  0.5108910000000  0.5311830000000 1.0
C      1  0.5323670000000  0.5358720000000  0.4508250000000 1.0
C      1  0.5798390000000  0.5022700000000  0.5361990000000 1.0
C      1  0.4363390000000  0.4607210000000  0.5231500000000 1.0
C      1  0.4706810000000  0.5187770000000  0.4215430000000 1.0
C      1  0.4747160000000  0.4928780000000  0.4819930000000 1.0
C      1  0.4796640000000  0.4646080000000  0.4971760000000 1.0
C      1  0.4729410000000  0.5620150000000  0.5318400000000 1.0
C      1  0.5354680000000  0.5352420000000  0.5550050000000 1.0
C      1  0.4909090000000  0.5245490000000  0.5648760000000 1.0
C      1  0.5465820000000  0.4981720000000  0.4246510000000 1.0
C      1  0.5182460000000  0.5163730000000  0.5668540000000 1.0
C      1  0.5258610000000  0.5659820000000  0.4545270000000 1.0
C      1  0.5178170000000  0.5752830000000  0.5237710000000 1.0
C      1  0.5593440000000  0.5628540000000  0.4928990000000 1.0
C      1  0.4927370000000  0.4181660000000  0.5027380000000 1.0
C      1  0.5476520000000  0.4774830000000  0.4457580000000 1.0
C      1  0.4763080000000  0.4262670000000  0.5252800000000 1.0
C      1  0.5719670000000  0.4593150000000  0.4496910000000 1.0
C      1  0.4605410000000  0.4483500000000  0.5145960000000 1.0
C      1  0.5508910000000  0.5222460000000  0.4720640000000 1.0
C      1  0.5306150000000  0.4613490000000  0.5667470000000 1.0
C      1  0.5182520000000  0.5577710000000  0.5470900000000 1.0
C      1  0.4264860000000  0.5044660000000  0.5348390000000 1.0
C      1  0.5036610000000  0.4452000000000  0.5654720000000 1.0
C      1  0.4995310000000  0.4750040000000  0.4464920000000 1.0
C      1  0.4488720000000  0.5495270000000  0.5229680000000 1.0
C      1  0.5157730000000  0.4271330000000  0.5184200000000 1.0
C      1  0.4832650000000  0.5379790000000  0.4364940000000 1.0
C      1  0.4181140000000  0.5008280000000  0.5074680000000 1.0
C      1  0.5413930000000  0.5756810000000  0.4761600000000 1.0
C      1  0.5799200000000  0.4585780000000  0.4740750000000 1.0
C      1  0.4749100000000  0.5023340000000  0.5539590000000 1.0
C      1  0.5576720000000  0.4614040000000  0.5622510000000 1.0
C      1  0.4938680000000  0.4412510000000  0.4811430000000 1.0
C      1  0.4503550000000  0.4545500000000  0.4564970000000 1.0
C      1  0.4883230000000  0.5669120000000  0.4868280000000 1.0
C      1  0.5743790000000  0.5212210000000  0.5166510000000 1.0
C      1  0.4352340000000  0.4782220000000  0.5462550000000 1.0
C      1  0.4702490000000  0.5142140000000  0.5029990000000 1.0
C      1  0.5264420000000  0.4539800000000  0.5082130000000 1.0
C      1  0.4718030000000  0.4698450000000  0.4402080000000 1.0
C      1  0.4972250000000  0.5235320000000  0.5074230000000 1.0
C      1  0.5150500000000  0.5002990000000  0.5094510000000 1.0
C      1  0.4556250000000  0.5006140000000  0.4592850000000 1.0
C      1  0.5032910000000  0.5403410000000  0.4853600000000 1.0
C      1  0.5379280000000  0.5787780000000  0.5035290000000 1.0
END
