TITL C-3969-8229-5 0.0366266565989712 125000 -282.982124449077 0 0 43 (C1) n - 1
REM
REM in /rds/project/t2_vol4/rds-t2-cs072/BORA/CARBON/from-Arr/AIRSS/Generating-Clusters/GAP-ML-2020/Only-C1/SD-CG/HFTN-CG
REM
REM
REM
REM
REM
REM ./C.cell (11c1c37f851c82e70ff6c80c92926a4b)
REM AIRSS Version 0.9.1 bugfix July 2018 build 013d7b7c2542+ Fri, 06 Jul 2018 19:26:36 +0100
REM compiler GCC version 9.3.0
REM options -cpp -mtune=generic -march=x86-64 -g -O0
REM seed -101140851 67726230 1824679947 718766759 166110271 1366890882 -1473391099 -1222930015 -1352353783 1605237539 -1745651471 -413911622 1790526520 -1941972927 493840629 817219648 -1954217052 1205431505 -804902156 1052427424 -1301918034 2108552932 1763632803 1606358026 -1417781283 765842714 1827001951 -1342699742 554899301 -472328394 -1406956289 494157748 1764855625
REM
CELL 1.54180   50.00000   50.00000   50.00000   90.00000   90.00000   90.00000
LATT -1
SFAC C  
C      1  0.4815870000000  0.5110470000000  0.5442010000000 1.0
C      1  0.5358980000000  0.4795250000000  0.4774460000000 1.0
C      1  0.4785190000000  0.5564110000000  0.5291090000000 1.0
C      1  0.4825400000000  0.4590100000000  0.5405550000000 1.0
C      1  0.4445900000000  0.5171820000000  0.4766670000000 1.0
C      1  0.4656490000000  0.5314100000000  0.5309650000000 1.0
C      1  0.5137620000000  0.4689120000000  0.4325210000000 1.0
C      1  0.5077290000000  0.5413670000000  0.5012560000000 1.0
C      1  0.5098850000000  0.4342590000000  0.5118810000000 1.0
C      1  0.5219430000000  0.5354260000000  0.4609240000000 1.0
C      1  0.4995490000000  0.5674790000000  0.4887990000000 1.0
C      1  0.4453430000000  0.4725450000000  0.4947660000000 1.0
C      1  0.5106750000000  0.4502820000000  0.5362270000000 1.0
C      1  0.4667680000000  0.4388530000000  0.5295850000000 1.0
C      1  0.4900760000000  0.4683970000000  0.4425450000000 1.0
C      1  0.4822800000000  0.5248830000000  0.4888360000000 1.0
C      1  0.4539930000000  0.4899130000000  0.5155800000000 1.0
C      1  0.5021820000000  0.5570270000000  0.4610180000000 1.0
C      1  0.5048130000000  0.5432800000000  0.5294290000000 1.0
C      1  0.5547570000000  0.5032300000000  0.5221160000000 1.0
C      1  0.5106350000000  0.5175100000000  0.5426890000000 1.0
C      1  0.4770240000000  0.5523000000000  0.4501140000000 1.0
C      1  0.5328320000000  0.4338920000000  0.4973630000000 1.0
C      1  0.4947970000000  0.5008630000000  0.4775360000000 1.0
C      1  0.5298500000000  0.4702280000000  0.5351650000000 1.0
C      1  0.5548380000000  0.5222190000000  0.5020300000000 1.0
C      1  0.5459580000000  0.4588170000000  0.4942110000000 1.0
C      1  0.4637750000000  0.5358380000000  0.4665500000000 1.0
C      1  0.4478060000000  0.4900940000000  0.4708020000000 1.0
C      1  0.4714620000000  0.4849980000000  0.5376310000000 1.0
C      1  0.5342040000000  0.5193000000000  0.5617750000000 1.0
C      1  0.4772220000000  0.4778490000000  0.4672980000000 1.0
C      1  0.5556100000000  0.5132370000000  0.5493690000000 1.0
C      1  0.4571930000000  0.5173110000000  0.5064280000000 1.0
C      1  0.5304370000000  0.5274710000000  0.4887170000000 1.0
C      1  0.5121230000000  0.5105110000000  0.4532930000000 1.0
C      1  0.4790690000000  0.5725060000000  0.5059210000000 1.0
C      1  0.5229890000000  0.4965110000000  0.5233090000000 1.0
C      1  0.5277870000000  0.4855420000000  0.4501710000000 1.0
C      1  0.4798860000000  0.4377280000000  0.5045840000000 1.0
C      1  0.5193030000000  0.4972400000000  0.4934400000000 1.0
C      1  0.5543540000000  0.4709530000000  0.5197320000000 1.0
C      1  0.4683080000000  0.4566440000000  0.4874450000000 1.0
END
