TITL C-39558-2773-4 74.0458327673601 125000 -683.57782530516 0 0 97 (C1) n - 1
REM
REM in /rds/project/t2_vol4/rds-t2-cs072/BORA/CARBON/from-Arr/AIRSS/Generating-Clusters/GAP-ML-2020/Only-C1/SD-CG/HFTN-CG
REM
REM
REM
REM
REM
REM ./C.cell (11c1c37f851c82e70ff6c80c92926a4b)
REM AIRSS Version 0.9.1 bugfix July 2018 build 013d7b7c2542+ Fri, 06 Jul 2018 19:26:36 +0100
REM compiler GCC version 9.3.0
REM options -cpp -mtune=generic -march=x86-64 -g -O0
REM seed -857328085 894360098 1454571675 768792244 1883981349 1393134499 2053256422 -205204618 -252807352 1059057067 790683450 1683641173 -916647154 1861075698 1232746383 -371786810 -1104728728 -872619490 -281462152 1262176863 -1762806503 1346572828 538122928 -265583437 -1093732546 2047947353 1373393642 -182877431 -1541593612 -463509081 463108303 1830193273 -1669269131
REM
CELL 1.54180   50.00000   50.00000   50.00000   90.00000   90.00000   90.00000
LATT -1
SFAC C  
C      1  0.4456220000000  0.4872630000000  0.5581490000000 1.0
C      1  0.4962070000000  0.5414640000000  0.5548990000000 1.0
C      1  0.4525780000000  0.5158240000000  0.5623240000000 1.0
C      1  0.4765070000000  0.5373040000000  0.4500330000000 1.0
C      1  0.5473980000000  0.5389680000000  0.5525480000000 1.0
C      1  0.4645770000000  0.5765410000000  0.4795350000000 1.0
C      1  0.5008260000000  0.4644280000000  0.5146610000000 1.0
C      1  0.5256260000000  0.4715720000000  0.5147800000000 1.0
C      1  0.4816410000000  0.5006480000000  0.4183160000000 1.0
C      1  0.5518620000000  0.4540980000000  0.4529820000000 1.0
C      1  0.5042270000000  0.5261770000000  0.4526450000000 1.0
C      1  0.5114000000000  0.4540160000000  0.4305990000000 1.0
C      1  0.5261460000000  0.4401080000000  0.4515460000000 1.0
C      1  0.4717690000000  0.4792890000000  0.4354350000000 1.0
C      1  0.4249890000000  0.5423750000000  0.4966400000000 1.0
C      1  0.5656910000000  0.4991670000000  0.4463530000000 1.0
C      1  0.5034500000000  0.5762880000000  0.4487360000000 1.0
C      1  0.4391970000000  0.5665830000000  0.4927890000000 1.0
C      1  0.5219370000000  0.5399210000000  0.4719090000000 1.0
C      1  0.4212840000000  0.5222310000000  0.4467430000000 1.0
C      1  0.4363530000000  0.4254640000000  0.5511850000000 1.0
C      1  0.5499580000000  0.4234780000000  0.5307970000000 1.0
C      1  0.5647100000000  0.5594590000000  0.5115000000000 1.0
C      1  0.5414870000000  0.5761180000000  0.5076660000000 1.0
C      1  0.4250170000000  0.4598120000000  0.5191630000000 1.0
C      1  0.5551180000000  0.4896950000000  0.5583210000000 1.0
C      1  0.5242730000000  0.5552170000000  0.5502150000000 1.0
C      1  0.4837510000000  0.4535890000000  0.4373150000000 1.0
C      1  0.4932470000000  0.5806360000000  0.5272960000000 1.0
C      1  0.4655380000000  0.5241720000000  0.4248540000000 1.0
C      1  0.5217170000000  0.5094600000000  0.5830440000000 1.0
C      1  0.4802390000000  0.5639310000000  0.5465820000000 1.0
C      1  0.4605310000000  0.4393350000000  0.5539080000000 1.0
C      1  0.4398160000000  0.5364990000000  0.5456910000000 1.0
C      1  0.5591540000000  0.4473610000000  0.5423820000000 1.0
C      1  0.5081400000000  0.4301350000000  0.5558230000000 1.0
C      1  0.4527890000000  0.5608780000000  0.5411230000000 1.0
C      1  0.5632270000000  0.5293770000000  0.4469580000000 1.0
C      1  0.5733110000000  0.4899100000000  0.4719900000000 1.0
C      1  0.4824330000000  0.4178800000000  0.5144980000000 1.0
C      1  0.4647970000000  0.4665420000000  0.5650190000000 1.0
C      1  0.5713710000000  0.4611140000000  0.4738180000000 1.0
C      1  0.4919320000000  0.4725430000000  0.5738890000000 1.0
C      1  0.5004300000000  0.5147620000000  0.5340010000000 1.0
C      1  0.5739920000000  0.5133910000000  0.5196010000000 1.0
C      1  0.4385100000000  0.4349180000000  0.5241220000000 1.0
C      1  0.4214690000000  0.4684480000000  0.4920950000000 1.0
C      1  0.4838410000000  0.4260440000000  0.5428250000000 1.0
C      1  0.5065650000000  0.4163760000000  0.4968160000000 1.0
C      1  0.5250250000000  0.4780680000000  0.4211520000000 1.0
C      1  0.5103050000000  0.5026740000000  0.4147570000000 1.0
C      1  0.4172640000000  0.4969580000000  0.4926800000000 1.0
C      1  0.4788960000000  0.5215650000000  0.5720630000000 1.0
C      1  0.5513030000000  0.5306050000000  0.4758630000000 1.0
C      1  0.4227170000000  0.5310860000000  0.5230400000000 1.0
C      1  0.4961270000000  0.5004230000000  0.5813000000000 1.0
C      1  0.5285320000000  0.4127180000000  0.5138300000000 1.0
C      1  0.5504170000000  0.4776090000000  0.4349140000000 1.0
C      1  0.4419910000000  0.4582820000000  0.4757650000000 1.0
C      1  0.4655920000000  0.4742760000000  0.4835730000000 1.0
C      1  0.4788660000000  0.5678960000000  0.4561720000000 1.0
C      1  0.4789430000000  0.4790850000000  0.5084800000000 1.0
C      1  0.5662260000000  0.5387460000000  0.5304980000000 1.0
C      1  0.5777410000000  0.4553670000000  0.4994410000000 1.0
C      1  0.4169040000000  0.5038310000000  0.5201270000000 1.0
C      1  0.4382530000000  0.5228840000000  0.4276250000000 1.0
C      1  0.5837160000000  0.5465580000000  0.4600820000000 1.0
C      1  0.4569840000000  0.4344830000000  0.4771290000000 1.0
C      1  0.5412780000000  0.5436750000000  0.4337130000000 1.0
C      1  0.5320480000000  0.4950370000000  0.4997930000000 1.0
C      1  0.5752360000000  0.4639590000000  0.5252160000000 1.0
C      1  0.5008360000000  0.4991730000000  0.4635670000000 1.0
C      1  0.5428820000000  0.5142030000000  0.5670830000000 1.0
C      1  0.4766750000000  0.5262780000000  0.4959430000000 1.0
C      1  0.4778650000000  0.5066440000000  0.5169980000000 1.0
C      1  0.5451930000000  0.5762180000000  0.4782030000000 1.0
C      1  0.5154260000000  0.4554780000000  0.5677350000000 1.0
C      1  0.5616420000000  0.5075180000000  0.4925870000000 1.0
C      1  0.5428840000000  0.4635740000000  0.5601770000000 1.0
C      1  0.4732800000000  0.5859950000000  0.5065610000000 1.0
C      1  0.5217740000000  0.4873990000000  0.4736820000000 1.0
C      1  0.5044340000000  0.5355960000000  0.4941240000000 1.0
C      1  0.5185210000000  0.5189980000000  0.5123900000000 1.0
C      1  0.4282400000000  0.5200330000000  0.4759430000000 1.0
C      1  0.5064520000000  0.4267640000000  0.4693170000000 1.0
C      1  0.5262760000000  0.4144410000000  0.5417230000000 1.0
C      1  0.5284480000000  0.5653040000000  0.4553580000000 1.0
C      1  0.4718260000000  0.4924170000000  0.4635610000000 1.0
C      1  0.5680390000000  0.5568020000000  0.4813480000000 1.0
C      1  0.4612580000000  0.5200680000000  0.4716870000000 1.0
C      1  0.4481170000000  0.5764380000000  0.5180500000000 1.0
C      1  0.4804870000000  0.4351220000000  0.4598090000000 1.0
C      1  0.5196720000000  0.5269420000000  0.4271130000000 1.0
C      1  0.5215340000000  0.5750680000000  0.5287430000000 1.0
C      1  0.5734520000000  0.4905520000000  0.5362830000000 1.0
C      1  0.4264330000000  0.4822120000000  0.5369950000000 1.0
C      1  0.4573370000000  0.4241720000000  0.5036860000000 1.0
END
