TITL C-39549-3167-3 -0.0272606074065295 125000 -530.02655892966 0 0 77 (C1) n - 1
REM
REM in /rds/project/t2_vol4/rds-t2-cs072/BORA/CARBON/from-Arr/AIRSS/Generating-Clusters/GAP-ML-2020/Only-C1/SD-CG/HFTN-CG
REM
REM
REM
REM
REM
REM ./C.cell (11c1c37f851c82e70ff6c80c92926a4b)
REM AIRSS Version 0.9.1 bugfix July 2018 build 013d7b7c2542+ Fri, 06 Jul 2018 19:26:36 +0100
REM compiler GCC version 9.3.0
REM options -cpp -mtune=generic -march=x86-64 -g -O0
REM seed 1992193515 444875208 -438451845 1599858705 552766802 1589031535 -914133921 -1582500568 1634865763 948177869 -1383856755 1314963966 1377299993 1800255515 351595853 -1687904389 1428614433 788242024 -1558219703 1991295813 1992578922 -864686669 -2097906398 359611750 1172426247 -854654897 -1465278127 264667072 348237570 -679415175 771715756 1585027994 -133004550
REM
CELL 1.54180   50.00000   50.00000   50.00000   90.00000   90.00000   90.00000
LATT -1
SFAC C  
C      1  0.5654780000000  0.5267970000000  0.5261730000000 1.0
C      1  0.5028050000000  0.5622690000000  0.5234380000000 1.0
C      1  0.4841440000000  0.4978690000000  0.4841030000000 1.0
C      1  0.4370420000000  0.4958880000000  0.4762490000000 1.0
C      1  0.4436120000000  0.5238510000000  0.5319630000000 1.0
C      1  0.4935790000000  0.5298760000000  0.5208500000000 1.0
C      1  0.4582860000000  0.4992100000000  0.5390750000000 1.0
C      1  0.5123450000000  0.5453400000000  0.5673570000000 1.0
C      1  0.4988130000000  0.4983880000000  0.5806240000000 1.0
C      1  0.5609930000000  0.4731980000000  0.5065430000000 1.0
C      1  0.4670860000000  0.4584130000000  0.4599200000000 1.0
C      1  0.5263290000000  0.4730690000000  0.5470450000000 1.0
C      1  0.4605630000000  0.4832730000000  0.5145270000000 1.0
C      1  0.5687380000000  0.4968800000000  0.4893920000000 1.0
C      1  0.4561790000000  0.4404190000000  0.4794070000000 1.0
C      1  0.4904100000000  0.4085740000000  0.4683810000000 1.0
C      1  0.4609880000000  0.4871560000000  0.4607980000000 1.0
C      1  0.4681460000000  0.5036700000000  0.4373300000000 1.0
C      1  0.5072690000000  0.5118880000000  0.4701620000000 1.0
C      1  0.5023180000000  0.5609360000000  0.4604160000000 1.0
C      1  0.4808110000000  0.4774850000000  0.5772670000000 1.0
C      1  0.4533120000000  0.5484440000000  0.5425610000000 1.0
C      1  0.5257140000000  0.4918290000000  0.5708190000000 1.0
C      1  0.4969050000000  0.5640880000000  0.5525400000000 1.0
C      1  0.4771790000000  0.5252400000000  0.4968730000000 1.0
C      1  0.5507340000000  0.4441720000000  0.4665020000000 1.0
C      1  0.5076490000000  0.4253970000000  0.4545700000000 1.0
C      1  0.5026810000000  0.4568360000000  0.4897660000000 1.0
C      1  0.5647160000000  0.4933260000000  0.4614990000000 1.0
C      1  0.5326420000000  0.5591020000000  0.5153470000000 1.0
C      1  0.5363140000000  0.5345230000000  0.4411220000000 1.0
C      1  0.4908140000000  0.5250170000000  0.5696220000000 1.0
C      1  0.4363180000000  0.5245280000000  0.4786950000000 1.0
C      1  0.5480950000000  0.5082860000000  0.4425360000000 1.0
C      1  0.5056870000000  0.5122680000000  0.4107260000000 1.0
C      1  0.4657480000000  0.5321910000000  0.4384960000000 1.0
C      1  0.4801880000000  0.5728460000000  0.5070260000000 1.0
C      1  0.5124750000000  0.5334190000000  0.4253460000000 1.0
C      1  0.5225540000000  0.4405740000000  0.5035600000000 1.0
C      1  0.4730610000000  0.5500620000000  0.5610040000000 1.0
C      1  0.4807830000000  0.5750990000000  0.4778590000000 1.0
C      1  0.5261760000000  0.5189240000000  0.4900650000000 1.0
C      1  0.5099220000000  0.4480650000000  0.5489930000000 1.0
C      1  0.4603640000000  0.4505570000000  0.5520020000000 1.0
C      1  0.4910870000000  0.5480880000000  0.4363270000000 1.0
C      1  0.5550010000000  0.4679250000000  0.4523120000000 1.0
C      1  0.4567870000000  0.4784060000000  0.5607340000000 1.0
C      1  0.5440780000000  0.5117740000000  0.5641270000000 1.0
C      1  0.4868430000000  0.4516020000000  0.5651630000000 1.0
C      1  0.4968820000000  0.4550130000000  0.4573120000000 1.0
C      1  0.4371490000000  0.4789090000000  0.4988700000000 1.0
C      1  0.4571930000000  0.4385080000000  0.5265400000000 1.0
C      1  0.5482750000000  0.5478900000000  0.5355730000000 1.0
C      1  0.5353290000000  0.4818550000000  0.4362850000000 1.0
C      1  0.5615120000000  0.5040830000000  0.5429710000000 1.0
C      1  0.4948020000000  0.5372860000000  0.4764730000000 1.0
C      1  0.5483820000000  0.4496410000000  0.4951860000000 1.0
C      1  0.5535420000000  0.4788240000000  0.5334410000000 1.0
C      1  0.4799380000000  0.4241870000000  0.5167760000000 1.0
C      1  0.5324590000000  0.5535340000000  0.4619150000000 1.0
C      1  0.5183790000000  0.5148220000000  0.5169730000000 1.0
C      1  0.4558020000000  0.5606780000000  0.5161220000000 1.0
C      1  0.4483070000000  0.5424370000000  0.4587550000000 1.0
C      1  0.5378160000000  0.5394440000000  0.5608770000000 1.0
C      1  0.4903600000000  0.4789460000000  0.5054580000000 1.0
C      1  0.5060340000000  0.4907430000000  0.5280040000000 1.0
C      1  0.4858380000000  0.5101850000000  0.5428870000000 1.0
C      1  0.4477210000000  0.5335870000000  0.5040770000000 1.0
C      1  0.5080200000000  0.4741150000000  0.4378630000000 1.0
C      1  0.5069630000000  0.4319070000000  0.5260820000000 1.0
C      1  0.5351440000000  0.4248690000000  0.4535690000000 1.0
C      1  0.5646860000000  0.5245190000000  0.4986560000000 1.0
C      1  0.4917800000000  0.4938100000000  0.4252440000000 1.0
C      1  0.4569890000000  0.5671870000000  0.4670060000000 1.0
C      1  0.4438060000000  0.4513650000000  0.5026200000000 1.0
C      1  0.5417800000000  0.5449370000000  0.4894500000000 1.0
C      1  0.4753520000000  0.4196810000000  0.4878020000000 1.0
END
