TITL C-39245-6459-2 -0.0232356694980134 125000 -142.177785038301 0 0 23 (C1) n - 1
REM
REM in /rds/project/t2_vol4/rds-t2-cs072/BORA/CARBON/from-Arr/AIRSS/Generating-Clusters/GAP-ML-2020/Only-C1/SD-CG/HFTN-CG
REM
REM
REM
REM
REM
REM ./C.cell (11c1c37f851c82e70ff6c80c92926a4b)
REM AIRSS Version 0.9.1 bugfix July 2018 build 013d7b7c2542+ Fri, 06 Jul 2018 19:26:36 +0100
REM compiler GCC version 9.3.0
REM options -cpp -mtune=generic -march=x86-64 -g -O0
REM seed 947073934 1340687122 466619146 -1528297448 -1989574249 1305889131 461448682 -755103626 -1083963552 -170317599 -1249062491 -2020888536 -419214888 1461783662 1050082654 -1239008295 1269970277 1304850871 -1816652971 -1779290012 -2108579007 91720756 -1726835397 -266274787 -1622708509 -2139176815 -335339798 710293514 671078167 -1792375358 957795679 1244460894 7377659
REM
CELL 1.54180   50.00000   50.00000   50.00000   90.00000   90.00000   90.00000
LATT -1
SFAC C  
C      1  0.5004350000000  0.4873040000000  0.5034680000000 1.0
C      1  0.4903670000000  0.5264780000000  0.4492360000000 1.0
C      1  0.4522480000000  0.4742450000000  0.4905190000000 1.0
C      1  0.5187520000000  0.4508140000000  0.5040950000000 1.0
C      1  0.4649680000000  0.5192660000000  0.4977320000000 1.0
C      1  0.4927060000000  0.5330330000000  0.5232190000000 1.0
C      1  0.4671520000000  0.5391980000000  0.5170020000000 1.0
C      1  0.4357950000000  0.4763120000000  0.4719810000000 1.0
C      1  0.5070170000000  0.4659040000000  0.5246590000000 1.0
C      1  0.5406080000000  0.5038960000000  0.4718630000000 1.0
C      1  0.5572200000000  0.5083360000000  0.4933320000000 1.0
C      1  0.4867610000000  0.4670580000000  0.5437820000000 1.0
C      1  0.4699030000000  0.4850140000000  0.5357160000000 1.0
C      1  0.5127770000000  0.5332830000000  0.5423150000000 1.0
C      1  0.4757510000000  0.5206320000000  0.4712460000000 1.0
C      1  0.5503790000000  0.5027080000000  0.5194700000000 1.0
C      1  0.5314780000000  0.5162980000000  0.5321330000000 1.0
C      1  0.4962070000000  0.5029410000000  0.4604440000000 1.0
C      1  0.5322710000000  0.5248220000000  0.4877170000000 1.0
C      1  0.5125060000000  0.5142340000000  0.5063940000000 1.0
C      1  0.5202890000000  0.4872600000000  0.4633670000000 1.0
C      1  0.5141350000000  0.4702020000000  0.4844040000000 1.0
C      1  0.4702750000000  0.4907610000000  0.5059020000000 1.0
END
