TITL C-39237-6441-9 18.0628452971359 125000 -352.502931187703 0 0 50 (C1) n - 1
REM
REM in /rds/project/t2_vol4/rds-t2-cs072/BORA/CARBON/from-Arr/AIRSS/Generating-Clusters/GAP-ML-2020/Only-C1/SD-CG/HFTN-CG
REM
REM
REM
REM
REM
REM ./C.cell (11c1c37f851c82e70ff6c80c92926a4b)
REM AIRSS Version 0.9.1 bugfix July 2018 build 013d7b7c2542+ Fri, 06 Jul 2018 19:26:36 +0100
REM compiler GCC version 9.3.0
REM options -cpp -mtune=generic -march=x86-64 -g -O0
REM seed -1676912636 -545480393 -358182554 -679290201 -1484524391 -1712228181 2077326150 964019351 -949568923 123218132 -1840178086 2087779885 1309277296 -1692383880 893287372 984522117 -889842615 -1277009281 494522090 -340266986 -441233996 -764921232 -1815137827 -1755555545 -2047562651 1965848858 283656980 900173661 -853458026 238802061 1136072885 -648124531 -41349787
REM
CELL 1.54180   50.00000   50.00000   50.00000   90.00000   90.00000   90.00000
LATT -1
SFAC C  
C      1  0.5131230000000  0.4346240000000  0.5313280000000 1.0
C      1  0.4765830000000  0.5640310000000  0.4849160000000 1.0
C      1  0.5656680000000  0.4864870000000  0.5220960000000 1.0
C      1  0.5642990000000  0.5230320000000  0.4918450000000 1.0
C      1  0.5772900000000  0.5095060000000  0.5340280000000 1.0
C      1  0.4964040000000  0.4582420000000  0.4301650000000 1.0
C      1  0.4513070000000  0.5360420000000  0.5151720000000 1.0
C      1  0.5079820000000  0.4784420000000  0.5581110000000 1.0
C      1  0.4592970000000  0.4788090000000  0.4576140000000 1.0
C      1  0.5024430000000  0.5606200000000  0.4707290000000 1.0
C      1  0.5253190000000  0.5530320000000  0.4847390000000 1.0
C      1  0.5250260000000  0.5246540000000  0.5499000000000 1.0
C      1  0.5437120000000  0.5325630000000  0.4739630000000 1.0
C      1  0.5646920000000  0.4942310000000  0.4922980000000 1.0
C      1  0.5359350000000  0.5098240000000  0.4579780000000 1.0
C      1  0.4960750000000  0.5523340000000  0.5266600000000 1.0
C      1  0.4496990000000  0.5264550000000  0.4665580000000 1.0
C      1  0.4687750000000  0.4487280000000  0.5243790000000 1.0
C      1  0.5243810000000  0.4575640000000  0.5449600000000 1.0
C      1  0.4885230000000  0.5192290000000  0.4415090000000 1.0
C      1  0.4382150000000  0.4932770000000  0.5004390000000 1.0
C      1  0.4479770000000  0.4724060000000  0.4839370000000 1.0
C      1  0.4637890000000  0.5061500000000  0.4509410000000 1.0
C      1  0.5297270000000  0.4977200000000  0.5555470000000 1.0
C      1  0.5108790000000  0.4789800000000  0.4284450000000 1.0
C      1  0.4882520000000  0.5465110000000  0.4493370000000 1.0
C      1  0.4619040000000  0.4726540000000  0.5393620000000 1.0
C      1  0.4405460000000  0.5206300000000  0.4926280000000 1.0
C      1  0.4815070000000  0.4868790000000  0.5556440000000 1.0
C      1  0.5457840000000  0.4855640000000  0.4729910000000 1.0
C      1  0.4979060000000  0.5336250000000  0.5482850000000 1.0
C      1  0.5232330000000  0.4701760000000  0.4819620000000 1.0
C      1  0.4723150000000  0.5553180000000  0.5113510000000 1.0
C      1  0.5140510000000  0.5049850000000  0.4394040000000 1.0
C      1  0.4855070000000  0.4299050000000  0.5355700000000 1.0
C      1  0.5118960000000  0.4433610000000  0.4851680000000 1.0
C      1  0.5221230000000  0.5535250000000  0.5137820000000 1.0
C      1  0.4534250000000  0.5183410000000  0.5366710000000 1.0
C      1  0.5194890000000  0.4263780000000  0.5049250000000 1.0
C      1  0.4835770000000  0.4437760000000  0.4763630000000 1.0
C      1  0.4764400000000  0.5156880000000  0.5532430000000 1.0
C      1  0.5400660000000  0.5390180000000  0.5299940000000 1.0
C      1  0.5070370000000  0.4908410000000  0.4961250000000 1.0
C      1  0.4628590000000  0.5511330000000  0.4634810000000 1.0
C      1  0.4631880000000  0.4505030000000  0.4952840000000 1.0
C      1  0.5455560000000  0.4774290000000  0.5407070000000 1.0
C      1  0.4781990000000  0.4578030000000  0.4519090000000 1.0
C      1  0.4879930000000  0.5063690000000  0.4993300000000 1.0
C      1  0.5650440000000  0.5304910000000  0.5200170000000 1.0
C      1  0.4449790000000  0.4921150000000  0.5282130000000 1.0
END
