TITL C-39236-6426-7 -0.104021358954477 125000 -237.825154515426 0 0 36 (C1) n - 1
REM
REM in /rds/project/t2_vol4/rds-t2-cs072/BORA/CARBON/from-Arr/AIRSS/Generating-Clusters/GAP-ML-2020/Only-C1/SD-CG/HFTN-CG
REM
REM
REM
REM
REM
REM ./C.cell (11c1c37f851c82e70ff6c80c92926a4b)
REM AIRSS Version 0.9.1 bugfix July 2018 build 013d7b7c2542+ Fri, 06 Jul 2018 19:26:36 +0100
REM compiler GCC version 9.3.0
REM options -cpp -mtune=generic -march=x86-64 -g -O0
REM seed -1289651479 -1531884952 -242421593 981448279 458119126 -1239709958 1755682692 -780462765 -1052421074 1799096445 1670880861 748018314 -3232598 1349222831 -148514395 513063552 1908588357 -1896590682 1047701141 939760928 314685435 -163179800 579666363 -1917665792 -880954042 26697603 65016244 -278943234 911417669 -1985146947 -1755585786 786557840 -1830150984
REM
CELL 1.54180   50.00000   50.00000   50.00000   90.00000   90.00000   90.00000
LATT -1
SFAC C  
C      1  0.4953970000000  0.5279590000000  0.4503460000000 1.0
C      1  0.5027240000000  0.5616640000000  0.5150070000000 1.0
C      1  0.5401270000000  0.5142270000000  0.4692500000000 1.0
C      1  0.4942250000000  0.4955630000000  0.5518440000000 1.0
C      1  0.5427270000000  0.4873200000000  0.5462700000000 1.0
C      1  0.4713020000000  0.4567150000000  0.5277580000000 1.0
C      1  0.5163900000000  0.4775400000000  0.5513440000000 1.0
C      1  0.4929230000000  0.5494110000000  0.4688220000000 1.0
C      1  0.5056470000000  0.4838260000000  0.4508290000000 1.0
C      1  0.5578830000000  0.4942240000000  0.4782580000000 1.0
C      1  0.5131940000000  0.5522630000000  0.4897220000000 1.0
C      1  0.4760060000000  0.5546790000000  0.5201660000000 1.0
C      1  0.4978810000000  0.4258280000000  0.4999860000000 1.0
C      1  0.4840460000000  0.4868340000000  0.4344870000000 1.0
C      1  0.4570990000000  0.4677940000000  0.5055310000000 1.0
C      1  0.5194580000000  0.5104800000000  0.4504480000000 1.0
C      1  0.4967520000000  0.5467600000000  0.5379170000000 1.0
C      1  0.4734160000000  0.5083650000000  0.4482310000000 1.0
C      1  0.4600930000000  0.5422440000000  0.4985810000000 1.0
C      1  0.5343810000000  0.5136660000000  0.5390580000000 1.0
C      1  0.5478760000000  0.4783760000000  0.4974630000000 1.0
C      1  0.5486300000000  0.4686580000000  0.5243510000000 1.0
C      1  0.4961440000000  0.4445240000000  0.5219840000000 1.0
C      1  0.4701800000000  0.4845160000000  0.5404050000000 1.0
C      1  0.5002480000000  0.4722630000000  0.4783370000000 1.0
C      1  0.4529730000000  0.5142850000000  0.4961770000000 1.0
C      1  0.5303440000000  0.5302520000000  0.4921980000000 1.0
C      1  0.5244870000000  0.5115190000000  0.5123920000000 1.0
C      1  0.5173770000000  0.4641180000000  0.5253990000000 1.0
C      1  0.5072900000000  0.5218100000000  0.5465080000000 1.0
C      1  0.5181370000000  0.4833560000000  0.5014960000000 1.0
C      1  0.4666870000000  0.5566220000000  0.4755590000000 1.0
C      1  0.4698550000000  0.4747760000000  0.4812510000000 1.0
C      1  0.4594680000000  0.4999130000000  0.4719620000000 1.0
C      1  0.5045490000000  0.4431080000000  0.4828040000000 1.0
C      1  0.4540840000000  0.4945400000000  0.5178550000000 1.0
END
