TITL C-39244-6488-3 -0.0629012973035009 125000 -393.378198201768 0 0 58 (C1) n - 1
REM
REM in /rds/project/t2_vol4/rds-t2-cs072/BORA/CARBON/from-Arr/AIRSS/Generating-Clusters/GAP-ML-2020/Only-C1/SD-CG/HFTN-CG
REM
REM
REM
REM
REM
REM ./C.cell (11c1c37f851c82e70ff6c80c92926a4b)
REM AIRSS Version 0.9.1 bugfix July 2018 build 013d7b7c2542+ Fri, 06 Jul 2018 19:26:36 +0100
REM compiler GCC version 9.3.0
REM options -cpp -mtune=generic -march=x86-64 -g -O0
REM seed 1052455945 879050694 -1024358218 1335338041 -1291711714 486621445 1854334369 -1126304914 -1407388187 -153612706 -818742361 -1227806407 -995964656 -1354792162 1684393943 -108825274 -929442590 -955625180 -459899198 -1727710171 -1188190610 -501015179 1041674607 1951800616 2120566833 682035253 1046435925 1278086101 205868486 -659735659 -1112363912 1775702611 -910313380
REM
CELL 1.54180   50.00000   50.00000   50.00000   90.00000   90.00000   90.00000
LATT -1
SFAC C  
C      1  0.4865030000000  0.5104180000000  0.4787880000000 1.0
C      1  0.5125100000000  0.4820000000000  0.4991610000000 1.0
C      1  0.5063910000000  0.5098800000000  0.5008420000000 1.0
C      1  0.4990200000000  0.4696580000000  0.4508940000000 1.0
C      1  0.5549790000000  0.5291750000000  0.4764630000000 1.0
C      1  0.5176210000000  0.4495900000000  0.4614600000000 1.0
C      1  0.5442860000000  0.4585560000000  0.4678670000000 1.0
C      1  0.5072120000000  0.5598300000000  0.4729880000000 1.0
C      1  0.5468410000000  0.5446240000000  0.4987810000000 1.0
C      1  0.4947970000000  0.5191470000000  0.4484320000000 1.0
C      1  0.5536760000000  0.5272160000000  0.5206980000000 1.0
C      1  0.5138810000000  0.5399560000000  0.5615470000000 1.0
C      1  0.4818210000000  0.4387460000000  0.4936510000000 1.0
C      1  0.5122790000000  0.5142710000000  0.5480230000000 1.0
C      1  0.4710460000000  0.4624960000000  0.4492080000000 1.0
C      1  0.4725680000000  0.4951380000000  0.5417510000000 1.0
C      1  0.5622510000000  0.5023670000000  0.4838550000000 1.0
C      1  0.4609690000000  0.4739040000000  0.5250360000000 1.0
C      1  0.5188200000000  0.5608960000000  0.5469480000000 1.0
C      1  0.5080480000000  0.5610690000000  0.5213230000000 1.0
C      1  0.5397860000000  0.5284580000000  0.4531110000000 1.0
C      1  0.5525800000000  0.4874160000000  0.5366440000000 1.0
C      1  0.5288530000000  0.4484970000000  0.5268380000000 1.0
C      1  0.4644870000000  0.5477480000000  0.4960680000000 1.0
C      1  0.5055890000000  0.4676450000000  0.5246330000000 1.0
C      1  0.5227510000000  0.5602920000000  0.4968180000000 1.0
C      1  0.4378590000000  0.5238970000000  0.5267940000000 1.0
C      1  0.4641710000000  0.5465170000000  0.5424850000000 1.0
C      1  0.4434670000000  0.4799540000000  0.5041870000000 1.0
C      1  0.4447750000000  0.4677910000000  0.4790930000000 1.0
C      1  0.5498850000000  0.4501240000000  0.4936160000000 1.0
C      1  0.4840230000000  0.5447650000000  0.5202580000000 1.0
C      1  0.4774700000000  0.5611930000000  0.4731790000000 1.0
C      1  0.5009660000000  0.4863830000000  0.5516350000000 1.0
C      1  0.4813470000000  0.4361420000000  0.5480060000000 1.0
C      1  0.4664850000000  0.5554900000000  0.4481520000000 1.0
C      1  0.4548990000000  0.5183080000000  0.5490610000000 1.0
C      1  0.5409170000000  0.5136780000000  0.5425300000000 1.0
C      1  0.5084240000000  0.4358340000000  0.4846300000000 1.0
C      1  0.5417520000000  0.4635500000000  0.5468780000000 1.0
C      1  0.4496850000000  0.5112050000000  0.4553240000000 1.0
C      1  0.5149790000000  0.5406480000000  0.4531010000000 1.0
C      1  0.5530620000000  0.4846920000000  0.4626130000000 1.0
C      1  0.4511850000000  0.4833890000000  0.4551670000000 1.0
C      1  0.4796120000000  0.4514870000000  0.5219130000000 1.0
C      1  0.4917500000000  0.4815300000000  0.4796460000000 1.0
C      1  0.5301930000000  0.4343590000000  0.5033200000000 1.0
C      1  0.4463850000000  0.5512120000000  0.5201460000000 1.0
C      1  0.5099880000000  0.4949050000000  0.4397030000000 1.0
C      1  0.5371210000000  0.5005400000000  0.4447950000000 1.0
C      1  0.4404980000000  0.5076550000000  0.5043200000000 1.0
C      1  0.4986470000000  0.4449410000000  0.5645560000000 1.0
C      1  0.5635060000000  0.5007800000000  0.5127400000000 1.0
C      1  0.4677150000000  0.5293300000000  0.4407750000000 1.0
C      1  0.4923150000000  0.5169090000000  0.5247020000000 1.0
C      1  0.5165800000000  0.4664080000000  0.5664200000000 1.0
C      1  0.4638220000000  0.4473290000000  0.4739700000000 1.0
C      1  0.4569520000000  0.5200610000000  0.4844600000000 1.0
END
