TITL C-39031-4523-5 -127.155847674055 125000 -752.51440058718 0 0 108 (C1) n - 1
REM
REM in /rds/project/t2_vol4/rds-t2-cs072/BORA/CARBON/from-Arr/AIRSS/Generating-Clusters/GAP-ML-2020/Only-C1/SD-CG/HFTN-CG
REM
REM
REM
REM
REM
REM ./C.cell (11c1c37f851c82e70ff6c80c92926a4b)
REM AIRSS Version 0.9.1 bugfix July 2018 build 013d7b7c2542+ Fri, 06 Jul 2018 19:26:36 +0100
REM compiler GCC version 9.3.0
REM options -cpp -mtune=generic -march=x86-64 -g -O0
REM seed 141161642 -1883559037 -1048960921 1874626228 1745412310 1263787552 1305860437 -1867497635 -1016413097 -849383858 896073440 -1965095044 680331714 -1633924216 627942941 -506024831 -543227568 650423827 1742524284 1955200821 1417740986 766967647 -798009740 -1879413834 -879961570 -1656775409 -1632460869 -1171816565 283869957 73472759 -1007758552 1845518924 575325308
REM
CELL 1.54180   50.00000   50.00000   50.00000   90.00000   90.00000   90.00000
LATT -1
SFAC C  
C      1  0.4670850000000  0.4959740000000  0.5856250000000 1.0
C      1  0.5065970000000  0.4151480000000  0.5382920000000 1.0
C      1  0.4949080000000  0.5300320000000  0.5312950000000 1.0
C      1  0.4333130000000  0.5432420000000  0.5447420000000 1.0
C      1  0.5166040000000  0.5320860000000  0.4240700000000 1.0
C      1  0.5022700000000  0.5226890000000  0.5022180000000 1.0
C      1  0.5438150000000  0.5260380000000  0.4194430000000 1.0
C      1  0.5447380000000  0.4645190000000  0.4876770000000 1.0
C      1  0.4484890000000  0.4798720000000  0.4330350000000 1.0
C      1  0.4142350000000  0.4705520000000  0.4880020000000 1.0
C      1  0.5696240000000  0.4556680000000  0.4739820000000 1.0
C      1  0.4675870000000  0.4974940000000  0.4185850000000 1.0
C      1  0.5223050000000  0.4840900000000  0.4803120000000 1.0
C      1  0.5099480000000  0.5079810000000  0.4384860000000 1.0
C      1  0.4164910000000  0.5195040000000  0.5410960000000 1.0
C      1  0.4142170000000  0.4945140000000  0.4711880000000 1.0
C      1  0.4917600000000  0.5770480000000  0.4803060000000 1.0
C      1  0.4673820000000  0.4816640000000  0.5431430000000 1.0
C      1  0.4366560000000  0.4765060000000  0.5512080000000 1.0
C      1  0.5391180000000  0.4367520000000  0.4420680000000 1.0
C      1  0.5329650000000  0.4818760000000  0.5595110000000 1.0
C      1  0.4997570000000  0.5519270000000  0.4347610000000 1.0
C      1  0.5717080000000  0.5034070000000  0.4841510000000 1.0
C      1  0.4245190000000  0.5434640000000  0.4830430000000 1.0
C      1  0.4584900000000  0.4551500000000  0.4431750000000 1.0
C      1  0.5877460000000  0.5202740000000  0.5142760000000 1.0
C      1  0.5583420000000  0.5207860000000  0.4661000000000 1.0
C      1  0.5767780000000  0.4684420000000  0.5191730000000 1.0
C      1  0.5094890000000  0.5607040000000  0.4612150000000 1.0
C      1  0.5477630000000  0.5232160000000  0.5363610000000 1.0
C      1  0.5402710000000  0.5257320000000  0.5924580000000 1.0
C      1  0.4952860000000  0.4894460000000  0.4181670000000 1.0
C      1  0.4762200000000  0.4639020000000  0.5197380000000 1.0
C      1  0.5018670000000  0.4620130000000  0.4189480000000 1.0
C      1  0.4847940000000  0.4158800000000  0.5216870000000 1.0
C      1  0.5619560000000  0.5400020000000  0.5148290000000 1.0
C      1  0.4637240000000  0.5713910000000  0.4777440000000 1.0
C      1  0.4228590000000  0.4624350000000  0.5320060000000 1.0
C      1  0.5075770000000  0.5851490000000  0.5033800000000 1.0
C      1  0.5563110000000  0.4952630000000  0.5739710000000 1.0
C      1  0.5588210000000  0.5009240000000  0.4219870000000 1.0
C      1  0.4281640000000  0.4967150000000  0.4458390000000 1.0
C      1  0.4739550000000  0.5503650000000  0.5671880000000 1.0
C      1  0.4113690000000  0.5183210000000  0.4894120000000 1.0
C      1  0.5030440000000  0.4698020000000  0.5194480000000 1.0
C      1  0.4937030000000  0.4159830000000  0.4949800000000 1.0
C      1  0.4938090000000  0.4260220000000  0.4508170000000 1.0
C      1  0.4327010000000  0.5448820000000  0.4559240000000 1.0
C      1  0.4438820000000  0.5611640000000  0.4977050000000 1.0
C      1  0.4589110000000  0.5246600000000  0.4234420000000 1.0
C      1  0.4079040000000  0.4791680000000  0.5143170000000 1.0
C      1  0.5503560000000  0.5730120000000  0.4788780000000 1.0
C      1  0.5516410000000  0.5430510000000  0.4859600000000 1.0
C      1  0.4829860000000  0.4449960000000  0.5600130000000 1.0
C      1  0.4718630000000  0.5493210000000  0.4314650000000 1.0
C      1  0.4257990000000  0.5006540000000  0.5608100000000 1.0
C      1  0.5397710000000  0.4399630000000  0.5033390000000 1.0
C      1  0.5208270000000  0.5376340000000  0.5772960000000 1.0
C      1  0.4325460000000  0.4477960000000  0.4902470000000 1.0
C      1  0.4769420000000  0.4241710000000  0.4734200000000 1.0
C      1  0.5144200000000  0.4941630000000  0.5095270000000 1.0
C      1  0.5072750000000  0.4867020000000  0.5739310000000 1.0
C      1  0.5574480000000  0.4854350000000  0.5051940000000 1.0
C      1  0.4497780000000  0.5581160000000  0.5260180000000 1.0
C      1  0.5290620000000  0.5096770000000  0.4645180000000 1.0
C      1  0.5261630000000  0.5652210000000  0.5396670000000 1.0
C      1  0.5295590000000  0.4563460000000  0.4229350000000 1.0
C      1  0.4343430000000  0.5231610000000  0.4381250000000 1.0
C      1  0.4618480000000  0.4984520000000  0.4933230000000 1.0
C      1  0.4727450000000  0.4707180000000  0.4902740000000 1.0
C      1  0.4815080000000  0.4728270000000  0.5682180000000 1.0
C      1  0.4555810000000  0.5613540000000  0.4521030000000 1.0
C      1  0.5015120000000  0.5760660000000  0.5298920000000 1.0
C      1  0.4069760000000  0.5080650000000  0.5161740000000 1.0
C      1  0.4922270000000  0.5086000000000  0.5864960000000 1.0
C      1  0.4832090000000  0.4451020000000  0.4325180000000 1.0
C      1  0.5106880000000  0.4367600000000  0.5543340000000 1.0
C      1  0.5234160000000  0.5371250000000  0.5480500000000 1.0
C      1  0.4880210000000  0.5024440000000  0.4589420000000 1.0
C      1  0.5853760000000  0.4970960000000  0.5326200000000 1.0
C      1  0.4661260000000  0.4371330000000  0.5304940000000 1.0
C      1  0.4380410000000  0.4425820000000  0.5185150000000 1.0
C      1  0.5653250000000  0.5233460000000  0.4373630000000 1.0
C      1  0.5371730000000  0.5836210000000  0.5010320000000 1.0
C      1  0.5986640000000  0.5092060000000  0.4907580000000 1.0
C      1  0.5216460000000  0.4221470000000  0.4885250000000 1.0
C      1  0.5375600000000  0.4967180000000  0.5274900000000 1.0
C      1  0.5566450000000  0.5072210000000  0.5999930000000 1.0
C      1  0.4958870000000  0.4768540000000  0.4709130000000 1.0
C      1  0.4933790000000  0.5366470000000  0.5827260000000 1.0
C      1  0.4801560000000  0.5165610000000  0.4823310000000 1.0
C      1  0.5526960000000  0.4478590000000  0.5281710000000 1.0
C      1  0.4479900000000  0.5394450000000  0.5692150000000 1.0
C      1  0.4784830000000  0.5583950000000  0.5378170000000 1.0
C      1  0.5352530000000  0.4531180000000  0.5507370000000 1.0
C      1  0.5479430000000  0.5677760000000  0.5223860000000 1.0
C      1  0.5638030000000  0.4527240000000  0.4466580000000 1.0
C      1  0.5696450000000  0.5077570000000  0.5524900000000 1.0
C      1  0.4724980000000  0.5105610000000  0.5372130000000 1.0
C      1  0.5364630000000  0.5711940000000  0.4561620000000 1.0
C      1  0.4448420000000  0.5121410000000  0.5786050000000 1.0
C      1  0.5540440000000  0.4731210000000  0.4270140000000 1.0
C      1  0.5911010000000  0.4617590000000  0.4926960000000 1.0
C      1  0.5211830000000  0.4240370000000  0.4591000000000 1.0
C      1  0.6060980000000  0.4835770000000  0.4866180000000 1.0
C      1  0.5208730000000  0.5348200000000  0.4813420000000 1.0
C      1  0.4542160000000  0.5095460000000  0.5164820000000 1.0
C      1  0.4565540000000  0.4462720000000  0.4723430000000 1.0
END
