TITL C-39240-7065-3 -0.108536756299302 125000 -194.787882580449 0 0 30 (C1) n - 1
REM
REM in /rds/project/t2_vol4/rds-t2-cs072/BORA/CARBON/from-Arr/AIRSS/Generating-Clusters/GAP-ML-2020/Only-C1/SD-CG/HFTN-CG
REM
REM
REM
REM
REM
REM ./C.cell (11c1c37f851c82e70ff6c80c92926a4b)
REM AIRSS Version 0.9.1 bugfix July 2018 build 013d7b7c2542+ Fri, 06 Jul 2018 19:26:36 +0100
REM compiler GCC version 9.3.0
REM options -cpp -mtune=generic -march=x86-64 -g -O0
REM seed 59037406 2085132626 -1041572599 1009665459 -106037026 1618771861 655474326 135239849 628561325 -816115029 874874816 2058293684 1784817551 -1074896541 1177239270 123369410 -964005460 423375999 -109690053 -524554411 997730885 -381313162 1085652880 1839724632 235150017 -841216720 -1949516224 646451223 1347893525 -1697563976 -2113908159 -609863110 -1540697774
REM
CELL 1.54180   50.00000   50.00000   50.00000   90.00000   90.00000   90.00000
LATT -1
SFAC C  
C      1  0.5524750000000  0.4726000000000  0.5103820000000 1.0
C      1  0.4769340000000  0.5407900000000  0.5496070000000 1.0
C      1  0.4904130000000  0.4903580000000  0.5469120000000 1.0
C      1  0.5184060000000  0.4895650000000  0.5402300000000 1.0
C      1  0.5239190000000  0.4595050000000  0.4727140000000 1.0
C      1  0.4669550000000  0.5179950000000  0.4947410000000 1.0
C      1  0.4747670000000  0.5146660000000  0.5426130000000 1.0
C      1  0.4948030000000  0.4652940000000  0.4672630000000 1.0
C      1  0.4748630000000  0.4755620000000  0.5265410000000 1.0
C      1  0.4654880000000  0.5017250000000  0.5179810000000 1.0
C      1  0.5304160000000  0.5143020000000  0.5344800000000 1.0
C      1  0.5375160000000  0.4807610000000  0.4870790000000 1.0
C      1  0.5133730000000  0.4802490000000  0.5090110000000 1.0
C      1  0.5316050000000  0.4653440000000  0.5297960000000 1.0
C      1  0.4755340000000  0.5616790000000  0.4774560000000 1.0
C      1  0.5201490000000  0.5212230000000  0.4613370000000 1.0
C      1  0.5324930000000  0.5096420000000  0.4830000000000 1.0
C      1  0.4618910000000  0.5278120000000  0.4478830000000 1.0
C      1  0.4859060000000  0.4525540000000  0.5150470000000 1.0
C      1  0.5135400000000  0.4443670000000  0.5196190000000 1.0
C      1  0.5176000000000  0.5378590000000  0.5258360000000 1.0
C      1  0.5163010000000  0.4377300000000  0.4907410000000 1.0
C      1  0.4808130000000  0.4858000000000  0.4596980000000 1.0
C      1  0.4905420000000  0.5469930000000  0.5259020000000 1.0
C      1  0.4664970000000  0.5077910000000  0.4671080000000 1.0
C      1  0.5084280000000  0.5388270000000  0.4468490000000 1.0
C      1  0.4884600000000  0.4451760000000  0.4871180000000 1.0
C      1  0.4749150000000  0.5455360000000  0.4996310000000 1.0
C      1  0.5332710000000  0.5227320000000  0.5085700000000 1.0
C      1  0.4817280000000  0.5455640000000  0.4548540000000 1.0
END
