TITL C-39559-5113-6 139.460026990758 125000 -809.126045096252 0 0 116 (C1) n - 1
REM
REM in /rds/project/t2_vol4/rds-t2-cs072/BORA/CARBON/from-Arr/AIRSS/Generating-Clusters/GAP-ML-2020/Only-C1/SD-CG/HFTN-CG
REM
REM
REM
REM
REM
REM ./C.cell (11c1c37f851c82e70ff6c80c92926a4b)
REM AIRSS Version 0.9.1 bugfix July 2018 build 013d7b7c2542+ Fri, 06 Jul 2018 19:26:36 +0100
REM compiler GCC version 9.3.0
REM options -cpp -mtune=generic -march=x86-64 -g -O0
REM seed 1645670282 1399322613 -1560908869 133187489 805443654 656756607 -149906553 1123907211 -964730228 1760793008 -1814005922 1999432607 375473333 151435356 -743706106 815121130 1418338916 -1175280037 -203870254 775154358 1190912142 -1837746028 -1469848906 -1230590083 -2001129227 1692705400 1054038854 379093696 1642418013 -1319346527 2081002716 -2013227506 -559238022
REM
CELL 1.54180   50.00000   50.00000   50.00000   90.00000   90.00000   90.00000
LATT -1
SFAC C  
C      1  0.5479840000000  0.4552810000000  0.5557860000000 1.0
C      1  0.5275780000000  0.5718570000000  0.5518020000000 1.0
C      1  0.4875610000000  0.4231890000000  0.5210600000000 1.0
C      1  0.5135340000000  0.4618960000000  0.5254220000000 1.0
C      1  0.4928920000000  0.5186100000000  0.4041090000000 1.0
C      1  0.4857970000000  0.5511330000000  0.5819940000000 1.0
C      1  0.4862370000000  0.4922190000000  0.5920470000000 1.0
C      1  0.5414900000000  0.5717960000000  0.5267440000000 1.0
C      1  0.4799040000000  0.5739710000000  0.5373690000000 1.0
C      1  0.4447340000000  0.4550670000000  0.5106650000000 1.0
C      1  0.4371840000000  0.5697610000000  0.4819730000000 1.0
C      1  0.5108180000000  0.5084910000000  0.5859450000000 1.0
C      1  0.4744170000000  0.4354870000000  0.5441170000000 1.0
C      1  0.5532900000000  0.5316940000000  0.5626550000000 1.0
C      1  0.4248970000000  0.5560400000000  0.4617410000000 1.0
C      1  0.4149570000000  0.5282810000000  0.4645250000000 1.0
C      1  0.4778520000000  0.4226420000000  0.4927150000000 1.0
C      1  0.4944840000000  0.5470670000000  0.5242880000000 1.0
C      1  0.5381470000000  0.4950980000000  0.5922640000000 1.0
C      1  0.4494860000000  0.4412980000000  0.4605890000000 1.0
C      1  0.5289140000000  0.5096800000000  0.4898310000000 1.0
C      1  0.5109010000000  0.5598980000000  0.4297470000000 1.0
C      1  0.5765480000000  0.4569320000000  0.5499410000000 1.0
C      1  0.4894990000000  0.5332390000000  0.4789580000000 1.0
C      1  0.5408800000000  0.4334420000000  0.4798950000000 1.0
C      1  0.5523930000000  0.5385090000000  0.4338510000000 1.0
C      1  0.4639930000000  0.5223830000000  0.4808950000000 1.0
C      1  0.4555220000000  0.5066850000000  0.5241720000000 1.0
C      1  0.4588450000000  0.5438450000000  0.5775860000000 1.0
C      1  0.4380450000000  0.5489670000000  0.4371670000000 1.0
C      1  0.5380290000000  0.4217140000000  0.5058140000000 1.0
C      1  0.4995780000000  0.5516070000000  0.4973450000000 1.0
C      1  0.5663920000000  0.4959930000000  0.4576640000000 1.0
C      1  0.4611450000000  0.5781110000000  0.5150740000000 1.0
C      1  0.4734160000000  0.4370760000000  0.4464460000000 1.0
C      1  0.5696060000000  0.5241100000000  0.4523380000000 1.0
C      1  0.4213230000000  0.4879030000000  0.5487710000000 1.0
C      1  0.5756410000000  0.5405870000000  0.4730280000000 1.0
C      1  0.4054510000000  0.4728450000000  0.4840160000000 1.0
C      1  0.4457860000000  0.5193370000000  0.5722910000000 1.0
C      1  0.4977990000000  0.4752770000000  0.5478970000000 1.0
C      1  0.5587820000000  0.5548760000000  0.4884870000000 1.0
C      1  0.4406970000000  0.5581890000000  0.5086600000000 1.0
C      1  0.4777010000000  0.5006300000000  0.5444510000000 1.0
C      1  0.5208340000000  0.5869460000000  0.5129500000000 1.0
C      1  0.4074650000000  0.4823620000000  0.5254010000000 1.0
C      1  0.5826910000000  0.4981440000000  0.5740130000000 1.0
C      1  0.5102950000000  0.5375690000000  0.5830530000000 1.0
C      1  0.5377410000000  0.5252180000000  0.4132450000000 1.0
C      1  0.5182270000000  0.4921200000000  0.5603620000000 1.0
C      1  0.5702490000000  0.4412690000000  0.4753650000000 1.0
C      1  0.4277880000000  0.5212480000000  0.4378680000000 1.0
C      1  0.5797660000000  0.4400010000000  0.5260640000000 1.0
C      1  0.4981760000000  0.4660700000000  0.4101530000000 1.0
C      1  0.4161370000000  0.4610140000000  0.5085010000000 1.0
C      1  0.5115940000000  0.5183860000000  0.4687940000000 1.0
C      1  0.4978340000000  0.4780020000000  0.5069850000000 1.0
C      1  0.5772740000000  0.5005800000000  0.5266810000000 1.0
C      1  0.5563640000000  0.5498570000000  0.5174080000000 1.0
C      1  0.4105870000000  0.4700980000000  0.4582200000000 1.0
C      1  0.5057710000000  0.4928070000000  0.4016070000000 1.0
C      1  0.5788100000000  0.4541090000000  0.5010920000000 1.0
C      1  0.4439600000000  0.4725420000000  0.5581220000000 1.0
C      1  0.5234810000000  0.4541540000000  0.4190450000000 1.0
C      1  0.4893980000000  0.4844980000000  0.4627560000000 1.0
C      1  0.5060810000000  0.5012860000000  0.4488850000000 1.0
C      1  0.5839050000000  0.4855500000000  0.5501280000000 1.0
C      1  0.5662000000000  0.4737880000000  0.4384790000000 1.0
C      1  0.4937380000000  0.5203750000000  0.5300380000000 1.0
C      1  0.5644450000000  0.4793110000000  0.5078250000000 1.0
C      1  0.5338130000000  0.4973780000000  0.4072920000000 1.0
C      1  0.4704690000000  0.5661850000000  0.5643510000000 1.0
C      1  0.5061610000000  0.4572970000000  0.5870950000000 1.0
C      1  0.4914170000000  0.4698490000000  0.6068770000000 1.0
C      1  0.4447640000000  0.5281700000000  0.5040790000000 1.0
C      1  0.4512490000000  0.4508390000000  0.5401070000000 1.0
C      1  0.5137190000000  0.5047780000000  0.5144710000000 1.0
C      1  0.5318540000000  0.5492120000000  0.5685690000000 1.0
C      1  0.4864280000000  0.5813100000000  0.4679560000000 1.0
C      1  0.4680430000000  0.5238170000000  0.4164540000000 1.0
C      1  0.5418100000000  0.4723300000000  0.5290410000000 1.0
C      1  0.5158720000000  0.4306920000000  0.5238040000000 1.0
C      1  0.5358770000000  0.5602800000000  0.4444390000000 1.0
C      1  0.5374680000000  0.5683700000000  0.4716110000000 1.0
C      1  0.4861190000000  0.5674690000000  0.4413480000000 1.0
C      1  0.4654370000000  0.4940830000000  0.4778670000000 1.0
C      1  0.4501810000000  0.4747570000000  0.4267360000000 1.0
C      1  0.5319500000000  0.4700970000000  0.5770770000000 1.0
C      1  0.5493330000000  0.4883220000000  0.4830630000000 1.0
C      1  0.5383450000000  0.4288950000000  0.5450300000000 1.0
C      1  0.5126470000000  0.5768110000000  0.4856220000000 1.0
C      1  0.5063290000000  0.5866750000000  0.5378780000000 1.0
C      1  0.5749840000000  0.4504360000000  0.4507520000000 1.0
C      1  0.5127600000000  0.5383340000000  0.4106120000000 1.0
C      1  0.4631380000000  0.5831840000000  0.4856590000000 1.0
C      1  0.4170260000000  0.5195940000000  0.4919840000000 1.0
C      1  0.4471670000000  0.5042470000000  0.4241960000000 1.0
C      1  0.4650030000000  0.5499790000000  0.4295490000000 1.0
C      1  0.5318080000000  0.4640190000000  0.4760950000000 1.0
C      1  0.5256250000000  0.4334920000000  0.4356170000000 1.0
C      1  0.5202440000000  0.4228560000000  0.4596330000000 1.0
C      1  0.5044960000000  0.4686640000000  0.4801120000000 1.0
C      1  0.5581170000000  0.4212430000000  0.5259360000000 1.0
C      1  0.4028010000000  0.4972780000000  0.5008950000000 1.0
C      1  0.4630960000000  0.4948760000000  0.5714260000000 1.0
C      1  0.4529930000000  0.4356930000000  0.4889190000000 1.0
C      1  0.4335700000000  0.4612290000000  0.4463620000000 1.0
C      1  0.4738900000000  0.4576530000000  0.4237000000000 1.0
C      1  0.4917080000000  0.4231870000000  0.4658030000000 1.0
C      1  0.5337880000000  0.5002760000000  0.5361270000000 1.0
C      1  0.5595360000000  0.5104620000000  0.5812120000000 1.0
C      1  0.4653300000000  0.4829190000000  0.5048700000000 1.0
C      1  0.5451810000000  0.4738190000000  0.4183750000000 1.0
C      1  0.5577700000000  0.5235100000000  0.5338120000000 1.0
C      1  0.4311660000000  0.5140590000000  0.5490630000000 1.0
C      1  0.4905750000000  0.4513540000000  0.5633520000000 1.0
END
