TITL C-39026-1189-1 0.0431941823446822 125000 -570.190382068501 0 0 82 (C1) n - 1
REM
REM in /rds/project/t2_vol4/rds-t2-cs072/BORA/CARBON/from-Arr/AIRSS/Generating-Clusters/GAP-ML-2020/Only-C1/SD-CG/HFTN-CG
REM
REM
REM
REM
REM
REM ./C.cell (11c1c37f851c82e70ff6c80c92926a4b)
REM AIRSS Version 0.9.1 bugfix July 2018 build 013d7b7c2542+ Fri, 06 Jul 2018 19:26:36 +0100
REM compiler GCC version 9.3.0
REM options -cpp -mtune=generic -march=x86-64 -g -O0
REM seed 171176672 -1817310081 819971018 649297383 -976765665 1689581135 2144944896 352857590 -406303877 -1153543014 -1932509041 -795464617 91093330 -237062186 -814002383 1031159903 1823626264 -1444661923 -1675376368 454441193 92849326 2118274310 -495811083 -1432080204 -597880453 1063023831 1681605423 -207125603 -1360452240 -1729040077 1964595562 726267853 213466064
REM
CELL 1.54180   50.00000   50.00000   50.00000   90.00000   90.00000   90.00000
LATT -1
SFAC C  
C      1  0.5148630000000  0.5341470000000  0.4799140000000 1.0
C      1  0.5187160000000  0.5646510000000  0.5449370000000 1.0
C      1  0.4835550000000  0.5126120000000  0.5776540000000 1.0
C      1  0.4945980000000  0.4397250000000  0.4561720000000 1.0
C      1  0.5118240000000  0.4287660000000  0.5466380000000 1.0
C      1  0.5218620000000  0.5091060000000  0.5164010000000 1.0
C      1  0.5573600000000  0.5012040000000  0.5519050000000 1.0
C      1  0.5605080000000  0.5307420000000  0.5482470000000 1.0
C      1  0.5135580000000  0.5127790000000  0.5798400000000 1.0
C      1  0.5443480000000  0.4934990000000  0.4792360000000 1.0
C      1  0.4335640000000  0.5310220000000  0.4820460000000 1.0
C      1  0.4479940000000  0.5689150000000  0.5066230000000 1.0
C      1  0.4837950000000  0.4269200000000  0.5408750000000 1.0
C      1  0.4384520000000  0.4504300000000  0.4895200000000 1.0
C      1  0.5280590000000  0.4531650000000  0.5397730000000 1.0
C      1  0.5440430000000  0.4993770000000  0.4243500000000 1.0
C      1  0.5203040000000  0.5393790000000  0.5765280000000 1.0
C      1  0.4224030000000  0.4887050000000  0.4713870000000 1.0
C      1  0.5382980000000  0.5231110000000  0.4402730000000 1.0
C      1  0.4929540000000  0.5727370000000  0.4733160000000 1.0
C      1  0.5235230000000  0.5108710000000  0.4645070000000 1.0
C      1  0.4966200000000  0.4802290000000  0.4262570000000 1.0
C      1  0.5090900000000  0.4316870000000  0.4999220000000 1.0
C      1  0.4726960000000  0.5768030000000  0.5179660000000 1.0
C      1  0.4705770000000  0.4908290000000  0.5651420000000 1.0
C      1  0.4709030000000  0.5473080000000  0.4419880000000 1.0
C      1  0.5029900000000  0.4152780000000  0.5242820000000 1.0
C      1  0.4907830000000  0.5323970000000  0.4309720000000 1.0
C      1  0.4617350000000  0.4374560000000  0.4975780000000 1.0
C      1  0.5337890000000  0.4941340000000  0.5690530000000 1.0
C      1  0.5668180000000  0.5192670000000  0.4544080000000 1.0
C      1  0.4263830000000  0.5164870000000  0.5089500000000 1.0
C      1  0.5210490000000  0.4854710000000  0.4984020000000 1.0
C      1  0.4661560000000  0.4461830000000  0.5267210000000 1.0
C      1  0.5339800000000  0.4337710000000  0.4848980000000 1.0
C      1  0.4420960000000  0.4652620000000  0.5348050000000 1.0
C      1  0.4464770000000  0.4900780000000  0.5490610000000 1.0
C      1  0.4930170000000  0.4814530000000  0.5494740000000 1.0
C      1  0.5607270000000  0.5364150000000  0.5025220000000 1.0
C      1  0.4812460000000  0.4587520000000  0.4385710000000 1.0
C      1  0.4727720000000  0.4901800000000  0.5075150000000 1.0
C      1  0.4184290000000  0.4910490000000  0.4998490000000 1.0
C      1  0.5190970000000  0.4727790000000  0.5593120000000 1.0
C      1  0.4515010000000  0.5389770000000  0.5493120000000 1.0
C      1  0.5254910000000  0.4775810000000  0.4265940000000 1.0
C      1  0.4824180000000  0.5170480000000  0.5169180000000 1.0
C      1  0.4746840000000  0.5378960000000  0.5670450000000 1.0
C      1  0.5299150000000  0.5385370000000  0.5044920000000 1.0
C      1  0.4535900000000  0.5617890000000  0.5325870000000 1.0
C      1  0.5176040000000  0.5632890000000  0.5167130000000 1.0
C      1  0.4853220000000  0.4325000000000  0.4823040000000 1.0
C      1  0.4375720000000  0.5158500000000  0.5376510000000 1.0
C      1  0.5676920000000  0.5138430000000  0.4851350000000 1.0
C      1  0.4961260000000  0.5746650000000  0.5021010000000 1.0
C      1  0.4552260000000  0.4699740000000  0.4443390000000 1.0
C      1  0.5736900000000  0.5419150000000  0.5259080000000 1.0
C      1  0.4864680000000  0.5272250000000  0.4897210000000 1.0
C      1  0.5766330000000  0.4885080000000  0.5016740000000 1.0
C      1  0.4670530000000  0.5636130000000  0.4629590000000 1.0
C      1  0.5381760000000  0.4587440000000  0.4442930000000 1.0
C      1  0.4983930000000  0.5548460000000  0.5650010000000 1.0
C      1  0.5542630000000  0.4563950000000  0.5262390000000 1.0
C      1  0.4445670000000  0.5574260000000  0.4811160000000 1.0
C      1  0.4270020000000  0.4662970000000  0.5113380000000 1.0
C      1  0.5134040000000  0.5572540000000  0.4620340000000 1.0
C      1  0.5116160000000  0.4599450000000  0.5136560000000 1.0
C      1  0.4854500000000  0.4681740000000  0.5238080000000 1.0
C      1  0.5399360000000  0.5480170000000  0.5580970000000 1.0
C      1  0.5043010000000  0.4896970000000  0.4747620000000 1.0
C      1  0.4350970000000  0.5110850000000  0.4596710000000 1.0
C      1  0.5239120000000  0.4397150000000  0.4584310000000 1.0
C      1  0.5590610000000  0.4737360000000  0.4592360000000 1.0
C      1  0.5021020000000  0.5100410000000  0.5350580000000 1.0
C      1  0.5562150000000  0.4464480000000  0.4986700000000 1.0
C      1  0.4810660000000  0.5050550000000  0.4282340000000 1.0
C      1  0.4794240000000  0.4995170000000  0.4817030000000 1.0
C      1  0.4354520000000  0.4644230000000  0.4646330000000 1.0
C      1  0.4548250000000  0.4985950000000  0.4394430000000 1.0
C      1  0.5659120000000  0.4828600000000  0.5290120000000 1.0
C      1  0.5720870000000  0.4650330000000  0.4845650000000 1.0
C      1  0.5676740000000  0.4944450000000  0.4406870000000 1.0
C      1  0.5170690000000  0.5439140000000  0.4370700000000 1.0
END
