TITL C-40136-9405-4 0.0109235488637399 125000 -266.664764053286 0 0 38 (C1) n - 1
REM
REM in /rds/project/t2_vol4/rds-t2-cs072/BORA/CARBON/from-Arr/AIRSS/Generating-Clusters/GAP-ML-2020/Only-C1/SD-CG/HFTN-CG
REM
REM
REM
REM
REM
REM ./C.cell (11c1c37f851c82e70ff6c80c92926a4b)
REM AIRSS Version 0.9.1 bugfix July 2018 build 013d7b7c2542+ Fri, 06 Jul 2018 19:26:36 +0100
REM compiler GCC version 9.3.0
REM options -cpp -mtune=generic -march=x86-64 -g -O0
REM seed -2116161931 656744583 -1086970700 -911393409 -1258138945 -1998772658 594237789 -10808397 659660456 210983816 -1879640031 -1643507787 1114682597 1736018754 71162284 1287680455 1508961888 -1861501705 -1031658738 648761594 270241573 -1707341530 -1036163721 -1683779056 305450442 -630917683 -285709446 1352454422 -1646999527 1286681023 -1205937316 -1563015174 224847975
REM
CELL 1.54180   50.00000   50.00000   50.00000   90.00000   90.00000   90.00000
LATT -1
SFAC C  
C      1  0.5469970000000  0.5168610000000  0.4760860000000 1.0
C      1  0.4507380000000  0.5015480000000  0.4770520000000 1.0
C      1  0.5168470000000  0.5000830000000  0.4455180000000 1.0
C      1  0.5524760000000  0.5208420000000  0.5036030000000 1.0
C      1  0.4830050000000  0.4587880000000  0.4770820000000 1.0
C      1  0.4932060000000  0.4875240000000  0.4366550000000 1.0
C      1  0.5056070000000  0.4839060000000  0.5596460000000 1.0
C      1  0.4656960000000  0.4628820000000  0.5002830000000 1.0
C      1  0.4676270000000  0.5256420000000  0.4798580000000 1.0
C      1  0.4759560000000  0.4695930000000  0.4519770000000 1.0
C      1  0.4549600000000  0.4902770000000  0.4512830000000 1.0
C      1  0.5008590000000  0.5555790000000  0.5038430000000 1.0
C      1  0.5311780000000  0.4574370000000  0.5281220000000 1.0
C      1  0.5427050000000  0.4984890000000  0.5471660000000 1.0
C      1  0.4238770000000  0.4858360000000  0.5170520000000 1.0
C      1  0.4788510000000  0.5362350000000  0.5041930000000 1.0
C      1  0.5366100000000  0.4922780000000  0.4649250000000 1.0
C      1  0.4652740000000  0.5022500000000  0.5417590000000 1.0
C      1  0.4795390000000  0.5245750000000  0.5309320000000 1.0
C      1  0.5469600000000  0.4723620000000  0.5085840000000 1.0
C      1  0.4811550000000  0.4586480000000  0.5246050000000 1.0
C      1  0.4813890000000  0.4782650000000  0.5462210000000 1.0
C      1  0.5094100000000  0.4548460000000  0.4873800000000 1.0
C      1  0.5248350000000  0.5559020000000  0.4880490000000 1.0
C      1  0.5336780000000  0.4702250000000  0.4827710000000 1.0
C      1  0.5181930000000  0.5498240000000  0.5279800000000 1.0
C      1  0.5184260000000  0.5105790000000  0.5567580000000 1.0
C      1  0.5407750000000  0.5460450000000  0.5116770000000 1.0
C      1  0.5300500000000  0.4717280000000  0.5517480000000 1.0
C      1  0.5046860000000  0.5309060000000  0.5435560000000 1.0
C      1  0.5300320000000  0.5385100000000  0.4671700000000 1.0
C      1  0.4398930000000  0.4975400000000  0.5329530000000 1.0
C      1  0.5071450000000  0.4491010000000  0.5155870000000 1.0
C      1  0.5102080000000  0.5282410000000  0.4504880000000 1.0
C      1  0.4442910000000  0.4814650000000  0.4968550000000 1.0
C      1  0.5531000000000  0.4980380000000  0.5203640000000 1.0
C      1  0.4722370000000  0.5077920000000  0.4367980000000 1.0
C      1  0.4815310000000  0.5293570000000  0.4534230000000 1.0
END
