TITL C-40125-9389-3 19.3858964778066 125000 -274.035720622743 0 0 40 (C1) n - 1
REM
REM in /rds/project/t2_vol4/rds-t2-cs072/BORA/CARBON/from-Arr/AIRSS/Generating-Clusters/GAP-ML-2020/Only-C1/SD-CG/HFTN-CG
REM
REM
REM
REM
REM
REM ./C.cell (11c1c37f851c82e70ff6c80c92926a4b)
REM AIRSS Version 0.9.1 bugfix July 2018 build 013d7b7c2542+ Fri, 06 Jul 2018 19:26:36 +0100
REM compiler GCC version 9.3.0
REM options -cpp -mtune=generic -march=x86-64 -g -O0
REM seed 715618752 1735781347 -1224601377 -1609828818 1868942443 646625750 -1735247277 1035981843 -893326198 365252283 -658175542 1106939457 -694817136 -1065602766 -1227603743 -791022736 956636447 864926281 941068875 -1543354292 -251607000 -1549535454 -183729386 868451820 639648168 1777460798 1643773347 -2039627767 -1470292857 -1758487773 -218920680 601292262 -2144830583
REM
CELL 1.54180   50.00000   50.00000   50.00000   90.00000   90.00000   90.00000
LATT -1
SFAC C  
C      1  0.4847910000000  0.5521520000000  0.5169450000000 1.0
C      1  0.5159670000000  0.4518290000000  0.5105360000000 1.0
C      1  0.5465720000000  0.4872540000000  0.4738770000000 1.0
C      1  0.5100720000000  0.4784420000000  0.5476180000000 1.0
C      1  0.5631790000000  0.4718360000000  0.4907170000000 1.0
C      1  0.4957170000000  0.5244870000000  0.5524090000000 1.0
C      1  0.4416820000000  0.5019660000000  0.5474230000000 1.0
C      1  0.5118070000000  0.4705820000000  0.4377360000000 1.0
C      1  0.4508260000000  0.5208460000000  0.5013950000000 1.0
C      1  0.4726250000000  0.5035990000000  0.4396980000000 1.0
C      1  0.5202480000000  0.5323210000000  0.5407120000000 1.0
C      1  0.4502150000000  0.4950240000000  0.4879020000000 1.0
C      1  0.5079970000000  0.5442450000000  0.4608970000000 1.0
C      1  0.5355280000000  0.4854240000000  0.5370890000000 1.0
C      1  0.4987160000000  0.4984570000000  0.4780930000000 1.0
C      1  0.4612840000000  0.4696330000000  0.5004280000000 1.0
C      1  0.5346800000000  0.5479860000000  0.5007330000000 1.0
C      1  0.5483640000000  0.5149020000000  0.4800090000000 1.0
C      1  0.5204050000000  0.4753100000000  0.4653600000000 1.0
C      1  0.4974730000000  0.4584260000000  0.5312980000000 1.0
C      1  0.4702300000000  0.4664030000000  0.5270380000000 1.0
C      1  0.4516650000000  0.5208930000000  0.5301990000000 1.0
C      1  0.5421200000000  0.4636960000000  0.5193110000000 1.0
C      1  0.4742400000000  0.5378310000000  0.5388060000000 1.0
C      1  0.4821480000000  0.5445280000000  0.4698640000000 1.0
C      1  0.5690810000000  0.4556200000000  0.5101790000000 1.0
C      1  0.4907620000000  0.4969090000000  0.5559400000000 1.0
C      1  0.5328330000000  0.5393970000000  0.4730890000000 1.0
C      1  0.4646850000000  0.4875650000000  0.5458860000000 1.0
C      1  0.5402850000000  0.5136330000000  0.5324770000000 1.0
C      1  0.4775060000000  0.4559590000000  0.4804310000000 1.0
C      1  0.4685920000000  0.5439680000000  0.4942530000000 1.0
C      1  0.5502790000000  0.5237680000000  0.5077130000000 1.0
C      1  0.4680640000000  0.4661710000000  0.4556010000000 1.0
C      1  0.4540010000000  0.4911410000000  0.4599160000000 1.0
C      1  0.4891250000000  0.5204740000000  0.4550370000000 1.0
C      1  0.5064660000000  0.4540310000000  0.4842300000000 1.0
C      1  0.4997240000000  0.5050610000000  0.5034210000000 1.0
C      1  0.5141470000000  0.5513280000000  0.5193750000000 1.0
C      1  0.4858960000000  0.4769020000000  0.4363600000000 1.0
END
