TITL C-40138-9345-7 295.395227622113 125000 -927.463526393434 0 0 134 (C1) n - 1
REM
REM in /rds/project/t2_vol4/rds-t2-cs072/BORA/CARBON/from-Arr/AIRSS/Generating-Clusters/GAP-ML-2020/Only-C1/SD-CG/HFTN-CG
REM
REM
REM
REM
REM
REM ./C.cell (11c1c37f851c82e70ff6c80c92926a4b)
REM AIRSS Version 0.9.1 bugfix July 2018 build 013d7b7c2542+ Fri, 06 Jul 2018 19:26:36 +0100
REM compiler GCC version 9.3.0
REM options -cpp -mtune=generic -march=x86-64 -g -O0
REM seed 2022231297 -2094202271 -1697170058 -1549281128 245308400 1431973793 45921369 -1159837980 -1542328876 472238572 -1158582760 1523177641 1436519348 -1500423913 -1462894654 -804774164 -881331234 222972348 1283846263 1573889198 -977806326 -1616771026 -41785537 190330208 1785161223 763525205 2130921689 -1175591869 332123637 621207694 -873735375 1300249526 -572855562
REM
CELL 1.54180   50.00000   50.00000   50.00000   90.00000   90.00000   90.00000
LATT -1
SFAC C  
C      1  0.5996260000000  0.4628770000000  0.5042640000000 1.0
C      1  0.6081850000000  0.5206010000000  0.5154720000000 1.0
C      1  0.5127130000000  0.5907630000000  0.4692070000000 1.0
C      1  0.4926580000000  0.5595770000000  0.4340530000000 1.0
C      1  0.5017990000000  0.5105170000000  0.6085310000000 1.0
C      1  0.5674090000000  0.4635540000000  0.4406230000000 1.0
C      1  0.5638130000000  0.4345280000000  0.5352780000000 1.0
C      1  0.4597090000000  0.4267970000000  0.5403750000000 1.0
C      1  0.5229160000000  0.5803440000000  0.5215920000000 1.0
C      1  0.5440000000000  0.4955140000000  0.4138270000000 1.0
C      1  0.5571500000000  0.4071480000000  0.5313330000000 1.0
C      1  0.5976040000000  0.5223660000000  0.4437020000000 1.0
C      1  0.5161320000000  0.4706040000000  0.4695530000000 1.0
C      1  0.4387230000000  0.4785270000000  0.4186930000000 1.0
C      1  0.5666130000000  0.5682870000000  0.5400390000000 1.0
C      1  0.4114390000000  0.5086550000000  0.4992780000000 1.0
C      1  0.4834340000000  0.5558310000000  0.5843260000000 1.0
C      1  0.4210080000000  0.5429290000000  0.5373960000000 1.0
C      1  0.4164760000000  0.4962670000000  0.5434780000000 1.0
C      1  0.5476070000000  0.5551920000000  0.5570280000000 1.0
C      1  0.4732540000000  0.4751650000000  0.5338000000000 1.0
C      1  0.4238960000000  0.5693890000000  0.4928370000000 1.0
C      1  0.4993870000000  0.4820100000000  0.6003960000000 1.0
C      1  0.4969010000000  0.5421520000000  0.4576100000000 1.0
C      1  0.4958630000000  0.4737810000000  0.5137330000000 1.0
C      1  0.5185980000000  0.4852290000000  0.4156430000000 1.0
C      1  0.5580540000000  0.5301040000000  0.5668140000000 1.0
C      1  0.4198050000000  0.4993390000000  0.4279250000000 1.0
C      1  0.5937310000000  0.5111910000000  0.4932140000000 1.0
C      1  0.4857220000000  0.5973300000000  0.4682300000000 1.0
C      1  0.4631550000000  0.5395040000000  0.5728800000000 1.0
C      1  0.4684520000000  0.4293240000000  0.4944680000000 1.0
C      1  0.5389180000000  0.5109190000000  0.5759480000000 1.0
C      1  0.4996660000000  0.5033160000000  0.4308470000000 1.0
C      1  0.5196890000000  0.4573150000000  0.5172270000000 1.0
C      1  0.5809010000000  0.5175250000000  0.5553830000000 1.0
C      1  0.4433560000000  0.4517810000000  0.4285040000000 1.0
C      1  0.4882090000000  0.4689280000000  0.4670970000000 1.0
C      1  0.4076230000000  0.5238340000000  0.4736850000000 1.0
C      1  0.5227170000000  0.5238450000000  0.5966010000000 1.0
C      1  0.5493540000000  0.5550520000000  0.4932440000000 1.0
C      1  0.5166420000000  0.4045000000000  0.4939510000000 1.0
C      1  0.5981140000000  0.5331020000000  0.5377680000000 1.0
C      1  0.4650760000000  0.5386100000000  0.4683930000000 1.0
C      1  0.5031600000000  0.4366370000000  0.5554710000000 1.0
C      1  0.4745270000000  0.5578090000000  0.4921540000000 1.0
C      1  0.4417200000000  0.5491660000000  0.4530800000000 1.0
C      1  0.5006860000000  0.5369480000000  0.5368850000000 1.0
C      1  0.4454170000000  0.5441770000000  0.4256610000000 1.0
C      1  0.5657810000000  0.4815680000000  0.5239840000000 1.0
C      1  0.4359220000000  0.4406830000000  0.4543980000000 1.0
C      1  0.5157520000000  0.5198170000000  0.4523080000000 1.0
C      1  0.4665390000000  0.5024710000000  0.5443990000000 1.0
C      1  0.4661040000000  0.5865650000000  0.4860270000000 1.0
C      1  0.4742510000000  0.5451550000000  0.5192720000000 1.0
C      1  0.4554300000000  0.5013160000000  0.4080490000000 1.0
C      1  0.4782020000000  0.4914360000000  0.4542760000000 1.0
C      1  0.5019920000000  0.5547160000000  0.4828590000000 1.0
C      1  0.5706360000000  0.4723190000000  0.4694010000000 1.0
C      1  0.5874360000000  0.5298250000000  0.4681750000000 1.0
C      1  0.5239500000000  0.4979800000000  0.4752710000000 1.0
C      1  0.4006910000000  0.4782300000000  0.4655830000000 1.0
C      1  0.5187050000000  0.5611250000000  0.5476690000000 1.0
C      1  0.5230400000000  0.5715700000000  0.4889340000000 1.0
C      1  0.5964600000000  0.4803990000000  0.4847010000000 1.0
C      1  0.5120330000000  0.4574170000000  0.4124520000000 1.0
C      1  0.4836370000000  0.5213760000000  0.5575140000000 1.0
C      1  0.4930470000000  0.4166560000000  0.5054010000000 1.0
C      1  0.4799250000000  0.5854300000000  0.5441250000000 1.0
C      1  0.5922640000000  0.5599300000000  0.5402870000000 1.0
C      1  0.5078620000000  0.4192860000000  0.4452790000000 1.0
C      1  0.4295430000000  0.4534990000000  0.5174810000000 1.0
C      1  0.4634230000000  0.5168010000000  0.5179020000000 1.0
C      1  0.5501070000000  0.4521100000000  0.5556720000000 1.0
C      1  0.4685570000000  0.4396430000000  0.4222720000000 1.0
C      1  0.4840200000000  0.5117970000000  0.4976110000000 1.0
C      1  0.4348270000000  0.5201860000000  0.4152660000000 1.0
C      1  0.4973550000000  0.5846460000000  0.4456160000000 1.0
C      1  0.4135860000000  0.4521150000000  0.4691220000000 1.0
C      1  0.4394960000000  0.5916180000000  0.4877560000000 1.0
C      1  0.4089190000000  0.4559060000000  0.4976680000000 1.0
C      1  0.4450290000000  0.5007700000000  0.4984530000000 1.0
C      1  0.4981720000000  0.5945300000000  0.5244930000000 1.0
C      1  0.5386160000000  0.4734140000000  0.5354600000000 1.0
C      1  0.4291930000000  0.5647160000000  0.5204800000000 1.0
C      1  0.4734840000000  0.5449040000000  0.4178310000000 1.0
C      1  0.5777960000000  0.4894840000000  0.5509520000000 1.0
C      1  0.4996510000000  0.5383960000000  0.6000540000000 1.0
C      1  0.5083060000000  0.5001300000000  0.5033360000000 1.0
C      1  0.4786480000000  0.4229340000000  0.4440370000000 1.0
C      1  0.5527220000000  0.5763340000000  0.5164270000000 1.0
C      1  0.4426010000000  0.5488350000000  0.5564860000000 1.0
C      1  0.5105830000000  0.4289240000000  0.5275720000000 1.0
C      1  0.5500850000000  0.4407170000000  0.4400180000000 1.0
C      1  0.4370440000000  0.4690460000000  0.5667280000000 1.0
C      1  0.4852680000000  0.4550280000000  0.4081100000000 1.0
C      1  0.4066900000000  0.5030460000000  0.4531470000000 1.0
C      1  0.5584510000000  0.4492500000000  0.4852530000000 1.0
C      1  0.5660170000000  0.4723820000000  0.5704770000000 1.0
C      1  0.3981890000000  0.4826290000000  0.4936150000000 1.0
C      1  0.4476670000000  0.4290030000000  0.5171540000000 1.0
C      1  0.5466830000000  0.5282780000000  0.5110900000000 1.0
C      1  0.5267180000000  0.4981040000000  0.5469670000000 1.0
C      1  0.4797060000000  0.5169800000000  0.4134570000000 1.0
C      1  0.5242830000000  0.4473720000000  0.5708480000000 1.0
C      1  0.5429700000000  0.5335340000000  0.4462470000000 1.0
C      1  0.4093620000000  0.5181650000000  0.5275920000000 1.0
C      1  0.4207540000000  0.4668820000000  0.5433980000000 1.0
C      1  0.5810930000000  0.5100250000000  0.4270080000000 1.0
C      1  0.4195610000000  0.5497390000000  0.4710720000000 1.0
C      1  0.5544170000000  0.5207710000000  0.4242540000000 1.0
C      1  0.5243100000000  0.4361820000000  0.4277900000000 1.0
C      1  0.5611850000000  0.5437450000000  0.4674530000000 1.0
C      1  0.5232610000000  0.4688770000000  0.5896570000000 1.0
C      1  0.5328680000000  0.4101450000000  0.5182020000000 1.0
C      1  0.4752080000000  0.4472420000000  0.5536630000000 1.0
C      1  0.4650810000000  0.5089200000000  0.4744550000000 1.0
C      1  0.5300510000000  0.4556070000000  0.4896340000000 1.0
C      1  0.4559030000000  0.5666900000000  0.5359280000000 1.0
C      1  0.5736480000000  0.4524080000000  0.5131860000000 1.0
C      1  0.5533260000000  0.4958600000000  0.4788780000000 1.0
C      1  0.5471600000000  0.4844190000000  0.5872450000000 1.0
C      1  0.4751210000000  0.4702160000000  0.5962230000000 1.0
C      1  0.5214670000000  0.5174100000000  0.5248850000000 1.0
C      1  0.4395110000000  0.4973220000000  0.5605470000000 1.0
C      1  0.5497120000000  0.4277530000000  0.4651810000000 1.0
C      1  0.4523600000000  0.4734750000000  0.5086550000000 1.0
C      1  0.5698300000000  0.4834430000000  0.4206080000000 1.0
C      1  0.5250420000000  0.4115870000000  0.4673210000000 1.0
C      1  0.4954180000000  0.5729060000000  0.5643660000000 1.0
C      1  0.5639190000000  0.5053130000000  0.5040290000000 1.0
C      1  0.4603750000000  0.4573300000000  0.5779360000000 1.0
C      1  0.4753870000000  0.4608650000000  0.4928140000000 1.0
C      1  0.4589950000000  0.4255140000000  0.4651060000000 1.0
END
