TITL C-40139-9373-8 162.378870864836 125000 -642.665239397558 0 0 92 (C1) n - 1
REM
REM in /rds/project/t2_vol4/rds-t2-cs072/BORA/CARBON/from-Arr/AIRSS/Generating-Clusters/GAP-ML-2020/Only-C1/SD-CG/HFTN-CG
REM
REM
REM
REM
REM
REM ./C.cell (11c1c37f851c82e70ff6c80c92926a4b)
REM AIRSS Version 0.9.1 bugfix July 2018 build 013d7b7c2542+ Fri, 06 Jul 2018 19:26:36 +0100
REM compiler GCC version 9.3.0
REM options -cpp -mtune=generic -march=x86-64 -g -O0
REM seed 845843828 1450034562 -793100397 -1037307542 176761095 -1076965328 -1193887422 881050052 -459420727 256357859 -800264052 -1163012594 -1528482846 -1529445143 750880194 1741584056 -306671026 -2128288066 144745643 1997150494 1463902821 -1176215122 -2129072526 1020831780 -1720395891 215952121 2087484233 -1037980549 2006556374 1222144046 306356273 686502288 695465919
REM
CELL 1.54180   50.00000   50.00000   50.00000   90.00000   90.00000   90.00000
LATT -1
SFAC C  
C      1  0.4965450000000  0.4808530000000  0.4757160000000 1.0
C      1  0.5761020000000  0.5283660000000  0.4809330000000 1.0
C      1  0.5033380000000  0.4176140000000  0.5093260000000 1.0
C      1  0.5334860000000  0.4912970000000  0.5781920000000 1.0
C      1  0.4525180000000  0.5031490000000  0.5735150000000 1.0
C      1  0.4453150000000  0.5663410000000  0.4736320000000 1.0
C      1  0.5380630000000  0.5593170000000  0.5037910000000 1.0
C      1  0.5340280000000  0.4891540000000  0.4250950000000 1.0
C      1  0.4367650000000  0.5230390000000  0.5597600000000 1.0
C      1  0.5136530000000  0.5092530000000  0.4183750000000 1.0
C      1  0.4590020000000  0.4759200000000  0.5059730000000 1.0
C      1  0.4666050000000  0.4631480000000  0.4266510000000 1.0
C      1  0.4685910000000  0.4838170000000  0.5327350000000 1.0
C      1  0.4797360000000  0.5015020000000  0.5772640000000 1.0
C      1  0.5119520000000  0.4498300000000  0.4513480000000 1.0
C      1  0.5370590000000  0.5613790000000  0.4739940000000 1.0
C      1  0.4899930000000  0.5775150000000  0.4775890000000 1.0
C      1  0.5649560000000  0.4567340000000  0.4839040000000 1.0
C      1  0.4609390000000  0.4444520000000  0.4966230000000 1.0
C      1  0.5125290000000  0.5048720000000  0.4761750000000 1.0
C      1  0.4828320000000  0.4614480000000  0.5468940000000 1.0
C      1  0.5117810000000  0.4618730000000  0.5362350000000 1.0
C      1  0.4263370000000  0.4733390000000  0.4749160000000 1.0
C      1  0.4707030000000  0.4344290000000  0.5420000000000 1.0
C      1  0.5292380000000  0.5306810000000  0.5127940000000 1.0
C      1  0.4773500000000  0.5370550000000  0.4303090000000 1.0
C      1  0.5344880000000  0.4633380000000  0.4402610000000 1.0
C      1  0.5334610000000  0.5082410000000  0.4932120000000 1.0
C      1  0.4680430000000  0.5756320000000  0.4614960000000 1.0
C      1  0.5178680000000  0.4909490000000  0.5354780000000 1.0
C      1  0.4481510000000  0.4354270000000  0.5226520000000 1.0
C      1  0.4224140000000  0.5257440000000  0.5031730000000 1.0
C      1  0.4442380000000  0.4852360000000  0.5524230000000 1.0
C      1  0.4917440000000  0.5056310000000  0.5317760000000 1.0
C      1  0.5247130000000  0.5120390000000  0.5586270000000 1.0
C      1  0.4927820000000  0.5249900000000  0.4853500000000 1.0
C      1  0.5119070000000  0.5669930000000  0.4612880000000 1.0
C      1  0.4256290000000  0.4507950000000  0.5212690000000 1.0
C      1  0.4514590000000  0.5661240000000  0.5016130000000 1.0
C      1  0.4453490000000  0.4505940000000  0.4715210000000 1.0
C      1  0.4886820000000  0.4346900000000  0.4921220000000 1.0
C      1  0.5497070000000  0.5318320000000  0.4385310000000 1.0
C      1  0.5556380000000  0.4573370000000  0.5563390000000 1.0
C      1  0.5785730000000  0.4798500000000  0.4936000000000 1.0
C      1  0.5658520000000  0.5595950000000  0.5154130000000 1.0
C      1  0.4339630000000  0.5448780000000  0.4598100000000 1.0
C      1  0.4389000000000  0.5463400000000  0.5172940000000 1.0
C      1  0.5235320000000  0.5348160000000  0.4273850000000 1.0
C      1  0.5568480000000  0.4818790000000  0.5685550000000 1.0
C      1  0.5072180000000  0.4544030000000  0.4814820000000 1.0
C      1  0.4512840000000  0.5410700000000  0.5432100000000 1.0
C      1  0.4790210000000  0.5454510000000  0.5492380000000 1.0
C      1  0.5670350000000  0.4864580000000  0.5195350000000 1.0
C      1  0.4935050000000  0.4177960000000  0.5359800000000 1.0
C      1  0.4491030000000  0.5335280000000  0.4379680000000 1.0
C      1  0.4255880000000  0.4982040000000  0.4601340000000 1.0
C      1  0.5651640000000  0.4587700000000  0.5307170000000 1.0
C      1  0.5253800000000  0.4595640000000  0.5068560000000 1.0
C      1  0.4231410000000  0.5027800000000  0.5440390000000 1.0
C      1  0.4846400000000  0.5112210000000  0.4195310000000 1.0
C      1  0.4708130000000  0.4891150000000  0.4832900000000 1.0
C      1  0.5713230000000  0.4890500000000  0.4513400000000 1.0
C      1  0.5028740000000  0.5517590000000  0.4370710000000 1.0
C      1  0.4264970000000  0.4759860000000  0.5045930000000 1.0
C      1  0.5767220000000  0.5339400000000  0.5089710000000 1.0
C      1  0.4992750000000  0.5292580000000  0.5137280000000 1.0
C      1  0.4790630000000  0.5733200000000  0.5053410000000 1.0
C      1  0.5582940000000  0.4633590000000  0.4567450000000 1.0
C      1  0.5431100000000  0.5273170000000  0.5414210000000 1.0
C      1  0.5572170000000  0.5436980000000  0.4629010000000 1.0
C      1  0.5359640000000  0.4877420000000  0.5122760000000 1.0
C      1  0.4631980000000  0.4914680000000  0.4235780000000 1.0
C      1  0.5437290000000  0.5576090000000  0.5464540000000 1.0
C      1  0.5222170000000  0.5675410000000  0.5287320000000 1.0
C      1  0.4938410000000  0.5592850000000  0.5273500000000 1.0
C      1  0.5685420000000  0.5146530000000  0.5290810000000 1.0
C      1  0.5276110000000  0.4482800000000  0.5587970000000 1.0
C      1  0.5162020000000  0.4679710000000  0.5793030000000 1.0
C      1  0.4422400000000  0.5058170000000  0.4371710000000 1.0
C      1  0.5815270000000  0.5006660000000  0.4745330000000 1.0
C      1  0.4598680000000  0.4460620000000  0.4482260000000 1.0
C      1  0.5664640000000  0.5711780000000  0.5398270000000 1.0
C      1  0.5320020000000  0.4219800000000  0.5173030000000 1.0
C      1  0.5509230000000  0.4436470000000  0.5084090000000 1.0
C      1  0.5565020000000  0.5043940000000  0.4334610000000 1.0
C      1  0.5214710000000  0.4235650000000  0.5451640000000 1.0
C      1  0.4176010000000  0.5017280000000  0.5169960000000 1.0
C      1  0.4681780000000  0.5164430000000  0.4798620000000 1.0
C      1  0.4218560000000  0.5235960000000  0.4744950000000 1.0
C      1  0.4899650000000  0.4742410000000  0.5737390000000 1.0
C      1  0.4864100000000  0.4463750000000  0.4385680000000 1.0
C      1  0.4940640000000  0.5203870000000  0.5596540000000 1.0
END
