TITL C-40127-9497-8 0.18840981363948 125000 -497.833538991084 0 0 73 (C1) n - 1
REM
REM in /rds/project/t2_vol4/rds-t2-cs072/BORA/CARBON/from-Arr/AIRSS/Generating-Clusters/GAP-ML-2020/Only-C1/SD-CG/HFTN-CG
REM
REM
REM
REM
REM
REM ./C.cell (11c1c37f851c82e70ff6c80c92926a4b)
REM AIRSS Version 0.9.1 bugfix July 2018 build 013d7b7c2542+ Fri, 06 Jul 2018 19:26:36 +0100
REM compiler GCC version 9.3.0
REM options -cpp -mtune=generic -march=x86-64 -g -O0
REM seed 1775589625 -1624935979 -117545509 -1807213684 -498032946 570987902 -448598529 1389227839 229000611 -1497107104 -50018826 752711613 -1727251391 -1558179085 -1048178750 990916550 -1959631952 552922677 1164226117 574997567 675537361 1258281147 -1511319887 816803476 -1745983294 154197837 1744427231 -515019539 -1596383677 1394763673 -1616816473 1001201072 -1979637686
REM
CELL 1.54180   50.00000   50.00000   50.00000   90.00000   90.00000   90.00000
LATT -1
SFAC C  
C      1  0.4739040000000  0.4529260000000  0.4626800000000 1.0
C      1  0.5429540000000  0.5576490000000  0.4838470000000 1.0
C      1  0.4925600000000  0.4657600000000  0.4449650000000 1.0
C      1  0.5230290000000  0.5131090000000  0.4791680000000 1.0
C      1  0.5624380000000  0.4831080000000  0.5355760000000 1.0
C      1  0.5525030000000  0.5300790000000  0.4780920000000 1.0
C      1  0.4607780000000  0.4567310000000  0.5140150000000 1.0
C      1  0.4972110000000  0.4761350000000  0.4961490000000 1.0
C      1  0.5494270000000  0.5263920000000  0.4481750000000 1.0
C      1  0.5056040000000  0.5377540000000  0.4342160000000 1.0
C      1  0.5080260000000  0.4353470000000  0.5437490000000 1.0
C      1  0.5386880000000  0.5022410000000  0.4352540000000 1.0
C      1  0.4946480000000  0.5483360000000  0.5360080000000 1.0
C      1  0.4881110000000  0.4972720000000  0.4456110000000 1.0
C      1  0.5363680000000  0.5000700000000  0.5735950000000 1.0
C      1  0.4698690000000  0.5065150000000  0.5204540000000 1.0
C      1  0.5636610000000  0.5209100000000  0.5035750000000 1.0
C      1  0.5478340000000  0.4584480000000  0.5360140000000 1.0
C      1  0.5437080000000  0.4748480000000  0.4397200000000 1.0
C      1  0.5001710000000  0.5251270000000  0.4887460000000 1.0
C      1  0.4741010000000  0.4787890000000  0.5333530000000 1.0
C      1  0.5020340000000  0.5357420000000  0.5629220000000 1.0
C      1  0.5156300000000  0.5028220000000  0.5285790000000 1.0
C      1  0.5532880000000  0.5393680000000  0.5237880000000 1.0
C      1  0.5433620000000  0.4430550000000  0.5121230000000 1.0
C      1  0.4651440000000  0.5024310000000  0.4273800000000 1.0
C      1  0.4826320000000  0.4489130000000  0.4907900000000 1.0
C      1  0.5456970000000  0.4515480000000  0.4576670000000 1.0
C      1  0.4454340000000  0.4750330000000  0.4976210000000 1.0
C      1  0.4604180000000  0.5350980000000  0.4604310000000 1.0
C      1  0.4289450000000  0.4733850000000  0.4751960000000 1.0
C      1  0.4674440000000  0.4818200000000  0.4082520000000 1.0
C      1  0.4384830000000  0.5195600000000  0.5546410000000 1.0
C      1  0.5100800000000  0.5664210000000  0.5177220000000 1.0
C      1  0.4847130000000  0.5149850000000  0.5729980000000 1.0
C      1  0.5648950000000  0.4932200000000  0.5094130000000 1.0
C      1  0.4835590000000  0.4630500000000  0.4151480000000 1.0
C      1  0.4485310000000  0.5493390000000  0.4845640000000 1.0
C      1  0.5178920000000  0.4297260000000  0.5169270000000 1.0
C      1  0.5517440000000  0.5301560000000  0.5500790000000 1.0
C      1  0.5205840000000  0.4653650000000  0.4551440000000 1.0
C      1  0.4682520000000  0.4767800000000  0.5634710000000 1.0
C      1  0.4807220000000  0.4325870000000  0.5504130000000 1.0
C      1  0.4667380000000  0.5532070000000  0.5285930000000 1.0
C      1  0.5230170000000  0.4586100000000  0.5509710000000 1.0
C      1  0.5262190000000  0.5655960000000  0.4631300000000 1.0
C      1  0.4366840000000  0.4892680000000  0.4523720000000 1.0
C      1  0.5496170000000  0.4770900000000  0.4913710000000 1.0
C      1  0.5190570000000  0.4783780000000  0.5721030000000 1.0
C      1  0.4664920000000  0.5634760000000  0.5023100000000 1.0
C      1  0.4608550000000  0.4484080000000  0.5629490000000 1.0
C      1  0.5035390000000  0.4773410000000  0.5255570000000 1.0
C      1  0.4961390000000  0.5215090000000  0.5184860000000 1.0
C      1  0.4921500000000  0.5730650000000  0.4955640000000 1.0
C      1  0.5215900000000  0.4841210000000  0.4805440000000 1.0
C      1  0.4706080000000  0.4942480000000  0.4933450000000 1.0
C      1  0.5289210000000  0.5282120000000  0.5684700000000 1.0
C      1  0.4567450000000  0.5058670000000  0.5686190000000 1.0
C      1  0.4790540000000  0.5128840000000  0.4718420000000 1.0
C      1  0.5103260000000  0.5096570000000  0.4316030000000 1.0
C      1  0.4560970000000  0.4375190000000  0.5356110000000 1.0
C      1  0.4335180000000  0.5412770000000  0.5063870000000 1.0
C      1  0.4932470000000  0.4875400000000  0.5758290000000 1.0
C      1  0.5581690000000  0.5021760000000  0.5551350000000 1.0
C      1  0.5534200000000  0.4497050000000  0.4856950000000 1.0
C      1  0.4471040000000  0.5286640000000  0.5287990000000 1.0
C      1  0.4984740000000  0.5690630000000  0.4678340000000 1.0
C      1  0.5368850000000  0.5596810000000  0.5111680000000 1.0
C      1  0.5307000000000  0.5475440000000  0.4416020000000 1.0
C      1  0.4452520000000  0.5148420000000  0.4427460000000 1.0
C      1  0.4485790000000  0.4633300000000  0.4574780000000 1.0
C      1  0.5013260000000  0.4291770000000  0.4961340000000 1.0
C      1  0.4843970000000  0.5505970000000  0.4495250000000 1.0
END
