TITL C-40132-9316-5 4.16497457530537 125000 -508.799520280259 0 0 74 (C1) n - 1
REM
REM in /rds/project/t2_vol4/rds-t2-cs072/BORA/CARBON/from-Arr/AIRSS/Generating-Clusters/GAP-ML-2020/Only-C1/SD-CG/HFTN-CG
REM
REM
REM
REM
REM
REM ./C.cell (11c1c37f851c82e70ff6c80c92926a4b)
REM AIRSS Version 0.9.1 bugfix July 2018 build 013d7b7c2542+ Fri, 06 Jul 2018 19:26:36 +0100
REM compiler GCC version 9.3.0
REM options -cpp -mtune=generic -march=x86-64 -g -O0
REM seed 22854250 -1720028862 421753454 -728639459 952300764 -1826934593 1704585748 500455089 1195333556 -1244409998 -1486621675 837346248 1171405262 635831176 -1414039543 1870317704 -2096340763 -1321914721 57567216 772684863 2069950885 338258203 -974445748 -597754214 1808456376 -880437706 -452056935 -456045998 -883868642 1675576813 -349127177 447568989 -451180214
REM
CELL 1.54180   50.00000   50.00000   50.00000   90.00000   90.00000   90.00000
LATT -1
SFAC C  
C      1  0.5629360000000  0.5133870000000  0.5375260000000 1.0
C      1  0.5420320000000  0.5221320000000  0.5584860000000 1.0
C      1  0.4642570000000  0.5519330000000  0.5287050000000 1.0
C      1  0.5162870000000  0.5094950000000  0.5618460000000 1.0
C      1  0.5061660000000  0.4743540000000  0.5264400000000 1.0
C      1  0.5051320000000  0.5451450000000  0.4348900000000 1.0
C      1  0.4980580000000  0.4993360000000  0.4264270000000 1.0
C      1  0.4408690000000  0.5201260000000  0.4682190000000 1.0
C      1  0.4791920000000  0.4371450000000  0.4788280000000 1.0
C      1  0.4872630000000  0.4726430000000  0.5709770000000 1.0
C      1  0.5121330000000  0.4801910000000  0.5570360000000 1.0
C      1  0.4472510000000  0.4671400000000  0.5480950000000 1.0
C      1  0.5271060000000  0.5589300000000  0.4471860000000 1.0
C      1  0.4851040000000  0.4864520000000  0.4876510000000 1.0
C      1  0.5628340000000  0.4747880000000  0.4631720000000 1.0
C      1  0.4322740000000  0.5215470000000  0.5193550000000 1.0
C      1  0.4260900000000  0.4953250000000  0.5113020000000 1.0
C      1  0.4635470000000  0.4873680000000  0.5623850000000 1.0
C      1  0.4899440000000  0.5149040000000  0.4827520000000 1.0
C      1  0.5465690000000  0.5679690000000  0.4915090000000 1.0
C      1  0.4622260000000  0.4421010000000  0.5511170000000 1.0
C      1  0.5179530000000  0.4655000000000  0.4540960000000 1.0
C      1  0.4517490000000  0.5027370000000  0.4451950000000 1.0
C      1  0.5300140000000  0.4396540000000  0.5346250000000 1.0
C      1  0.5067680000000  0.4353900000000  0.4935240000000 1.0
C      1  0.4391350000000  0.4526390000000  0.5010690000000 1.0
C      1  0.5190110000000  0.5189350000000  0.4376500000000 1.0
C      1  0.4289000000000  0.4947720000000  0.4829190000000 1.0
C      1  0.4748310000000  0.4325810000000  0.5273020000000 1.0
C      1  0.4729520000000  0.5136150000000  0.4302740000000 1.0
C      1  0.4376800000000  0.4682680000000  0.4758040000000 1.0
C      1  0.5661090000000  0.4848330000000  0.5356100000000 1.0
C      1  0.5264010000000  0.5137130000000  0.5104140000000 1.0
C      1  0.4933540000000  0.5263440000000  0.5568340000000 1.0
C      1  0.5543140000000  0.4719190000000  0.5126460000000 1.0
C      1  0.5473000000000  0.4436770000000  0.5123400000000 1.0
C      1  0.5444610000000  0.5495660000000  0.5614170000000 1.0
C      1  0.4720240000000  0.5638930000000  0.4803430000000 1.0
C      1  0.4554580000000  0.5568630000000  0.5018870000000 1.0
C      1  0.5355580000000  0.5712880000000  0.5176840000000 1.0
C      1  0.4534780000000  0.4742750000000  0.4484580000000 1.0
C      1  0.5348950000000  0.5227970000000  0.4845520000000 1.0
C      1  0.5241320000000  0.5700440000000  0.4728470000000 1.0
C      1  0.4996430000000  0.4716690000000  0.4327230000000 1.0
C      1  0.4745760000000  0.4324970000000  0.4508700000000 1.0
C      1  0.5684860000000  0.4994090000000  0.4620090000000 1.0
C      1  0.5277140000000  0.4844650000000  0.5062270000000 1.0
C      1  0.5522830000000  0.5574300000000  0.5361520000000 1.0
C      1  0.4677020000000  0.4665660000000  0.4750210000000 1.0
C      1  0.5641160000000  0.5450490000000  0.4920960000000 1.0
C      1  0.5423320000000  0.4553600000000  0.4640230000000 1.0
C      1  0.5603790000000  0.4679670000000  0.5576370000000 1.0
C      1  0.5344910000000  0.4387650000000  0.4871240000000 1.0
C      1  0.5076440000000  0.5662210000000  0.5161370000000 1.0
C      1  0.4741010000000  0.4572770000000  0.4358490000000 1.0
C      1  0.5138500000000  0.4830500000000  0.4782680000000 1.0
C      1  0.4976430000000  0.5195820000000  0.5116930000000 1.0
C      1  0.4604550000000  0.4334570000000  0.5032510000000 1.0
C      1  0.5451480000000  0.5369650000000  0.4444090000000 1.0
C      1  0.4820410000000  0.4457720000000  0.5707080000000 1.0
C      1  0.4377410000000  0.5358170000000  0.4949670000000 1.0
C      1  0.4852350000000  0.4912320000000  0.5164910000000 1.0
C      1  0.4617650000000  0.5469610000000  0.4592160000000 1.0
C      1  0.4774660000000  0.5410960000000  0.4367380000000 1.0
C      1  0.4333960000000  0.4702320000000  0.5230140000000 1.0
C      1  0.4664040000000  0.5154530000000  0.5583820000000 1.0
C      1  0.5666900000000  0.5372620000000  0.5209060000000 1.0
C      1  0.5029530000000  0.4419010000000  0.5221860000000 1.0
C      1  0.4496160000000  0.5306160000000  0.5403050000000 1.0
C      1  0.5609330000000  0.5267740000000  0.4673640000000 1.0
C      1  0.4993690000000  0.5695800000000  0.4882450000000 1.0
C      1  0.5345900000000  0.4586590000000  0.5566210000000 1.0
C      1  0.4924250000000  0.5455610000000  0.5319140000000 1.0
C      1  0.5150610000000  0.5116410000000  0.4680570000000 1.0
END
