TITL C-40145-9424-3 -80.1857302322814 125000 -597.85472497579 0 0 85 (C1) n - 1
REM
REM in /rds/project/t2_vol4/rds-t2-cs072/BORA/CARBON/from-Arr/AIRSS/Generating-Clusters/GAP-ML-2020/Only-C1/SD-CG/HFTN-CG
REM
REM
REM
REM
REM
REM ./C.cell (11c1c37f851c82e70ff6c80c92926a4b)
REM AIRSS Version 0.9.1 bugfix July 2018 build 013d7b7c2542+ Fri, 06 Jul 2018 19:26:36 +0100
REM compiler GCC version 9.3.0
REM options -cpp -mtune=generic -march=x86-64 -g -O0
REM seed -1861913265 435617786 -2031731842 -978119151 -11170940 -233985082 -1862076214 950055276 2121039478 1956491583 1452751592 -1592614348 1327738675 1307877240 1877320267 -1116507476 -1503697296 1131098732 -1687768328 266105828 1736050034 925941801 -1034674155 -1405613505 1179740301 -735175655 1468086028 -940107398 -230386731 -2118326904 383257610 -224458384 -1663162989
REM
CELL 1.54180   50.00000   50.00000   50.00000   90.00000   90.00000   90.00000
LATT -1
SFAC C  
C      1  0.5181930000000  0.5048080000000  0.5147850000000 1.0
C      1  0.4579480000000  0.5055990000000  0.4363330000000 1.0
C      1  0.4610060000000  0.4481340000000  0.4711430000000 1.0
C      1  0.4619700000000  0.4989390000000  0.4932900000000 1.0
C      1  0.4746450000000  0.5683070000000  0.4712760000000 1.0
C      1  0.4741830000000  0.4552330000000  0.4460830000000 1.0
C      1  0.5860760000000  0.4583250000000  0.5170900000000 1.0
C      1  0.5854170000000  0.4839960000000  0.5228890000000 1.0
C      1  0.4542570000000  0.5185660000000  0.5500260000000 1.0
C      1  0.4621720000000  0.5508360000000  0.4514390000000 1.0
C      1  0.4346000000000  0.5515120000000  0.4880960000000 1.0
C      1  0.5251370000000  0.4220410000000  0.5002790000000 1.0
C      1  0.4725670000000  0.4643430000000  0.5692990000000 1.0
C      1  0.4334400000000  0.5070220000000  0.4529300000000 1.0
C      1  0.4162980000000  0.5284330000000  0.4479370000000 1.0
C      1  0.5138430000000  0.4769150000000  0.5025530000000 1.0
C      1  0.5617090000000  0.4999060000000  0.5365970000000 1.0
C      1  0.4435200000000  0.4475710000000  0.5380800000000 1.0
C      1  0.5397450000000  0.4643500000000  0.5125200000000 1.0
C      1  0.5520650000000  0.5322720000000  0.4355110000000 1.0
C      1  0.4283900000000  0.5334840000000  0.5092000000000 1.0
C      1  0.5402130000000  0.4911600000000  0.5791220000000 1.0
C      1  0.5017350000000  0.4490760000000  0.4398990000000 1.0
C      1  0.5132310000000  0.5706630000000  0.5352600000000 1.0
C      1  0.5361890000000  0.4582440000000  0.5414900000000 1.0
C      1  0.4747200000000  0.5292920000000  0.4371280000000 1.0
C      1  0.4458760000000  0.4673960000000  0.5585430000000 1.0
C      1  0.4891320000000  0.4641720000000  0.5073870000000 1.0
C      1  0.5432540000000  0.4494140000000  0.4660770000000 1.0
C      1  0.5419990000000  0.5568850000000  0.4466300000000 1.0
C      1  0.4818090000000  0.4224530000000  0.5164010000000 1.0
C      1  0.5760410000000  0.5245840000000  0.4468420000000 1.0
C      1  0.5497030000000  0.5640460000000  0.4730770000000 1.0
C      1  0.4918640000000  0.4833320000000  0.4127380000000 1.0
C      1  0.4247480000000  0.4883800000000  0.5247700000000 1.0
C      1  0.5642720000000  0.5456810000000  0.4893480000000 1.0
C      1  0.5031520000000  0.5714440000000  0.4684240000000 1.0
C      1  0.4867310000000  0.4422170000000  0.5570640000000 1.0
C      1  0.5537260000000  0.5473890000000  0.5163890000000 1.0
C      1  0.5101130000000  0.4224450000000  0.5237160000000 1.0
C      1  0.4810030000000  0.4358160000000  0.4895950000000 1.0
C      1  0.5139970000000  0.5561910000000  0.4465480000000 1.0
C      1  0.4667300000000  0.4801000000000  0.5146210000000 1.0
C      1  0.4387510000000  0.4638370000000  0.5142370000000 1.0
C      1  0.4572520000000  0.5670560000000  0.4948070000000 1.0
C      1  0.4444370000000  0.5402680000000  0.5320250000000 1.0
C      1  0.5367240000000  0.5348050000000  0.5605310000000 1.0
C      1  0.5593190000000  0.4872120000000  0.5089210000000 1.0
C      1  0.5316950000000  0.5674320000000  0.5144310000000 1.0
C      1  0.4933700000000  0.5157290000000  0.5193950000000 1.0
C      1  0.4699060000000  0.4802650000000  0.4299110000000 1.0
C      1  0.5178730000000  0.5550440000000  0.5589200000000 1.0
C      1  0.5723660000000  0.5219740000000  0.4738980000000 1.0
C      1  0.5263070000000  0.5736020000000  0.4867780000000 1.0
C      1  0.5471860000000  0.4805570000000  0.5554080000000 1.0
C      1  0.4389910000000  0.4628970000000  0.4843220000000 1.0
C      1  0.5046400000000  0.5280460000000  0.4426730000000 1.0
C      1  0.4350600000000  0.4927260000000  0.4793350000000 1.0
C      1  0.4830430000000  0.5170800000000  0.4923110000000 1.0
C      1  0.5289940000000  0.5156940000000  0.4896740000000 1.0
C      1  0.4761000000000  0.5295950000000  0.5696900000000 1.0
C      1  0.5541290000000  0.4999350000000  0.4827360000000 1.0
C      1  0.5147150000000  0.4395840000000  0.5461260000000 1.0
C      1  0.5337500000000  0.4866560000000  0.4339500000000 1.0
C      1  0.4761000000000  0.4993060000000  0.5367650000000 1.0
C      1  0.5065610000000  0.4245310000000  0.4790870000000 1.0
C      1  0.4837870000000  0.5685830000000  0.5395620000000 1.0
C      1  0.4611370000000  0.5630100000000  0.5239460000000 1.0
C      1  0.5417510000000  0.4786840000000  0.4616880000000 1.0
C      1  0.5126820000000  0.4836330000000  0.4735440000000 1.0
C      1  0.5550950000000  0.5290980000000  0.5386010000000 1.0
C      1  0.5132060000000  0.4702590000000  0.4240350000000 1.0
C      1  0.4885420000000  0.5530740000000  0.5636340000000 1.0
C      1  0.5249940000000  0.5138760000000  0.5768380000000 1.0
C      1  0.4962890000000  0.5104610000000  0.5772540000000 1.0
C      1  0.4359040000000  0.4938060000000  0.5503360000000 1.0
C      1  0.5488140000000  0.4403470000000  0.4947080000000 1.0
C      1  0.4230610000000  0.5061130000000  0.5035550000000 1.0
C      1  0.5194470000000  0.4363250000000  0.4569920000000 1.0
C      1  0.4863880000000  0.4878620000000  0.5637710000000 1.0
C      1  0.4353530000000  0.5442250000000  0.4605380000000 1.0
C      1  0.5296550000000  0.5150110000000  0.4302110000000 1.0
C      1  0.4675220000000  0.4313400000000  0.5387840000000 1.0
C      1  0.5768160000000  0.4370940000000  0.5048770000000 1.0
C      1  0.5048720000000  0.5123960000000  0.4727710000000 1.0
END
