TITL C-40126-9385-13 -45.1232322118426 125000 -337.395133330183 0 0 50 (C1) n - 1
REM
REM in /rds/project/t2_vol4/rds-t2-cs072/BORA/CARBON/from-Arr/AIRSS/Generating-Clusters/GAP-ML-2020/Only-C1/SD-CG/HFTN-CG
REM
REM
REM
REM
REM
REM ./C.cell (11c1c37f851c82e70ff6c80c92926a4b)
REM AIRSS Version 0.9.1 bugfix July 2018 build 013d7b7c2542+ Fri, 06 Jul 2018 19:26:36 +0100
REM compiler GCC version 9.3.0
REM options -cpp -mtune=generic -march=x86-64 -g -O0
REM seed -1290661885 1342947037 1044945941 1891982500 -1014701675 -651786980 -829818218 -1904539028 -2117095885 -2068003517 1460735841 496028281 -1205010529 1374276828 -2043565835 289338497 -452180132 -1175608332 1154826038 233849050 316474041 -801180044 -719911303 -1965078099 -1495292816 400405920 873555602 -562778194 754570847 -854311099 1206086179 1327001127 246811470
REM
CELL 1.54180   50.00000   50.00000   50.00000   90.00000   90.00000   90.00000
LATT -1
SFAC C  
C      1  0.4618530000000  0.4996720000000  0.5356800000000 1.0
C      1  0.4895940000000  0.4836000000000  0.5692860000000 1.0
C      1  0.5063750000000  0.4390000000000  0.4792920000000 1.0
C      1  0.4731010000000  0.5283050000000  0.5352390000000 1.0
C      1  0.5159880000000  0.5484440000000  0.5442160000000 1.0
C      1  0.5550030000000  0.4877320000000  0.5369980000000 1.0
C      1  0.4565280000000  0.4719520000000  0.4556950000000 1.0
C      1  0.4974380000000  0.5221120000000  0.5136440000000 1.0
C      1  0.5011690000000  0.4789930000000  0.4362340000000 1.0
C      1  0.4988360000000  0.4385130000000  0.5373620000000 1.0
C      1  0.5109830000000  0.4995490000000  0.5243520000000 1.0
C      1  0.4640710000000  0.5479840000000  0.5155500000000 1.0
C      1  0.4748320000000  0.5373840000000  0.4709080000000 1.0
C      1  0.4848040000000  0.4675300000000  0.5050200000000 1.0
C      1  0.4814420000000  0.4611910000000  0.4433260000000 1.0
C      1  0.4855570000000  0.5127730000000  0.4897660000000 1.0
C      1  0.5076550000000  0.5064090000000  0.5632610000000 1.0
C      1  0.4567090000000  0.4634030000000  0.5019050000000 1.0
C      1  0.5051360000000  0.4463770000000  0.5093340000000 1.0
C      1  0.4927610000000  0.5580950000000  0.4793830000000 1.0
C      1  0.5459860000000  0.4734410000000  0.4637880000000 1.0
C      1  0.5215770000000  0.5134370000000  0.4459560000000 1.0
C      1  0.5427190000000  0.5134660000000  0.4891840000000 1.0
C      1  0.4959160000000  0.4865330000000  0.4829620000000 1.0
C      1  0.4920610000000  0.4605990000000  0.5508930000000 1.0
C      1  0.5208050000000  0.5534570000000  0.4769300000000 1.0
C      1  0.4717690000000  0.5181420000000  0.4490840000000 1.0
C      1  0.5326940000000  0.5044250000000  0.5451030000000 1.0
C      1  0.4576660000000  0.4523360000000  0.4767310000000 1.0
C      1  0.4477040000000  0.5073310000000  0.4893480000000 1.0
C      1  0.5385970000000  0.5320210000000  0.5379640000000 1.0
C      1  0.4466340000000  0.4895620000000  0.5109610000000 1.0
C      1  0.4945530000000  0.5076150000000  0.4368780000000 1.0
C      1  0.4540490000000  0.5351530000000  0.4918780000000 1.0
C      1  0.5320770000000  0.5585860000000  0.5025340000000 1.0
C      1  0.5569580000000  0.4757340000000  0.5129140000000 1.0
C      1  0.5588010000000  0.4897330000000  0.4853600000000 1.0
C      1  0.4879920000000  0.4826530000000  0.5290510000000 1.0
C      1  0.4955810000000  0.5318680000000  0.5556680000000 1.0
C      1  0.4538900000000  0.4985130000000  0.4612790000000 1.0
C      1  0.4831560000000  0.4417370000000  0.4646200000000 1.0
C      1  0.4623090000000  0.4905470000000  0.5635380000000 1.0
C      1  0.5210220000000  0.4917830000000  0.4981410000000 1.0
C      1  0.5108180000000  0.5653790000000  0.5220000000000 1.0
C      1  0.5451470000000  0.5348130000000  0.5104360000000 1.0
C      1  0.5282670000000  0.4851540000000  0.4460000000000 1.0
C      1  0.5312940000000  0.5290700000000  0.4663410000000 1.0
C      1  0.5320010000000  0.4615520000000  0.5041950000000 1.0
C      1  0.5315440000000  0.4522240000000  0.4766380000000 1.0
C      1  0.4865770000000  0.5641170000000  0.5071760000000 1.0
END
