TITL C-40135-9468-1 0.0430831213407947 125000 -608.930372133962 0 0 86 (C1) n - 1
REM
REM in /rds/project/t2_vol4/rds-t2-cs072/BORA/CARBON/from-Arr/AIRSS/Generating-Clusters/GAP-ML-2020/Only-C1/SD-CG/HFTN-CG
REM
REM
REM
REM
REM
REM ./C.cell (11c1c37f851c82e70ff6c80c92926a4b)
REM AIRSS Version 0.9.1 bugfix July 2018 build 013d7b7c2542+ Fri, 06 Jul 2018 19:26:36 +0100
REM compiler GCC version 9.3.0
REM options -cpp -mtune=generic -march=x86-64 -g -O0
REM seed -1837749636 -1972804191 1330343248 -718720370 -755675634 -2134623563 812690226 -497088360 -436006878 -425176750 964598708 635279758 -246298735 1792874179 -846150991 646707095 -899752665 -1527725451 -1715790512 270352450 -320086807 418406772 -1644171097 -1775710146 -1762321102 2147209546 -1520665693 640717548 1049838134 -64686408 296783564 727103930 868687296
REM
CELL 1.54180   50.00000   50.00000   50.00000   90.00000   90.00000   90.00000
LATT -1
SFAC C  
C      1  0.4656760000000  0.4767430000000  0.4988550000000 1.0
C      1  0.4582330000000  0.5750310000000  0.5251390000000 1.0
C      1  0.4712850000000  0.4232610000000  0.5017510000000 1.0
C      1  0.5575830000000  0.4691650000000  0.5432280000000 1.0
C      1  0.5756290000000  0.4632050000000  0.4998280000000 1.0
C      1  0.5114630000000  0.4769450000000  0.4986930000000 1.0
C      1  0.5426320000000  0.5104480000000  0.5682940000000 1.0
C      1  0.4175820000000  0.4885300000000  0.4880950000000 1.0
C      1  0.4608370000000  0.4429370000000  0.4573660000000 1.0
C      1  0.4476630000000  0.4685250000000  0.4543850000000 1.0
C      1  0.5407580000000  0.5714650000000  0.5111420000000 1.0
C      1  0.5743620000000  0.4805220000000  0.5224990000000 1.0
C      1  0.5280170000000  0.5752520000000  0.5369520000000 1.0
C      1  0.4413620000000  0.5222170000000  0.5082920000000 1.0
C      1  0.5081410000000  0.4815360000000  0.4721000000000 1.0
C      1  0.4623350000000  0.4767250000000  0.5567720000000 1.0
C      1  0.4961470000000  0.5718110000000  0.4970420000000 1.0
C      1  0.4975230000000  0.4178570000000  0.4912060000000 1.0
C      1  0.5270300000000  0.4374280000000  0.4515790000000 1.0
C      1  0.5403180000000  0.4830330000000  0.5617910000000 1.0
C      1  0.4326350000000  0.5042660000000  0.5285450000000 1.0
C      1  0.5045330000000  0.5474820000000  0.4519830000000 1.0
C      1  0.5354290000000  0.4904710000000  0.4230770000000 1.0
C      1  0.5786170000000  0.5070810000000  0.4826240000000 1.0
C      1  0.4241420000000  0.4656010000000  0.4739250000000 1.0
C      1  0.4821320000000  0.5320250000000  0.5751350000000 1.0
C      1  0.4199890000000  0.4827870000000  0.5160750000000 1.0
C      1  0.5149130000000  0.5186380000000  0.5186440000000 1.0
C      1  0.4379910000000  0.5265590000000  0.4550810000000 1.0
C      1  0.5644560000000  0.4709460000000  0.4552670000000 1.0
C      1  0.5101840000000  0.5435240000000  0.5734900000000 1.0
C      1  0.5319540000000  0.5541270000000  0.5561060000000 1.0
C      1  0.4853830000000  0.4953540000000  0.4321830000000 1.0
C      1  0.5508200000000  0.4465750000000  0.4636000000000 1.0
C      1  0.5423750000000  0.4307750000000  0.5132210000000 1.0
C      1  0.4883830000000  0.4805370000000  0.5707060000000 1.0
C      1  0.5443150000000  0.4445240000000  0.5381290000000 1.0
C      1  0.5053870000000  0.5921810000000  0.5377320000000 1.0
C      1  0.5685090000000  0.5322230000000  0.5277800000000 1.0
C      1  0.4556140000000  0.4849910000000  0.4319530000000 1.0
C      1  0.4935550000000  0.5058510000000  0.5820790000000 1.0
C      1  0.4860670000000  0.4379090000000  0.4471470000000 1.0
C      1  0.5198380000000  0.5248660000000  0.4921150000000 1.0
C      1  0.4968270000000  0.5292750000000  0.4744880000000 1.0
C      1  0.5195580000000  0.5179050000000  0.5823660000000 1.0
C      1  0.4585240000000  0.5490210000000  0.5363950000000 1.0
C      1  0.4610230000000  0.4908300000000  0.4745480000000 1.0
C      1  0.5187950000000  0.4441060000000  0.5516830000000 1.0
C      1  0.5101800000000  0.4794850000000  0.4232190000000 1.0
C      1  0.5233800000000  0.5721480000000  0.4883390000000 1.0
C      1  0.5281050000000  0.4990160000000  0.5005270000000 1.0
C      1  0.5771850000000  0.5085980000000  0.5130470000000 1.0
C      1  0.5558800000000  0.4951580000000  0.4408860000000 1.0
C      1  0.4445290000000  0.5779490000000  0.5009270000000 1.0
C      1  0.5003800000000  0.4286670000000  0.5360610000000 1.0
C      1  0.5282960000000  0.5599200000000  0.4622480000000 1.0
C      1  0.5047480000000  0.4237830000000  0.4644820000000 1.0
C      1  0.4737070000000  0.5221710000000  0.4245530000000 1.0
C      1  0.5699640000000  0.5527520000000  0.4833290000000 1.0
C      1  0.5793770000000  0.4794030000000  0.4772300000000 1.0
C      1  0.4539390000000  0.4531350000000  0.5397210000000 1.0
C      1  0.4884330000000  0.5118400000000  0.5222290000000 1.0
C      1  0.4589100000000  0.5310660000000  0.5590320000000 1.0
C      1  0.4548720000000  0.5641600000000  0.4800770000000 1.0
C      1  0.4530310000000  0.5513940000000  0.4552930000000 1.0
C      1  0.4723070000000  0.4326090000000  0.5293290000000 1.0
C      1  0.4683340000000  0.5326920000000  0.5143230000000 1.0
C      1  0.4312440000000  0.4563770000000  0.5209060000000 1.0
C      1  0.5155290000000  0.4204000000000  0.5129320000000 1.0
C      1  0.5520430000000  0.5332320000000  0.5520270000000 1.0
C      1  0.5578380000000  0.4421200000000  0.4919890000000 1.0
C      1  0.4473560000000  0.5123900000000  0.4317120000000 1.0
C      1  0.5147490000000  0.4686310000000  0.5653950000000 1.0
C      1  0.4359550000000  0.5108260000000  0.4809000000000 1.0
C      1  0.5546120000000  0.5459570000000  0.4617490000000 1.0
C      1  0.4872490000000  0.4845530000000  0.5124700000000 1.0
C      1  0.4304550000000  0.4456510000000  0.4933080000000 1.0
C      1  0.4793550000000  0.5470320000000  0.4382810000000 1.0
C      1  0.5081820000000  0.4524330000000  0.4342550000000 1.0
C      1  0.4861640000000  0.5848450000000  0.5205030000000 1.0
C      1  0.5635110000000  0.5545410000000  0.5095810000000 1.0
C      1  0.5647880000000  0.5183870000000  0.4584640000000 1.0
C      1  0.4877650000000  0.5004020000000  0.4634980000000 1.0
C      1  0.4524010000000  0.4316930000000  0.4829340000000 1.0
C      1  0.4492170000000  0.5029230000000  0.5517220000000 1.0
C      1  0.4795030000000  0.5485970000000  0.4914320000000 1.0
END
