TITL C-40137-9602-10 0.0473528364986928 125000 -208.273556810935 0 0 32 (C1) n - 1
REM
REM in /rds/project/t2_vol4/rds-t2-cs072/BORA/CARBON/from-Arr/AIRSS/Generating-Clusters/GAP-ML-2020/Only-C1/SD-CG/HFTN-CG
REM
REM
REM
REM
REM
REM ./C.cell (11c1c37f851c82e70ff6c80c92926a4b)
REM AIRSS Version 0.9.1 bugfix July 2018 build 013d7b7c2542+ Fri, 06 Jul 2018 19:26:36 +0100
REM compiler GCC version 9.3.0
REM options -cpp -mtune=generic -march=x86-64 -g -O0
REM seed 595928019 480408759 386244100 -1861652764 201906345 1513389690 -1151377674 -85903605 -463679471 -744533379 -1110681428 1324111061 963284963 -303837123 -2098252689 1494059499 1129283861 1651318375 -1829968687 -124684103 2137578004 1227378765 1982061806 -2014383590 -1953351059 417976620 990228415 214203926 1976196530 -472759892 130629611 1267072607 801653118
REM
CELL 1.54180   50.00000   50.00000   50.00000   90.00000   90.00000   90.00000
LATT -1
SFAC C  
C      1  0.5082250000000  0.5612390000000  0.4728650000000 1.0
C      1  0.4727510000000  0.5420640000000  0.4731680000000 1.0
C      1  0.5481580000000  0.4688480000000  0.4986950000000 1.0
C      1  0.5560760000000  0.4894820000000  0.4486140000000 1.0
C      1  0.5318150000000  0.5002790000000  0.4561270000000 1.0
C      1  0.4508840000000  0.5044710000000  0.4972390000000 1.0
C      1  0.4605380000000  0.4777700000000  0.4997720000000 1.0
C      1  0.5056650000000  0.5110410000000  0.4555930000000 1.0
C      1  0.5216230000000  0.5300520000000  0.5189210000000 1.0
C      1  0.5137960000000  0.5540620000000  0.5283570000000 1.0
C      1  0.5010300000000  0.4444590000000  0.4941720000000 1.0
C      1  0.5353080000000  0.4664440000000  0.5452500000000 1.0
C      1  0.4808650000000  0.4973410000000  0.4630810000000 1.0
C      1  0.4620140000000  0.5161970000000  0.4738080000000 1.0
C      1  0.5058200000000  0.4923410000000  0.5177050000000 1.0
C      1  0.5281580000000  0.4490860000000  0.5034420000000 1.0
C      1  0.5192380000000  0.4501130000000  0.5320080000000 1.0
C      1  0.4854870000000  0.4453110000000  0.4717810000000 1.0
C      1  0.4839150000000  0.4909390000000  0.5377120000000 1.0
C      1  0.5495070000000  0.4824390000000  0.4742450000000 1.0
C      1  0.4511300000000  0.5214230000000  0.5195160000000 1.0
C      1  0.4917270000000  0.4472900000000  0.5223750000000 1.0
C      1  0.4723250000000  0.4678950000000  0.5249610000000 1.0
C      1  0.4698570000000  0.5145990000000  0.5412560000000 1.0
C      1  0.4980860000000  0.5173550000000  0.5045010000000 1.0
C      1  0.4842940000000  0.5612930000000  0.4904780000000 1.0
C      1  0.4996710000000  0.5391950000000  0.4593700000000 1.0
C      1  0.5311820000000  0.5036920000000  0.5254950000000 1.0
C      1  0.5507390000000  0.4836870000000  0.5261140000000 1.0
C      1  0.4870280000000  0.5578350000000  0.5182260000000 1.0
C      1  0.4679390000000  0.5404940000000  0.5299910000000 1.0
C      1  0.4751490000000  0.4712620000000  0.4751630000000 1.0
END
