TITL C-40146-9397-9 -20.2155891367666 125000 -121.521202996546 0 0 20 (C1) n - 1
REM
REM in /rds/project/t2_vol4/rds-t2-cs072/BORA/CARBON/from-Arr/AIRSS/Generating-Clusters/GAP-ML-2020/Only-C1/SD-CG/HFTN-CG
REM
REM
REM
REM
REM
REM ./C.cell (11c1c37f851c82e70ff6c80c92926a4b)
REM AIRSS Version 0.9.1 bugfix July 2018 build 013d7b7c2542+ Fri, 06 Jul 2018 19:26:36 +0100
REM compiler GCC version 9.3.0
REM options -cpp -mtune=generic -march=x86-64 -g -O0
REM seed 1746048014 1017466735 -1808370506 -446391163 -2066930989 1844992095 -1212909837 -372091929 -898904359 -1424325599 -1378008646 445796029 -1663892234 -435999168 1554416254 2140455180 621195034 2103518869 198158816 1416910654 1660614152 1542268188 16705471 -1260824499 -504846013 1162378233 -912891342 78694038 -1488605622 -1789342018 -981966045 -720339661 -680968254
REM
CELL 1.54180   50.00000   50.00000   50.00000   90.00000   90.00000   90.00000
LATT -1
SFAC C  
C      1  0.5293980000000  0.4605920000000  0.4919750000000 1.0
C      1  0.5031670000000  0.4891510000000  0.4770890000000 1.0
C      1  0.4958100000000  0.4981590000000  0.5215970000000 1.0
C      1  0.4543890000000  0.4869890000000  0.5064650000000 1.0
C      1  0.4511230000000  0.5027970000000  0.4695120000000 1.0
C      1  0.4409850000000  0.4788510000000  0.4836930000000 1.0
C      1  0.5053640000000  0.5368140000000  0.4814010000000 1.0
C      1  0.5193110000000  0.5011860000000  0.5399130000000 1.0
C      1  0.5009400000000  0.5285940000000  0.4561180000000 1.0
C      1  0.4820970000000  0.4509000000000  0.5056350000000 1.0
C      1  0.5320380000000  0.4875410000000  0.4760890000000 1.0
C      1  0.5447410000000  0.4953980000000  0.5265250000000 1.0
C      1  0.5385480000000  0.4859150000000  0.5026180000000 1.0
C      1  0.4931590000000  0.5102050000000  0.4953300000000 1.0
C      1  0.5134850000000  0.5072470000000  0.5652100000000 1.0
C      1  0.4770480000000  0.4755510000000  0.5185750000000 1.0
C      1  0.5336040000000  0.5738590000000  0.5063630000000 1.0
C      1  0.5194260000000  0.5575600000000  0.4929670000000 1.0
C      1  0.5015580000000  0.4620080000000  0.4905850000000 1.0
C      1  0.4638080000000  0.5106810000000  0.4923410000000 1.0
END
