TITL C-40128-9411-9 -5.28487681825382 125000 -342.068908074771 0 0 51 (C1) n - 1
REM
REM in /rds/project/t2_vol4/rds-t2-cs072/BORA/CARBON/from-Arr/AIRSS/Generating-Clusters/GAP-ML-2020/Only-C1/SD-CG/HFTN-CG
REM
REM
REM
REM
REM
REM ./C.cell (11c1c37f851c82e70ff6c80c92926a4b)
REM AIRSS Version 0.9.1 bugfix July 2018 build 013d7b7c2542+ Fri, 06 Jul 2018 19:26:36 +0100
REM compiler GCC version 9.3.0
REM options -cpp -mtune=generic -march=x86-64 -g -O0
REM seed 1456242524 2021813756 235531830 1444047072 2073660176 1322790963 944148745 -484864641 -1058858250 2034708475 -2014806440 2026790222 -2113753432 1589513963 1695156712 859692475 1287960438 2072631111 893518650 -2001033229 267327971 -1353515591 818770379 1259459659 1762737711 -1782025417 -1074121818 649741353 1255704028 -1071034478 -1845938477 -1071242858 -1134417109
REM
CELL 1.54180   50.00000   50.00000   50.00000   90.00000   90.00000   90.00000
LATT -1
SFAC C  
C      1  0.4961720000000  0.4491910000000  0.5353520000000 1.0
C      1  0.5121340000000  0.4903210000000  0.4818320000000 1.0
C      1  0.5533150000000  0.5206590000000  0.4952050000000 1.0
C      1  0.5281650000000  0.5152650000000  0.5591820000000 1.0
C      1  0.4652500000000  0.4973500000000  0.4893970000000 1.0
C      1  0.4767820000000  0.5260730000000  0.4545890000000 1.0
C      1  0.4887370000000  0.5102150000000  0.4770970000000 1.0
C      1  0.4478800000000  0.4705150000000  0.5415590000000 1.0
C      1  0.4778720000000  0.4683120000000  0.4520440000000 1.0
C      1  0.5087980000000  0.4387290000000  0.5114810000000 1.0
C      1  0.4954070000000  0.4876540000000  0.4358110000000 1.0
C      1  0.5592140000000  0.4483000000000  0.4959380000000 1.0
C      1  0.4858250000000  0.4920910000000  0.5670720000000 1.0
C      1  0.4318340000000  0.4839130000000  0.5240500000000 1.0
C      1  0.5010540000000  0.5273310000000  0.4963950000000 1.0
C      1  0.4780110000000  0.4850620000000  0.5130240000000 1.0
C      1  0.4821590000000  0.5744040000000  0.4610730000000 1.0
C      1  0.4662930000000  0.4506540000000  0.4962290000000 1.0
C      1  0.5017450000000  0.5586310000000  0.5035100000000 1.0
C      1  0.4693080000000  0.5500980000000  0.4664640000000 1.0
C      1  0.5426890000000  0.5461240000000  0.4908380000000 1.0
C      1  0.4609190000000  0.4717570000000  0.4751170000000 1.0
C      1  0.5065970000000  0.4871690000000  0.5102340000000 1.0
C      1  0.4753940000000  0.5518910000000  0.5143740000000 1.0
C      1  0.5030190000000  0.5143990000000  0.5218730000000 1.0
C      1  0.5389420000000  0.5028980000000  0.4501530000000 1.0
C      1  0.5126250000000  0.4917310000000  0.5630880000000 1.0
C      1  0.4949390000000  0.4466130000000  0.4614540000000 1.0
C      1  0.5296940000000  0.5281730000000  0.5341950000000 1.0
C      1  0.5515770000000  0.5123700000000  0.5225280000000 1.0
C      1  0.5568360000000  0.4758970000000  0.4948240000000 1.0
C      1  0.4781660000000  0.5305920000000  0.5335320000000 1.0
C      1  0.5542550000000  0.4849330000000  0.5230260000000 1.0
C      1  0.5278060000000  0.5529370000000  0.5152310000000 1.0
C      1  0.5439880000000  0.4980070000000  0.4789440000000 1.0
C      1  0.4550430000000  0.5175680000000  0.5429250000000 1.0
C      1  0.5222640000000  0.4806550000000  0.4396240000000 1.0
C      1  0.4613450000000  0.4934220000000  0.5574900000000 1.0
C      1  0.4352800000000  0.5112470000000  0.5223350000000 1.0
C      1  0.4900240000000  0.4375570000000  0.4889010000000 1.0
C      1  0.4573250000000  0.5447200000000  0.4929350000000 1.0
C      1  0.5266960000000  0.5491400000000  0.4658800000000 1.0
C      1  0.4456650000000  0.5191690000000  0.4965490000000 1.0
C      1  0.4692270000000  0.4585460000000  0.5254760000000 1.0
C      1  0.4965970000000  0.5166860000000  0.4386600000000 1.0
C      1  0.5365190000000  0.4452100000000  0.5123440000000 1.0
C      1  0.5239140000000  0.5266720000000  0.4475040000000 1.0
C      1  0.5037210000000  0.5650340000000  0.4749140000000 1.0
C      1  0.5164230000000  0.4650440000000  0.4624450000000 1.0
C      1  0.5402710000000  0.4636450000000  0.5356280000000 1.0
C      1  0.5162830000000  0.4654260000000  0.5496750000000 1.0
END
