TITL C-40121-9329-9 125.95412733421 125000 -523.267961355563 0 0 77 (C1) n - 1
REM
REM in /rds/project/t2_vol4/rds-t2-cs072/BORA/CARBON/from-Arr/AIRSS/Generating-Clusters/GAP-ML-2020/Only-C1/SD-CG/HFTN-CG
REM
REM
REM
REM
REM
REM ./C.cell (11c1c37f851c82e70ff6c80c92926a4b)
REM AIRSS Version 0.9.1 bugfix July 2018 build 013d7b7c2542+ Fri, 06 Jul 2018 19:26:36 +0100
REM compiler GCC version 9.3.0
REM options -cpp -mtune=generic -march=x86-64 -g -O0
REM seed -668238256 -150361639 -669705758 562497844 208039633 -186267545 203832318 1526544889 574434093 447247774 -1669415021 1412751671 1496549142 -280861942 1442053378 1857909710 -447276757 944666880 -618112392 -466800100 989246724 -1742771720 -1039211349 -1721688655 -669911774 -1760363441 965382947 -1224982257 999249180 1603667661 -1875128157 2118735772 1762024733
REM
CELL 1.54180   50.00000   50.00000   50.00000   90.00000   90.00000   90.00000
LATT -1
SFAC C  
C      1  0.5736920000000  0.5308700000000  0.4940610000000 1.0
C      1  0.5227930000000  0.4594080000000  0.5513830000000 1.0
C      1  0.5036720000000  0.5185940000000  0.5009790000000 1.0
C      1  0.5255660000000  0.5290920000000  0.4841410000000 1.0
C      1  0.5348560000000  0.4900160000000  0.4451530000000 1.0
C      1  0.5443750000000  0.5128360000000  0.5239610000000 1.0
C      1  0.4754890000000  0.5543380000000  0.4519830000000 1.0
C      1  0.5179330000000  0.4965420000000  0.5157670000000 1.0
C      1  0.5115270000000  0.4235880000000  0.5043480000000 1.0
C      1  0.4800220000000  0.4807670000000  0.4811670000000 1.0
C      1  0.4588730000000  0.4613370000000  0.5724730000000 1.0
C      1  0.4374930000000  0.5295930000000  0.5397140000000 1.0
C      1  0.4264580000000  0.5365930000000  0.5103860000000 1.0
C      1  0.4534450000000  0.4776090000000  0.5501380000000 1.0
C      1  0.5496850000000  0.5392270000000  0.4493150000000 1.0
C      1  0.4185960000000  0.5092800000000  0.5004080000000 1.0
C      1  0.4672950000000  0.5087720000000  0.4250500000000 1.0
C      1  0.4650490000000  0.5700410000000  0.4947020000000 1.0
C      1  0.5557700000000  0.4449160000000  0.5110270000000 1.0
C      1  0.5324610000000  0.5599170000000  0.5208410000000 1.0
C      1  0.4464800000000  0.5468390000000  0.4896290000000 1.0
C      1  0.5378730000000  0.5189630000000  0.4322620000000 1.0
C      1  0.4691260000000  0.4696340000000  0.4547690000000 1.0
C      1  0.5006220000000  0.5516950000000  0.5575450000000 1.0
C      1  0.5642720000000  0.5226850000000  0.4678800000000 1.0
C      1  0.5690770000000  0.4921520000000  0.5214950000000 1.0
C      1  0.5495490000000  0.4517310000000  0.5375400000000 1.0
C      1  0.5501420000000  0.4641630000000  0.4553790000000 1.0
C      1  0.4406940000000  0.5007130000000  0.5392850000000 1.0
C      1  0.5697610000000  0.4676830000000  0.5008740000000 1.0
C      1  0.5369280000000  0.4322140000000  0.4940370000000 1.0
C      1  0.4856400000000  0.5273720000000  0.5630190000000 1.0
C      1  0.5690870000000  0.4681890000000  0.4739030000000 1.0
C      1  0.5462340000000  0.5376110000000  0.5052400000000 1.0
C      1  0.5083220000000  0.4818350000000  0.4329910000000 1.0
C      1  0.4748460000000  0.4384140000000  0.5226220000000 1.0
C      1  0.4926640000000  0.4603280000000  0.4418220000000 1.0
C      1  0.4771890000000  0.5639930000000  0.5457910000000 1.0
C      1  0.4464740000000  0.5006890000000  0.5103980000000 1.0
C      1  0.4820670000000  0.5730830000000  0.4726380000000 1.0
C      1  0.5017250000000  0.5464050000000  0.4430100000000 1.0
C      1  0.5116050000000  0.5265100000000  0.4253670000000 1.0
C      1  0.5228490000000  0.5515620000000  0.4631280000000 1.0
C      1  0.5009630000000  0.5031780000000  0.5613310000000 1.0
C      1  0.4455800000000  0.4539650000000  0.4913320000000 1.0
C      1  0.4848290000000  0.5348020000000  0.5155790000000 1.0
C      1  0.5347120000000  0.4418730000000  0.4661860000000 1.0
C      1  0.4494760000000  0.5131610000000  0.4452810000000 1.0
C      1  0.5407750000000  0.4805800000000  0.5643140000000 1.0
C      1  0.4276570000000  0.4720100000000  0.4733730000000 1.0
C      1  0.5263220000000  0.5497850000000  0.5464850000000 1.0
C      1  0.5289860000000  0.5053730000000  0.5682440000000 1.0
C      1  0.5380490000000  0.5036750000000  0.4735350000000 1.0
C      1  0.5114120000000  0.5742650000000  0.5081890000000 1.0
C      1  0.4513610000000  0.5395910000000  0.4589050000000 1.0
C      1  0.5394810000000  0.5247700000000  0.5505910000000 1.0
C      1  0.5057920000000  0.4442600000000  0.4629210000000 1.0
C      1  0.5024150000000  0.4814520000000  0.5382850000000 1.0
C      1  0.5098620000000  0.5728250000000  0.4797400000000 1.0
C      1  0.4633920000000  0.5233060000000  0.4998230000000 1.0
C      1  0.4607510000000  0.4760610000000  0.5036220000000 1.0
C      1  0.4449150000000  0.4842120000000  0.4538380000000 1.0
C      1  0.4087270000000  0.4888950000000  0.4859340000000 1.0
C      1  0.4990000000000  0.4263980000000  0.5298780000000 1.0
C      1  0.4735850000000  0.4681500000000  0.5297520000000 1.0
C      1  0.4807820000000  0.4477070000000  0.5695540000000 1.0
C      1  0.4914070000000  0.4285520000000  0.4831620000000 1.0
C      1  0.4937960000000  0.5042260000000  0.4218080000000 1.0
C      1  0.4835500000000  0.5690020000000  0.5178810000000 1.0
C      1  0.4659270000000  0.4342250000000  0.4951430000000 1.0
C      1  0.5626330000000  0.4760720000000  0.5463490000000 1.0
C      1  0.5857350000000  0.5136610000000  0.5120600000000 1.0
C      1  0.5272440000000  0.4823000000000  0.4931810000000 1.0
C      1  0.5050320000000  0.4668760000000  0.4843400000000 1.0
C      1  0.5038300000000  0.4377280000000  0.5576090000000 1.0
C      1  0.4604200000000  0.5399650000000  0.5522490000000 1.0
C      1  0.4833270000000  0.5092990000000  0.4819020000000 1.0
END
