TITL C-40148-9468-9 0.0279386904730364 125000 -213.712474454794 0 0 33 (C1) n - 1
REM
REM in /rds/project/t2_vol4/rds-t2-cs072/BORA/CARBON/from-Arr/AIRSS/Generating-Clusters/GAP-ML-2020/Only-C1/SD-CG/HFTN-CG
REM
REM
REM
REM
REM
REM ./C.cell (11c1c37f851c82e70ff6c80c92926a4b)
REM AIRSS Version 0.9.1 bugfix July 2018 build 013d7b7c2542+ Fri, 06 Jul 2018 19:26:36 +0100
REM compiler GCC version 9.3.0
REM options -cpp -mtune=generic -march=x86-64 -g -O0
REM seed -488451155 1836261230 121088591 -1305683676 -618637376 886496668 -727313792 1874347588 364472326 -846611418 -432062199 65588240 -1475584119 158383152 -233675850 -1713773148 979696714 -6457267 -1223886235 1068266896 -2036909279 -339140664 -756642683 -1533053182 -2101192942 -11126855 1136720837 493379963 342313291 389054403 -1372548635 1921314697 2040647680
REM
CELL 1.54180   50.00000   50.00000   50.00000   90.00000   90.00000   90.00000
LATT -1
SFAC C  
C      1  0.5055920000000  0.5453800000000  0.4559700000000 1.0
C      1  0.4438980000000  0.5232520000000  0.5224770000000 1.0
C      1  0.5032490000000  0.5155180000000  0.4590710000000 1.0
C      1  0.5305190000000  0.5009740000000  0.4599850000000 1.0
C      1  0.4917630000000  0.4516270000000  0.5128960000000 1.0
C      1  0.5023970000000  0.4664920000000  0.5584530000000 1.0
C      1  0.5102270000000  0.5188320000000  0.4923180000000 1.0
C      1  0.4865690000000  0.5246980000000  0.5399930000000 1.0
C      1  0.4705030000000  0.4883640000000  0.5047570000000 1.0
C      1  0.4670510000000  0.4794670000000  0.4523560000000 1.0
C      1  0.4844860000000  0.5469310000000  0.5215930000000 1.0
C      1  0.4590970000000  0.5331890000000  0.4862220000000 1.0
C      1  0.5064000000000  0.5061800000000  0.5344070000000 1.0
C      1  0.5367080000000  0.4749110000000  0.5253190000000 1.0
C      1  0.4568050000000  0.5474130000000  0.5121950000000 1.0
C      1  0.4499740000000  0.5088940000000  0.4971810000000 1.0
C      1  0.5777220000000  0.4908670000000  0.4882320000000 1.0
C      1  0.4998390000000  0.4964670000000  0.5072860000000 1.0
C      1  0.5386540000000  0.5157300000000  0.4842420000000 1.0
C      1  0.4651800000000  0.4569580000000  0.4675730000000 1.0
C      1  0.5136800000000  0.4692050000000  0.5044890000000 1.0
C      1  0.4608970000000  0.5103500000000  0.5415180000000 1.0
C      1  0.4720260000000  0.4602480000000  0.4930510000000 1.0
C      1  0.5053830000000  0.5615000000000  0.4759190000000 1.0
C      1  0.4799960000000  0.5015010000000  0.4516230000000 1.0
C      1  0.5208290000000  0.4855680000000  0.5471670000000 1.0
C      1  0.5646830000000  0.5129880000000  0.4934800000000 1.0
C      1  0.5578790000000  0.4731760000000  0.4803270000000 1.0
C      1  0.5418510000000  0.4632590000000  0.5013450000000 1.0
C      1  0.5452740000000  0.4784780000000  0.4554900000000 1.0
C      1  0.4643610000000  0.4828880000000  0.5335170000000 1.0
C      1  0.4831500000000  0.4628660000000  0.5390230000000 1.0
C      1  0.5033570000000  0.5458290000000  0.5005230000000 1.0
END
