TITL C-40150-9393-1 -0.131722806229998 125000 -277.314825224613 0 0 42 (C1) n - 1
REM
REM in /rds/project/t2_vol4/rds-t2-cs072/BORA/CARBON/from-Arr/AIRSS/Generating-Clusters/GAP-ML-2020/Only-C1/SD-CG/HFTN-CG
REM
REM
REM
REM
REM
REM ./C.cell (11c1c37f851c82e70ff6c80c92926a4b)
REM AIRSS Version 0.9.1 bugfix July 2018 build 013d7b7c2542+ Fri, 06 Jul 2018 19:26:36 +0100
REM compiler GCC version 9.3.0
REM options -cpp -mtune=generic -march=x86-64 -g -O0
REM seed -760657195 -743780493 -1839260667 -2144234098 -1206747108 1625729607 882744722 1509237415 478648539 1210726733 -260470037 -69463107 2073984185 -1664972089 379950705 -53340282 281112001 -2033568429 1018124053 -908284249 -290370472 2015097716 -2111986731 -1978994193 1596952248 -1758979344 -1537790974 2143926897 249895932 -869601703 1013403975 361269119 -1053927532
REM
CELL 1.54180   50.00000   50.00000   50.00000   90.00000   90.00000   90.00000
LATT -1
SFAC C  
C      1  0.5286160000000  0.4715160000000  0.4960550000000 1.0
C      1  0.5031170000000  0.4810140000000  0.4813390000000 1.0
C      1  0.4808150000000  0.5098760000000  0.4248490000000 1.0
C      1  0.4781010000000  0.5394090000000  0.5126370000000 1.0
C      1  0.5150390000000  0.5139740000000  0.5090690000000 1.0
C      1  0.5456430000000  0.4862310000000  0.5403130000000 1.0
C      1  0.5384360000000  0.5322650000000  0.5402500000000 1.0
C      1  0.5002680000000  0.5553720000000  0.5036390000000 1.0
C      1  0.5556300000000  0.5102970000000  0.5304730000000 1.0
C      1  0.4550160000000  0.5031620000000  0.4792470000000 1.0
C      1  0.5513260000000  0.4900530000000  0.4843510000000 1.0
C      1  0.4588630000000  0.4709320000000  0.5133450000000 1.0
C      1  0.5272380000000  0.5416610000000  0.5146610000000 1.0
C      1  0.4377460000000  0.5130620000000  0.5005580000000 1.0
C      1  0.5305090000000  0.5432520000000  0.4692360000000 1.0
C      1  0.5303430000000  0.4441480000000  0.5075570000000 1.0
C      1  0.5165660000000  0.4395940000000  0.5282740000000 1.0
C      1  0.4778630000000  0.4705670000000  0.5373310000000 1.0
C      1  0.5022950000000  0.4585030000000  0.5437690000000 1.0
C      1  0.4873750000000  0.5113760000000  0.5155710000000 1.0
C      1  0.4497580000000  0.4886620000000  0.4560440000000 1.0
C      1  0.4586210000000  0.4610470000000  0.4656080000000 1.0
C      1  0.5182230000000  0.5270760000000  0.5576100000000 1.0
C      1  0.5113310000000  0.5089540000000  0.4809900000000 1.0
C      1  0.5036420000000  0.4778080000000  0.4510210000000 1.0
C      1  0.4776790000000  0.4916030000000  0.4960000000000 1.0
C      1  0.4513450000000  0.4545540000000  0.4913740000000 1.0
C      1  0.4856480000000  0.4607150000000  0.4601020000000 1.0
C      1  0.4511530000000  0.5336220000000  0.5185330000000 1.0
C      1  0.5196500000000  0.4811760000000  0.5524360000000 1.0
C      1  0.5266040000000  0.4890110000000  0.5183510000000 1.0
C      1  0.5470790000000  0.5387400000000  0.4932330000000 1.0
C      1  0.5590730000000  0.5134160000000  0.5004240000000 1.0
C      1  0.5038280000000  0.5043970000000  0.5583530000000 1.0
C      1  0.5091500000000  0.5592740000000  0.4782730000000 1.0
C      1  0.5042160000000  0.5043320000000  0.4391140000000 1.0
C      1  0.4394430000000  0.4932100000000  0.5214340000000 1.0
C      1  0.4788650000000  0.4996640000000  0.5435440000000 1.0
C      1  0.5263360000000  0.5177540000000  0.4551290000000 1.0
C      1  0.4576780000000  0.4995250000000  0.4315970000000 1.0
C      1  0.5481950000000  0.4981430000000  0.4589600000000 1.0
C      1  0.4516800000000  0.5110510000000  0.5393460000000 1.0
END
