TITL C-40123-9361-11 -298.951314826057 125000 -407.090400579525 0 0 60 (C1) n - 1
REM
REM in /rds/project/t2_vol4/rds-t2-cs072/BORA/CARBON/from-Arr/AIRSS/Generating-Clusters/GAP-ML-2020/Only-C1/SD-CG/HFTN-CG
REM
REM
REM
REM
REM
REM ./C.cell (11c1c37f851c82e70ff6c80c92926a4b)
REM AIRSS Version 0.9.1 bugfix July 2018 build 013d7b7c2542+ Fri, 06 Jul 2018 19:26:36 +0100
REM compiler GCC version 9.3.0
REM options -cpp -mtune=generic -march=x86-64 -g -O0
REM seed 954316832 -122455807 -1043317129 2141326837 861667015 -1594385890 1292431907 2028124719 11828668 412162852 -135229392 -2050411244 -187982558 83915832 -878386893 -1088612362 -79571940 948064913 2027061532 1478046147 1905907324 216371954 676935680 -1635349109 448365802 1825439243 -2129218253 1423942876 -1086901272 -110547489 -1134925275 206399283 -1407398502
REM
CELL 1.54180   50.00000   50.00000   50.00000   90.00000   90.00000   90.00000
LATT -1
SFAC C  
C      1  0.5210410000000  0.5628710000000  0.4875290000000 1.0
C      1  0.4919600000000  0.4767360000000  0.4392380000000 1.0
C      1  0.4509860000000  0.4551890000000  0.5233890000000 1.0
C      1  0.4774780000000  0.4533580000000  0.5175210000000 1.0
C      1  0.5744170000000  0.4759040000000  0.4816370000000 1.0
C      1  0.4652390000000  0.4486130000000  0.4736540000000 1.0
C      1  0.5191380000000  0.4428430000000  0.5180910000000 1.0
C      1  0.5604020000000  0.4967410000000  0.4657590000000 1.0
C      1  0.5880640000000  0.4965600000000  0.4971160000000 1.0
C      1  0.5305830000000  0.5524300000000  0.5313420000000 1.0
C      1  0.4398640000000  0.5212290000000  0.5529910000000 1.0
C      1  0.4917800000000  0.4387660000000  0.4794460000000 1.0
C      1  0.4757470000000  0.4917950000000  0.5515150000000 1.0
C      1  0.5172650000000  0.4719370000000  0.4515130000000 1.0
C      1  0.4646140000000  0.5385270000000  0.4742840000000 1.0
C      1  0.5400680000000  0.5275150000000  0.5424770000000 1.0
C      1  0.5801160000000  0.4958390000000  0.5235200000000 1.0
C      1  0.5063050000000  0.5193400000000  0.4936720000000 1.0
C      1  0.5691730000000  0.4676260000000  0.5272780000000 1.0
C      1  0.5357970000000  0.4956280000000  0.4529510000000 1.0
C      1  0.5455140000000  0.4726370000000  0.5396480000000 1.0
C      1  0.4673800000000  0.4694150000000  0.4540070000000 1.0
C      1  0.5355450000000  0.4476180000000  0.4946990000000 1.0
C      1  0.5665320000000  0.5213920000000  0.5293280000000 1.0
C      1  0.4438810000000  0.5052310000000  0.5149580000000 1.0
C      1  0.5024520000000  0.5594100000000  0.5299410000000 1.0
C      1  0.5650660000000  0.5363880000000  0.5043090000000 1.0
C      1  0.4844180000000  0.5173160000000  0.4740740000000 1.0
C      1  0.4960100000000  0.5666950000000  0.5024810000000 1.0
C      1  0.4311040000000  0.4993030000000  0.4650990000000 1.0
C      1  0.4576160000000  0.5515620000000  0.5213260000000 1.0
C      1  0.4949620000000  0.5226700000000  0.5224250000000 1.0
C      1  0.4795440000000  0.5437610000000  0.5395560000000 1.0
C      1  0.5041420000000  0.4841470000000  0.5515820000000 1.0
C      1  0.4566310000000  0.5089480000000  0.4360180000000 1.0
C      1  0.5428200000000  0.5556690000000  0.5057180000000 1.0
C      1  0.4677820000000  0.5211360000000  0.5577150000000 1.0
C      1  0.5230250000000  0.5378270000000  0.4766130000000 1.0
C      1  0.4720290000000  0.4901260000000  0.4801800000000 1.0
C      1  0.4461960000000  0.4589490000000  0.4954320000000 1.0
C      1  0.5167240000000  0.5092490000000  0.5402190000000 1.0
C      1  0.5168200000000  0.4505900000000  0.4714300000000 1.0
C      1  0.5137890000000  0.4912380000000  0.4995800000000 1.0
C      1  0.5203960000000  0.4609200000000  0.5424290000000 1.0
C      1  0.5330150000000  0.4939780000000  0.5214030000000 1.0
C      1  0.4441290000000  0.4845440000000  0.4435590000000 1.0
C      1  0.5733510000000  0.5177630000000  0.4831650000000 1.0
C      1  0.4975530000000  0.5202920000000  0.4468890000000 1.0
C      1  0.4457540000000  0.5247810000000  0.4565830000000 1.0
C      1  0.4319670000000  0.4945600000000  0.5417810000000 1.0
C      1  0.4692760000000  0.5570570000000  0.4956520000000 1.0
C      1  0.4739890000000  0.5011680000000  0.5215840000000 1.0
C      1  0.5243860000000  0.5223680000000  0.4519740000000 1.0
C      1  0.4498630000000  0.4740410000000  0.5461680000000 1.0
C      1  0.4421350000000  0.4885900000000  0.4898430000000 1.0
C      1  0.4943120000000  0.4338070000000  0.5077140000000 1.0
C      1  0.4843020000000  0.5035890000000  0.4300460000000 1.0
C      1  0.4374410000000  0.5329190000000  0.5264330000000 1.0
C      1  0.4863430000000  0.4812150000000  0.5041630000000 1.0
C      1  0.5617720000000  0.4576840000000  0.4993600000000 1.0
END
