TITL C-40126-9385-12 -599.723080512552 125000 -124.063043721709 0 0 20 (C1) n - 1
REM
REM in /rds/project/t2_vol4/rds-t2-cs072/BORA/CARBON/from-Arr/AIRSS/Generating-Clusters/GAP-ML-2020/Only-C1/SD-CG/HFTN-CG
REM
REM
REM
REM
REM
REM ./C.cell (11c1c37f851c82e70ff6c80c92926a4b)
REM AIRSS Version 0.9.1 bugfix July 2018 build 013d7b7c2542+ Fri, 06 Jul 2018 19:26:36 +0100
REM compiler GCC version 9.3.0
REM options -cpp -mtune=generic -march=x86-64 -g -O0
REM seed 1909350521 -1207381722 596727446 820450965 -639798136 -1894519066 361422981 -1873975610 1522657903 -982599814 767801298 405507086 -1092378286 -1970207812 1023189482 -2137920766 1826920979 -800278006 -1155773145 -709377106 -1824476676 1493979777 -437913775 -1520696635 -1922294896 -1294859827 -2085866115 -1361124652 933120274 -1878231500 1842741917 -73669028 855384589
REM
CELL 1.54180   50.00000   50.00000   50.00000   90.00000   90.00000   90.00000
LATT -1
SFAC C  
C      1  0.5000020000000  0.4559780000000  0.4748320000000 1.0
C      1  0.4794790000000  0.4860920000000  0.5148830000000 1.0
C      1  0.5114690000000  0.4559650000000  0.5022630000000 1.0
C      1  0.5084160000000  0.4844400000000  0.5078610000000 1.0
C      1  0.5534920000000  0.5253910000000  0.5178360000000 1.0
C      1  0.4617940000000  0.4989780000000  0.4986680000000 1.0
C      1  0.4631810000000  0.5284230000000  0.4966980000000 1.0
C      1  0.4838240000000  0.4352460000000  0.4833340000000 1.0
C      1  0.4689020000000  0.5246340000000  0.4685140000000 1.0
C      1  0.4818560000000  0.5592410000000  0.5343640000000 1.0
C      1  0.4736490000000  0.4620840000000  0.5260950000000 1.0
C      1  0.5288720000000  0.5654380000000  0.5193950000000 1.0
C      1  0.5590600000000  0.5089740000000  0.4987870000000 1.0
C      1  0.5353900000000  0.5413170000000  0.5275030000000 1.0
C      1  0.4966290000000  0.4830770000000  0.4680250000000 1.0
C      1  0.4883560000000  0.4428640000000  0.5122030000000 1.0
C      1  0.4726210000000  0.4966200000000  0.4715490000000 1.0
C      1  0.4738670000000  0.5456240000000  0.5144390000000 1.0
C      1  0.5426660000000  0.5030030000000  0.4793910000000 1.0
C      1  0.5164760000000  0.4966120000000  0.4833610000000 1.0
END
