TITL C-40143-9483-8 215.999657589055 125000 -155.619807417115 0 0 25 (C1) n - 1
REM
REM in /rds/project/t2_vol4/rds-t2-cs072/BORA/CARBON/from-Arr/AIRSS/Generating-Clusters/GAP-ML-2020/Only-C1/SD-CG/HFTN-CG
REM
REM
REM
REM
REM
REM ./C.cell (11c1c37f851c82e70ff6c80c92926a4b)
REM AIRSS Version 0.9.1 bugfix July 2018 build 013d7b7c2542+ Fri, 06 Jul 2018 19:26:36 +0100
REM compiler GCC version 9.3.0
REM options -cpp -mtune=generic -march=x86-64 -g -O0
REM seed 1944130183 435961212 -1836926918 674606282 67455288 123552058 -963083613 37053373 1879778339 -1962641547 -87440297 -1777315790 -760532715 584327910 848330824 -904210264 965866998 1272924077 1872087941 -1278365351 791130130 1370936002 69575139 1200411053 -1692245141 484385607 -251922757 1048889951 -1546465620 -762368959 -1209033208 -2063320939 543441176
REM
CELL 1.54180   50.00000   50.00000   50.00000   90.00000   90.00000   90.00000
LATT -1
SFAC C  
C      1  0.5357180000000  0.4636660000000  0.5376050000000 1.0
C      1  0.4541140000000  0.4794310000000  0.5004340000000 1.0
C      1  0.5271600000000  0.4699140000000  0.4719320000000 1.0
C      1  0.4625680000000  0.5059220000000  0.5102980000000 1.0
C      1  0.4693310000000  0.5575500000000  0.4869990000000 1.0
C      1  0.4828840000000  0.4637290000000  0.4629300000000 1.0
C      1  0.5292390000000  0.5449190000000  0.4666960000000 1.0
C      1  0.4718620000000  0.4764560000000  0.5436620000000 1.0
C      1  0.5501690000000  0.4930410000000  0.5125690000000 1.0
C      1  0.5559770000000  0.4831980000000  0.5355370000000 1.0
C      1  0.4895380000000  0.5559290000000  0.5044120000000 1.0
C      1  0.5261250000000  0.4858010000000  0.4961770000000 1.0
C      1  0.5087900000000  0.4584050000000  0.4581440000000 1.0
C      1  0.5231880000000  0.5363790000000  0.4941680000000 1.0
C      1  0.4660330000000  0.4608080000000  0.5202120000000 1.0
C      1  0.4693990000000  0.4831020000000  0.4760690000000 1.0
C      1  0.4808650000000  0.5110290000000  0.4862560000000 1.0
C      1  0.4789760000000  0.5358240000000  0.4702900000000 1.0
C      1  0.4918830000000  0.4527780000000  0.5143240000000 1.0
C      1  0.5032770000000  0.5072670000000  0.5269430000000 1.0
C      1  0.5046390000000  0.5402240000000  0.4606960000000 1.0
C      1  0.5090250000000  0.5101890000000  0.4995170000000 1.0
C      1  0.4782940000000  0.5013380000000  0.5346910000000 1.0
C      1  0.5153100000000  0.5590980000000  0.5097940000000 1.0
C      1  0.5156360000000  0.4640030000000  0.5196420000000 1.0
END
