TITL C-40124-9535-6 -116.737744530952 125000 -385.233001051213 0 0 58 (C1) n - 1
REM
REM in /rds/project/t2_vol4/rds-t2-cs072/BORA/CARBON/from-Arr/AIRSS/Generating-Clusters/GAP-ML-2020/Only-C1/SD-CG/HFTN-CG
REM
REM
REM
REM
REM
REM ./C.cell (11c1c37f851c82e70ff6c80c92926a4b)
REM AIRSS Version 0.9.1 bugfix July 2018 build 013d7b7c2542+ Fri, 06 Jul 2018 19:26:36 +0100
REM compiler GCC version 9.3.0
REM options -cpp -mtune=generic -march=x86-64 -g -O0
REM seed -812599570 225542260 -1667197182 -1040001317 1709941685 -1148054319 -224013877 -82218855 890309400 480259307 -219769071 169042586 1332776719 906290559 55152977 278910183 1787831804 -1643296167 -1228647894 908679279 -1203884907 67399338 427290081 -1935879105 -1191140336 443424322 -1829105870 828033786 1958281373 860583605 1109043576 1024723369 -930881859
REM
CELL 1.54180   50.00000   50.00000   50.00000   90.00000   90.00000   90.00000
LATT -1
SFAC C  
C      1  0.5159160000000  0.5514850000000  0.5062920000000 1.0
C      1  0.4786510000000  0.5137540000000  0.5004770000000 1.0
C      1  0.5112980000000  0.5541160000000  0.4581390000000 1.0
C      1  0.4654240000000  0.4971130000000  0.4526540000000 1.0
C      1  0.5414310000000  0.4557080000000  0.4640500000000 1.0
C      1  0.5209900000000  0.5600260000000  0.4809940000000 1.0
C      1  0.5048430000000  0.4472080000000  0.5072520000000 1.0
C      1  0.5371360000000  0.5128810000000  0.4469480000000 1.0
C      1  0.5130860000000  0.4824060000000  0.4760710000000 1.0
C      1  0.4657000000000  0.5579450000000  0.5042960000000 1.0
C      1  0.5738870000000  0.4894740000000  0.4743380000000 1.0
C      1  0.5584650000000  0.4645840000000  0.4863680000000 1.0
C      1  0.4870080000000  0.5134910000000  0.4431970000000 1.0
C      1  0.5591190000000  0.4840330000000  0.5359470000000 1.0
C      1  0.5039670000000  0.4778140000000  0.5021600000000 1.0
C      1  0.5829060000000  0.5081710000000  0.4922770000000 1.0
C      1  0.4414580000000  0.5419120000000  0.5053880000000 1.0
C      1  0.4687450000000  0.4522540000000  0.5323590000000 1.0
C      1  0.5126720000000  0.5031320000000  0.4322910000000 1.0
C      1  0.4859540000000  0.4488490000000  0.4637160000000 1.0
C      1  0.4490090000000  0.5095930000000  0.5415550000000 1.0
C      1  0.4307710000000  0.4878440000000  0.4826210000000 1.0
C      1  0.5168660000000  0.4609690000000  0.5498720000000 1.0
C      1  0.5645660000000  0.5181600000000  0.5102730000000 1.0
C      1  0.4970300000000  0.4468060000000  0.5355420000000 1.0
C      1  0.4125510000000  0.5048780000000  0.5117870000000 1.0
C      1  0.4651220000000  0.4821120000000  0.5366390000000 1.0
C      1  0.5177550000000  0.5444080000000  0.5503510000000 1.0
C      1  0.4710720000000  0.5194680000000  0.5562800000000 1.0
C      1  0.5386870000000  0.5119390000000  0.4989520000000 1.0
C      1  0.5272120000000  0.5059310000000  0.5700700000000 1.0
C      1  0.4832510000000  0.4931820000000  0.5581070000000 1.0
C      1  0.4659560000000  0.4693820000000  0.4619370000000 1.0
C      1  0.4046690000000  0.4877830000000  0.4944270000000 1.0
C      1  0.4612110000000  0.4455420000000  0.5046090000000 1.0
C      1  0.5096520000000  0.4861630000000  0.5633460000000 1.0
C      1  0.5479820000000  0.4705250000000  0.4398790000000 1.0
C      1  0.5386330000000  0.5251100000000  0.5540120000000 1.0
C      1  0.4869720000000  0.5404660000000  0.4554380000000 1.0
C      1  0.4532970000000  0.4702700000000  0.4890340000000 1.0
C      1  0.4427870000000  0.5087610000000  0.4666660000000 1.0
C      1  0.4669430000000  0.5507640000000  0.4741110000000 1.0
C      1  0.5129260000000  0.5657940000000  0.5296640000000 1.0
C      1  0.5596210000000  0.5127080000000  0.5383810000000 1.0
C      1  0.5294580000000  0.5055810000000  0.4735180000000 1.0
C      1  0.5188550000000  0.5006730000000  0.5163630000000 1.0
C      1  0.5596380000000  0.4945050000000  0.4489230000000 1.0
C      1  0.4749310000000  0.4867110000000  0.5063980000000 1.0
C      1  0.4897480000000  0.5366450000000  0.5434410000000 1.0
C      1  0.4429230000000  0.5352930000000  0.4766920000000 1.0
C      1  0.4842520000000  0.4373060000000  0.4899810000000 1.0
C      1  0.5011280000000  0.5236730000000  0.5147820000000 1.0
C      1  0.5557300000000  0.4640750000000  0.5137280000000 1.0
C      1  0.4319100000000  0.5214910000000  0.5231460000000 1.0
C      1  0.4836680000000  0.5611570000000  0.5268370000000 1.0
C      1  0.5429100000000  0.4620570000000  0.5384280000000 1.0
C      1  0.5199310000000  0.4756060000000  0.4324330000000 1.0
C      1  0.5117200000000  0.4603160000000  0.4565650000000 1.0
END
