TITL C-40124-9535-9 38.8422088097496 125000 -457.209734708726 0 0 67 (C1) n - 1
REM
REM in /rds/project/t2_vol4/rds-t2-cs072/BORA/CARBON/from-Arr/AIRSS/Generating-Clusters/GAP-ML-2020/Only-C1/SD-CG/HFTN-CG
REM
REM
REM
REM
REM
REM ./C.cell (11c1c37f851c82e70ff6c80c92926a4b)
REM AIRSS Version 0.9.1 bugfix July 2018 build 013d7b7c2542+ Fri, 06 Jul 2018 19:26:36 +0100
REM compiler GCC version 9.3.0
REM options -cpp -mtune=generic -march=x86-64 -g -O0
REM seed -1732676092 1933799384 -1175025649 813500252 775072838 -1209878098 -30819894 756073847 -1304758838 -1273749691 -1628820433 -1623684508 523737706 -1978883611 1155665960 -1661688463 -765162297 -2058230366 -1658900727 -1765981028 984277831 1498937806 888553568 834539761 -1859643984 -591102719 1118938805 494280458 -492457001 -1396288670 1064529092 1984507887 -523684596
REM
CELL 1.54180   50.00000   50.00000   50.00000   90.00000   90.00000   90.00000
LATT -1
SFAC C  
C      1  0.4355270000000  0.5219350000000  0.5206130000000 1.0
C      1  0.4819530000000  0.4818480000000  0.4839040000000 1.0
C      1  0.4344130000000  0.4825090000000  0.4927270000000 1.0
C      1  0.4981760000000  0.4989210000000  0.4633990000000 1.0
C      1  0.4812310000000  0.5355040000000  0.5533370000000 1.0
C      1  0.5217430000000  0.4784600000000  0.5704690000000 1.0
C      1  0.5395480000000  0.4412470000000  0.4886080000000 1.0
C      1  0.4942890000000  0.4695790000000  0.5581010000000 1.0
C      1  0.4511160000000  0.4432760000000  0.5105450000000 1.0
C      1  0.5484770000000  0.4984660000000  0.4369000000000 1.0
C      1  0.4498270000000  0.5442060000000  0.5155350000000 1.0
C      1  0.4959240000000  0.5441740000000  0.4447780000000 1.0
C      1  0.5217470000000  0.5035990000000  0.4291550000000 1.0
C      1  0.4991340000000  0.4925870000000  0.5350670000000 1.0
C      1  0.5121760000000  0.5059160000000  0.5769920000000 1.0
C      1  0.4527820000000  0.4539980000000  0.5365240000000 1.0
C      1  0.5290150000000  0.5485100000000  0.4739070000000 1.0
C      1  0.4560310000000  0.4879660000000  0.4443800000000 1.0
C      1  0.4608340000000  0.5109610000000  0.4313620000000 1.0
C      1  0.4828890000000  0.5650980000000  0.4881590000000 1.0
C      1  0.5414720000000  0.5411300000000  0.4482510000000 1.0
C      1  0.4362940000000  0.4539240000000  0.4889020000000 1.0
C      1  0.4907000000000  0.5675500000000  0.5162720000000 1.0
C      1  0.4646530000000  0.5237210000000  0.4770960000000 1.0
C      1  0.5302030000000  0.5331720000000  0.5373500000000 1.0
C      1  0.5290330000000  0.5571940000000  0.5215120000000 1.0
C      1  0.5454920000000  0.4748220000000  0.5561520000000 1.0
C      1  0.5554470000000  0.4855300000000  0.4845850000000 1.0
C      1  0.5189270000000  0.5317130000000  0.4331230000000 1.0
C      1  0.4707180000000  0.4479960000000  0.4561080000000 1.0
C      1  0.4897140000000  0.5215450000000  0.4978140000000 1.0
C      1  0.5051880000000  0.4804400000000  0.4402570000000 1.0
C      1  0.5022150000000  0.5600170000000  0.4679520000000 1.0
C      1  0.4519330000000  0.4921590000000  0.5656130000000 1.0
C      1  0.5323640000000  0.5007620000000  0.4989600000000 1.0
C      1  0.5486020000000  0.4780070000000  0.4563380000000 1.0
C      1  0.4778170000000  0.5231070000000  0.4504590000000 1.0
C      1  0.5858750000000  0.5189540000000  0.4609610000000 1.0
C      1  0.4450840000000  0.4436000000000  0.4648990000000 1.0
C      1  0.4775730000000  0.4346520000000  0.5027850000000 1.0
C      1  0.4542320000000  0.4945170000000  0.4751320000000 1.0
C      1  0.5257530000000  0.4623720000000  0.4518980000000 1.0
C      1  0.4845440000000  0.4960330000000  0.5106410000000 1.0
C      1  0.4751960000000  0.4804410000000  0.5782940000000 1.0
C      1  0.5077850000000  0.5209000000000  0.5509040000000 1.0
C      1  0.5495950000000  0.5156470000000  0.5247180000000 1.0
C      1  0.4860710000000  0.5047540000000  0.5873830000000 1.0
C      1  0.4660040000000  0.5186970000000  0.5711830000000 1.0
C      1  0.4331040000000  0.4948760000000  0.5188170000000 1.0
C      1  0.4719130000000  0.5522390000000  0.5325370000000 1.0
C      1  0.5197300000000  0.4826000000000  0.5173230000000 1.0
C      1  0.4888060000000  0.4500030000000  0.4797900000000 1.0
C      1  0.5175310000000  0.4450840000000  0.4725540000000 1.0
C      1  0.5439140000000  0.4676010000000  0.5272410000000 1.0
C      1  0.4415570000000  0.4797730000000  0.5425450000000 1.0
C      1  0.5547750000000  0.4595690000000  0.5011100000000 1.0
C      1  0.4881920000000  0.4287920000000  0.5275370000000 1.0
C      1  0.5143850000000  0.5167350000000  0.4816850000000 1.0
C      1  0.4580490000000  0.5494690000000  0.4883760000000 1.0
C      1  0.5625320000000  0.5295550000000  0.5031290000000 1.0
C      1  0.5450640000000  0.5520010000000  0.4975060000000 1.0
C      1  0.5629320000000  0.5218460000000  0.4462400000000 1.0
C      1  0.5739290000000  0.5105820000000  0.4838320000000 1.0
C      1  0.5576520000000  0.4917660000000  0.5387310000000 1.0
C      1  0.4801510000000  0.4463720000000  0.5467280000000 1.0
C      1  0.4768920000000  0.4692780000000  0.4380200000000 1.0
C      1  0.5135760000000  0.5797430000000  0.5262920000000 1.0
END
