TITL C-40146-9397-7 3.37904649507665 125000 -736.758012238451 0 0 107 (C1) n - 1
REM
REM in /rds/project/t2_vol4/rds-t2-cs072/BORA/CARBON/from-Arr/AIRSS/Generating-Clusters/GAP-ML-2020/Only-C1/SD-CG/HFTN-CG
REM
REM
REM
REM
REM
REM ./C.cell (11c1c37f851c82e70ff6c80c92926a4b)
REM AIRSS Version 0.9.1 bugfix July 2018 build 013d7b7c2542+ Fri, 06 Jul 2018 19:26:36 +0100
REM compiler GCC version 9.3.0
REM options -cpp -mtune=generic -march=x86-64 -g -O0
REM seed 1063742935 -1685560392 -1602101882 -1295851696 -1503917663 217180136 -822667912 1173663817 591362753 -388668393 531934114 1812358351 -1674548386 948398356 -1895831743 2066218422 -897779357 -1829692184 1274963276 -661874799 349965462 -1258088585 -1810654492 -1305638183 1093770488 1822980701 1823670318 -19929941 -1285461644 -1799899656 -160412076 224625248 1750673355
REM
CELL 1.54180   50.00000   50.00000   50.00000   90.00000   90.00000   90.00000
LATT -1
SFAC C  
C      1  0.4571990000000  0.4838330000000  0.5710090000000 1.0
C      1  0.5203930000000  0.4833240000000  0.4896710000000 1.0
C      1  0.5148260000000  0.4610400000000  0.4204880000000 1.0
C      1  0.5380880000000  0.5154170000000  0.5180610000000 1.0
C      1  0.4081090000000  0.5056320000000  0.5177600000000 1.0
C      1  0.4769320000000  0.4703840000000  0.5303710000000 1.0
C      1  0.5315770000000  0.5550330000000  0.4818300000000 1.0
C      1  0.5551920000000  0.4479890000000  0.4547060000000 1.0
C      1  0.5446580000000  0.5715000000000  0.5024170000000 1.0
C      1  0.4982360000000  0.5538180000000  0.4302610000000 1.0
C      1  0.4375910000000  0.5598600000000  0.5558350000000 1.0
C      1  0.5509530000000  0.4265290000000  0.5302090000000 1.0
C      1  0.4359390000000  0.5477550000000  0.5149860000000 1.0
C      1  0.4459610000000  0.4974310000000  0.5473540000000 1.0
C      1  0.5203590000000  0.4968110000000  0.5766510000000 1.0
C      1  0.5059390000000  0.5482420000000  0.4916720000000 1.0
C      1  0.4386440000000  0.4363260000000  0.5013150000000 1.0
C      1  0.5414240000000  0.4327340000000  0.4773930000000 1.0
C      1  0.5421970000000  0.5585230000000  0.4545160000000 1.0
C      1  0.4649280000000  0.4603920000000  0.4432960000000 1.0
C      1  0.4473900000000  0.4730300000000  0.5275250000000 1.0
C      1  0.5693100000000  0.4491960000000  0.5319520000000 1.0
C      1  0.4460450000000  0.4100130000000  0.4940230000000 1.0
C      1  0.5028760000000  0.5595080000000  0.5187610000000 1.0
C      1  0.4147040000000  0.5057020000000  0.4624590000000 1.0
C      1  0.5165110000000  0.4200650000000  0.4638480000000 1.0
C      1  0.4239170000000  0.5422980000000  0.5399350000000 1.0
C      1  0.5676120000000  0.5556270000000  0.5093100000000 1.0
C      1  0.4200750000000  0.5128580000000  0.5411310000000 1.0
C      1  0.5682150000000  0.4984040000000  0.4588220000000 1.0
C      1  0.4649180000000  0.5269270000000  0.4910700000000 1.0
C      1  0.5848200000000  0.4916280000000  0.4999120000000 1.0
C      1  0.4732730000000  0.4062410000000  0.4970640000000 1.0
C      1  0.4868220000000  0.4971230000000  0.5219590000000 1.0
C      1  0.4517960000000  0.5004930000000  0.4273360000000 1.0
C      1  0.4846900000000  0.5627230000000  0.5680030000000 1.0
C      1  0.4789210000000  0.4195230000000  0.5229460000000 1.0
C      1  0.5569130000000  0.4751260000000  0.5389610000000 1.0
C      1  0.5650740000000  0.4981510000000  0.5202040000000 1.0
C      1  0.4803390000000  0.4674180000000  0.5598460000000 1.0
C      1  0.5787300000000  0.4447280000000  0.5046900000000 1.0
C      1  0.4773510000000  0.5060740000000  0.5965110000000 1.0
C      1  0.4802790000000  0.5608670000000  0.4532410000000 1.0
C      1  0.5583810000000  0.4245590000000  0.5005430000000 1.0
C      1  0.5680750000000  0.5415380000000  0.5350070000000 1.0
C      1  0.5173420000000  0.5944220000000  0.5425440000000 1.0
C      1  0.4877910000000  0.5314980000000  0.4163990000000 1.0
C      1  0.5411300000000  0.5271900000000  0.4909940000000 1.0
C      1  0.5098460000000  0.4435980000000  0.4453580000000 1.0
C      1  0.4864240000000  0.5373030000000  0.4737890000000 1.0
C      1  0.5168930000000  0.4942750000000  0.5176320000000 1.0
C      1  0.4080790000000  0.5309310000000  0.4507750000000 1.0
C      1  0.4320570000000  0.4899690000000  0.4464830000000 1.0
C      1  0.4931100000000  0.4445170000000  0.4863440000000 1.0
C      1  0.4991010000000  0.5151300000000  0.5826350000000 1.0
C      1  0.5664630000000  0.4973910000000  0.5576160000000 1.0
C      1  0.5270360000000  0.4274270000000  0.5437560000000 1.0
C      1  0.4626590000000  0.4268290000000  0.5442060000000 1.0
C      1  0.4300600000000  0.5448100000000  0.4603650000000 1.0
C      1  0.4914700000000  0.5334190000000  0.5602020000000 1.0
C      1  0.4921970000000  0.4884300000000  0.4752170000000 1.0
C      1  0.5139910000000  0.5474000000000  0.5449280000000 1.0
C      1  0.5363070000000  0.4502060000000  0.4333990000000 1.0
C      1  0.5658940000000  0.5433820000000  0.4553950000000 1.0
C      1  0.5259040000000  0.4730790000000  0.5372940000000 1.0
C      1  0.4890850000000  0.5856670000000  0.4697560000000 1.0
C      1  0.5621400000000  0.5200990000000  0.4391230000000 1.0
C      1  0.5840790000000  0.4660280000000  0.4876940000000 1.0
C      1  0.4712090000000  0.4978450000000  0.4952500000000 1.0
C      1  0.5021170000000  0.5949440000000  0.4892280000000 1.0
C      1  0.4721140000000  0.5171160000000  0.5395610000000 1.0
C      1  0.5842030000000  0.5113310000000  0.4803730000000 1.0
C      1  0.4886770000000  0.4600790000000  0.4611180000000 1.0
C      1  0.4955950000000  0.5125550000000  0.4596040000000 1.0
C      1  0.5227300000000  0.4535260000000  0.4927230000000 1.0
C      1  0.5375420000000  0.5028360000000  0.4737070000000 1.0
C      1  0.5329940000000  0.5226730000000  0.4269500000000 1.0
C      1  0.5114230000000  0.4708730000000  0.5638840000000 1.0
C      1  0.4983470000000  0.4837740000000  0.4142750000000 1.0
C      1  0.4214120000000  0.5060230000000  0.4924290000000 1.0
C      1  0.4935290000000  0.4160790000000  0.4792690000000 1.0
C      1  0.4629090000000  0.5692190000000  0.5515350000000 1.0
C      1  0.4424680000000  0.4830080000000  0.4993640000000 1.0
C      1  0.5258680000000  0.5506030000000  0.4321260000000 1.0
C      1  0.4365640000000  0.4588330000000  0.4840050000000 1.0
C      1  0.5394460000000  0.5320920000000  0.5442730000000 1.0
C      1  0.4536280000000  0.5486110000000  0.4439260000000 1.0
C      1  0.5104310000000  0.4385490000000  0.5640950000000 1.0
C      1  0.4745560000000  0.5637970000000  0.5247310000000 1.0
C      1  0.5218690000000  0.5107400000000  0.4513880000000 1.0
C      1  0.4350590000000  0.5346250000000  0.4889620000000 1.0
C      1  0.4610660000000  0.5275210000000  0.4257450000000 1.0
C      1  0.5430860000000  0.5100800000000  0.5658560000000 1.0
C      1  0.5076100000000  0.5113310000000  0.4123170000000 1.0
C      1  0.5188040000000  0.4482800000000  0.5225010000000 1.0
C      1  0.4638140000000  0.5383620000000  0.5190790000000 1.0
C      1  0.4709090000000  0.4799590000000  0.4228490000000 1.0
C      1  0.5794290000000  0.5162930000000  0.5392200000000 1.0
C      1  0.4428710000000  0.4438920000000  0.5292240000000 1.0
C      1  0.4400930000000  0.4647950000000  0.4562240000000 1.0
C      1  0.4898520000000  0.4470520000000  0.5164640000000 1.0
C      1  0.5204050000000  0.5855940000000  0.5141230000000 1.0
C      1  0.5728210000000  0.4687790000000  0.4617390000000 1.0
C      1  0.5093540000000  0.5758910000000  0.5599640000000 1.0
C      1  0.4822620000000  0.4377690000000  0.5624720000000 1.0
C      1  0.5720520000000  0.5369200000000  0.4845950000000 1.0
C      1  0.4556400000000  0.4923560000000  0.5980840000000 1.0
END
