TITL C-40121-9329-2 132.773189987011 125000 -572.010044433938 0 0 79 (C1) n - 1
REM
REM in /rds/project/t2_vol4/rds-t2-cs072/BORA/CARBON/from-Arr/AIRSS/Generating-Clusters/GAP-ML-2020/Only-C1/SD-CG/HFTN-CG
REM
REM
REM
REM
REM
REM ./C.cell (11c1c37f851c82e70ff6c80c92926a4b)
REM AIRSS Version 0.9.1 bugfix July 2018 build 013d7b7c2542+ Fri, 06 Jul 2018 19:26:36 +0100
REM compiler GCC version 9.3.0
REM options -cpp -mtune=generic -march=x86-64 -g -O0
REM seed 795750276 -1956560281 -328864911 1831367888 -1985545611 1038634950 -1490661490 -909402659 -1093157413 1576032352 -1448753697 -9077825 -2072641592 -1342215206 -2113282162 1013894497 -263469302 -1661835082 1070342642 1852720081 605460828 794754856 1989801695 -966486455 -2010064769 -653481055 -2016687673 443703182 1397912688 -1263803795 -1914856086 1985660212 -2033501203
REM
CELL 1.54180   50.00000   50.00000   50.00000   90.00000   90.00000   90.00000
LATT -1
SFAC C  
C      1  0.4662530000000  0.4971740000000  0.4337470000000 1.0
C      1  0.5652890000000  0.5259980000000  0.5253710000000 1.0
C      1  0.5151130000000  0.4507180000000  0.4390180000000 1.0
C      1  0.5113460000000  0.5747420000000  0.5288810000000 1.0
C      1  0.5687400000000  0.4553160000000  0.5272920000000 1.0
C      1  0.5131180000000  0.4779200000000  0.4287090000000 1.0
C      1  0.5420820000000  0.4946870000000  0.5564130000000 1.0
C      1  0.5687020000000  0.5201130000000  0.4968550000000 1.0
C      1  0.5192860000000  0.5424030000000  0.5660510000000 1.0
C      1  0.5037720000000  0.4956830000000  0.4804170000000 1.0
C      1  0.4733980000000  0.4693960000000  0.5490210000000 1.0
C      1  0.4928640000000  0.4978970000000  0.4241670000000 1.0
C      1  0.5500170000000  0.4360600000000  0.5254670000000 1.0
C      1  0.4796940000000  0.5190430000000  0.5750940000000 1.0
C      1  0.4726180000000  0.5593640000000  0.5540990000000 1.0
C      1  0.4768190000000  0.5778110000000  0.4825050000000 1.0
C      1  0.5135410000000  0.5579610000000  0.4569060000000 1.0
C      1  0.5746540000000  0.4915110000000  0.4947440000000 1.0
C      1  0.4762050000000  0.5290460000000  0.4971460000000 1.0
C      1  0.4938630000000  0.5463130000000  0.4390170000000 1.0
C      1  0.5192940000000  0.4985070000000  0.5046350000000 1.0
C      1  0.4275590000000  0.5199030000000  0.5111680000000 1.0
C      1  0.4400620000000  0.4761090000000  0.4948210000000 1.0
C      1  0.5733020000000  0.4809490000000  0.5220100000000 1.0
C      1  0.5506680000000  0.5500130000000  0.5281530000000 1.0
C      1  0.5020370000000  0.4152960000000  0.4707630000000 1.0
C      1  0.4578080000000  0.5638980000000  0.4654330000000 1.0
C      1  0.4656600000000  0.5469250000000  0.4440230000000 1.0
C      1  0.5213250000000  0.5745600000000  0.5018150000000 1.0
C      1  0.5047990000000  0.5748510000000  0.4784290000000 1.0
C      1  0.4499220000000  0.5412240000000  0.5495890000000 1.0
C      1  0.4370780000000  0.4935060000000  0.5184690000000 1.0
C      1  0.5640020000000  0.5014800000000  0.5399670000000 1.0
C      1  0.4555690000000  0.4523630000000  0.4917800000000 1.0
C      1  0.5543230000000  0.5409280000000  0.4814030000000 1.0
C      1  0.5538240000000  0.4445650000000  0.4779430000000 1.0
C      1  0.5296410000000  0.5590400000000  0.5454180000000 1.0
C      1  0.5667800000000  0.4713510000000  0.4758870000000 1.0
C      1  0.4264700000000  0.5294630000000  0.4832410000000 1.0
C      1  0.4417190000000  0.5646050000000  0.5089090000000 1.0
C      1  0.4570910000000  0.4756690000000  0.4504840000000 1.0
C      1  0.5009190000000  0.5009930000000  0.5757480000000 1.0
C      1  0.4327820000000  0.5134920000000  0.4613070000000 1.0
C      1  0.4982230000000  0.4770490000000  0.5617790000000 1.0
C      1  0.5375940000000  0.4923180000000  0.4351230000000 1.0
C      1  0.5215820000000  0.4125740000000  0.4942900000000 1.0
C      1  0.4645170000000  0.4347080000000  0.5127210000000 1.0
C      1  0.4794620000000  0.4014810000000  0.4790310000000 1.0
C      1  0.5282480000000  0.4410370000000  0.5442250000000 1.0
C      1  0.5456460000000  0.4265310000000  0.4985480000000 1.0
C      1  0.4880470000000  0.5276030000000  0.5207930000000 1.0
C      1  0.4663520000000  0.5786690000000  0.5096640000000 1.0
C      1  0.4828790000000  0.5762340000000  0.5329310000000 1.0
C      1  0.5203140000000  0.4738020000000  0.5172230000000 1.0
C      1  0.5109470000000  0.5159540000000  0.5236560000000 1.0
C      1  0.4968500000000  0.4683570000000  0.4791180000000 1.0
C      1  0.4776250000000  0.4434130000000  0.5367530000000 1.0
C      1  0.5543650000000  0.4746180000000  0.4497040000000 1.0
C      1  0.5075000000000  0.4553710000000  0.5009960000000 1.0
C      1  0.4565130000000  0.5146190000000  0.5590470000000 1.0
C      1  0.4371840000000  0.4862280000000  0.4678100000000 1.0
C      1  0.4343900000000  0.5437060000000  0.5267990000000 1.0
C      1  0.5374200000000  0.5410570000000  0.4573620000000 1.0
C      1  0.5037210000000  0.4098550000000  0.5168450000000 1.0
C      1  0.4366430000000  0.5558600000000  0.4825410000000 1.0
C      1  0.5264050000000  0.5141190000000  0.5701200000000 1.0
C      1  0.4831990000000  0.5129890000000  0.4778680000000 1.0
C      1  0.4531290000000  0.4904460000000  0.5433240000000 1.0
C      1  0.5414810000000  0.4487510000000  0.4514260000000 1.0
C      1  0.5035960000000  0.4284820000000  0.5383240000000 1.0
C      1  0.5453950000000  0.5594240000000  0.5016040000000 1.0
C      1  0.4522040000000  0.5214340000000  0.4412470000000 1.0
C      1  0.4946590000000  0.4377140000000  0.4542430000000 1.0
C      1  0.5056720000000  0.5235010000000  0.4272840000000 1.0
C      1  0.4782200000000  0.4115750000000  0.5040320000000 1.0
C      1  0.4909710000000  0.5449100000000  0.5700260000000 1.0
C      1  0.5241720000000  0.4705250000000  0.5486840000000 1.0
C      1  0.5323820000000  0.5206450000000  0.4371540000000 1.0
C      1  0.4724860000000  0.4555950000000  0.4653860000000 1.0
END
