TITL C-45464-3662-2 -21.1914615470439 125000 -1398.61286777563 0 0 198 (C1) n - 1
REM
REM in /rds/project/t2_vol4/rds-t2-cs072/BORA/CARBON/from-Arr/AIRSS/Generating-Clusters/GAP-ML-2020/Only-C1/SD-CG/HFTN-CG/C160-200
REM
REM
REM
REM
REM
REM ./C.cell (f2ad243b7eb7c0cd63fb1bbaf7e03044)
REM AIRSS Version 0.9.1 bugfix July 2018 build 013d7b7c2542+ Fri, 06 Jul 2018 19:26:36 +0100
REM compiler GCC version 9.3.0
REM options -cpp -mtune=generic -march=x86-64 -g -O0
REM seed 220014588 982230923 -1602719665 381875608 -1818450171 -628093125 1750582024 1532616430 1738068801 1477873798 -1641233530 -120907993 235149330 -1521553637 -405484260 -1736288214 1145633569 -1100551859 -1933990684 -640028619 -1004048393 1888051709 1067474652 -935700225 734359957 2081226903 718912940 -1663744379 502245081 -1249242710 613302142 -1435406378 739410645
REM
CELL 1.54180   50.00000   50.00000   50.00000   90.00000   90.00000   90.00000
LATT -1
SFAC C  
C      1  0.4946510000000  0.6159430000000  0.4806140000000 1.0
C      1  0.4673260000000  0.4897000000000  0.5623700000000 1.0
C      1  0.5585850000000  0.5259620000000  0.4579290000000 1.0
C      1  0.5130470000000  0.5071220000000  0.3757960000000 1.0
C      1  0.5225290000000  0.6178380000000  0.4893860000000 1.0
C      1  0.4545410000000  0.5698280000000  0.5002950000000 1.0
C      1  0.4243210000000  0.4169200000000  0.5530220000000 1.0
C      1  0.5363120000000  0.5673730000000  0.4159270000000 1.0
C      1  0.5093860000000  0.5790820000000  0.4204960000000 1.0
C      1  0.5435100000000  0.6071570000000  0.4737610000000 1.0
C      1  0.5127760000000  0.5141570000000  0.4460180000000 1.0
C      1  0.5793460000000  0.5477250000000  0.4623820000000 1.0
C      1  0.4968240000000  0.5491890000000  0.5980010000000 1.0
C      1  0.5294650000000  0.4843740000000  0.3772410000000 1.0
C      1  0.4541460000000  0.5996550000000  0.5097360000000 1.0
C      1  0.4581830000000  0.5354820000000  0.5616850000000 1.0
C      1  0.4135030000000  0.4598160000000  0.4728890000000 1.0
C      1  0.4454180000000  0.5992880000000  0.5357160000000 1.0
C      1  0.5684410000000  0.4114640000000  0.4690220000000 1.0
C      1  0.4761870000000  0.5618530000000  0.5199850000000 1.0
C      1  0.5649380000000  0.5891710000000  0.4815420000000 1.0
C      1  0.5394970000000  0.4866220000000  0.4796930000000 1.0
C      1  0.4104750000000  0.4554550000000  0.5207390000000 1.0
C      1  0.5126810000000  0.4233420000000  0.5782780000000 1.0
C      1  0.4781290000000  0.6149980000000  0.5045580000000 1.0
C      1  0.4718530000000  0.4283170000000  0.5972570000000 1.0
C      1  0.4172410000000  0.5536900000000  0.4598790000000 1.0
C      1  0.4482850000000  0.4767670000000  0.6166830000000 1.0
C      1  0.5888170000000  0.4603820000000  0.5427160000000 1.0
C      1  0.5436380000000  0.5151450000000  0.5116070000000 1.0
C      1  0.5964220000000  0.5525390000000  0.5406510000000 1.0
C      1  0.5864680000000  0.5090690000000  0.5277790000000 1.0
C      1  0.4778960000000  0.4473090000000  0.5469560000000 1.0
C      1  0.4702580000000  0.4827870000000  0.3867500000000 1.0
C      1  0.4377840000000  0.5092820000000  0.4105620000000 1.0
C      1  0.5155670000000  0.4174600000000  0.5291140000000 1.0
C      1  0.5080460000000  0.5273660000000  0.5621590000000 1.0
C      1  0.4232170000000  0.4987740000000  0.5808180000000 1.0
C      1  0.5240250000000  0.4362570000000  0.3938870000000 1.0
C      1  0.4432170000000  0.5019140000000  0.6028510000000 1.0
C      1  0.5449840000000  0.4345210000000  0.4131060000000 1.0
C      1  0.4763980000000  0.4354620000000  0.3983000000000 1.0
C      1  0.4163540000000  0.5797240000000  0.4484230000000 1.0
C      1  0.4314610000000  0.5504520000000  0.5093820000000 1.0
C      1  0.5822760000000  0.4332140000000  0.4564480000000 1.0
C      1  0.4862760000000  0.4125310000000  0.5772500000000 1.0
C      1  0.5735990000000  0.5678040000000  0.5535820000000 1.0
C      1  0.4133400000000  0.5420980000000  0.4860760000000 1.0
C      1  0.5203860000000  0.5539230000000  0.5232420000000 1.0
C      1  0.4471480000000  0.4060490000000  0.5371910000000 1.0
C      1  0.5644170000000  0.5315440000000  0.5236850000000 1.0
C      1  0.4689930000000  0.4779420000000  0.4634070000000 1.0
C      1  0.5056880000000  0.4625710000000  0.5036050000000 1.0
C      1  0.4834950000000  0.5686650000000  0.4244390000000 1.0
C      1  0.5985590000000  0.5257020000000  0.5496800000000 1.0
C      1  0.4585500000000  0.4687430000000  0.5072930000000 1.0
C      1  0.4957810000000  0.6082070000000  0.5533850000000 1.0
C      1  0.5409620000000  0.5660110000000  0.5932370000000 1.0
C      1  0.5514520000000  0.4814180000000  0.4328590000000 1.0
C      1  0.4531780000000  0.4834000000000  0.4114090000000 1.0
C      1  0.5116130000000  0.5004840000000  0.4730450000000 1.0
C      1  0.4712920000000  0.5358770000000  0.5330940000000 1.0
C      1  0.4954840000000  0.5743240000000  0.5840050000000 1.0
C      1  0.4386020000000  0.4571740000000  0.4212270000000 1.0
C      1  0.5226520000000  0.5779950000000  0.5740910000000 1.0
C      1  0.4824140000000  0.5199120000000  0.4405210000000 1.0
C      1  0.5680050000000  0.5076720000000  0.4339270000000 1.0
C      1  0.5608400000000  0.4197230000000  0.4954460000000 1.0
C      1  0.4898540000000  0.4520850000000  0.6027360000000 1.0
C      1  0.4821420000000  0.5289820000000  0.5824860000000 1.0
C      1  0.4387250000000  0.5585860000000  0.5584620000000 1.0
C      1  0.4622300000000  0.4499810000000  0.4634870000000 1.0
C      1  0.4693370000000  0.5615450000000  0.4719680000000 1.0
C      1  0.5379130000000  0.6026630000000  0.4464510000000 1.0
C      1  0.4752370000000  0.4890900000000  0.4361630000000 1.0
C      1  0.5869650000000  0.4499710000000  0.4327000000000 1.0
C      1  0.3896550000000  0.4831220000000  0.5529860000000 1.0
C      1  0.5235270000000  0.6191780000000  0.5178950000000 1.0
C      1  0.5443440000000  0.3988660000000  0.4569170000000 1.0
C      1  0.4466890000000  0.5362820000000  0.4152830000000 1.0
C      1  0.4742630000000  0.4127570000000  0.5481000000000 1.0
C      1  0.5439270000000  0.5214020000000  0.6024100000000 1.0
C      1  0.5262650000000  0.5445010000000  0.6044020000000 1.0
C      1  0.5765220000000  0.4892630000000  0.5707820000000 1.0
C      1  0.5437560000000  0.4869920000000  0.5266540000000 1.0
C      1  0.4922910000000  0.4020520000000  0.5281930000000 1.0
C      1  0.4869610000000  0.4334180000000  0.4607310000000 1.0
C      1  0.4845940000000  0.4676200000000  0.5236320000000 1.0
C      1  0.5153080000000  0.5260590000000  0.5143440000000 1.0
C      1  0.4768740000000  0.4775580000000  0.6115970000000 1.0
C      1  0.4156130000000  0.4695280000000  0.5859390000000 1.0
C      1  0.4978380000000  0.4503410000000  0.5693890000000 1.0
C      1  0.5165340000000  0.5332740000000  0.3868790000000 1.0
C      1  0.4894180000000  0.6053740000000  0.4546620000000 1.0
C      1  0.4531100000000  0.4904810000000  0.4843920000000 1.0
C      1  0.5642740000000  0.5889480000000  0.5336890000000 1.0
C      1  0.4542940000000  0.4643010000000  0.5538280000000 1.0
C      1  0.5224150000000  0.4847450000000  0.5482560000000 1.0
C      1  0.4915160000000  0.4905710000000  0.5413410000000 1.0
C      1  0.5532240000000  0.5468320000000  0.5461330000000 1.0
C      1  0.4507420000000  0.5848230000000  0.5582570000000 1.0
C      1  0.3995650000000  0.5078290000000  0.5641450000000 1.0
C      1  0.3935750000000  0.4807760000000  0.5255210000000 1.0
C      1  0.4431590000000  0.4299190000000  0.5980040000000 1.0
C      1  0.5597230000000  0.4266560000000  0.5467310000000 1.0
C      1  0.5818250000000  0.4603900000000  0.4702780000000 1.0
C      1  0.4973700000000  0.4744780000000  0.4759140000000 1.0
C      1  0.4394560000000  0.4117620000000  0.4608320000000 1.0
C      1  0.4865740000000  0.4258900000000  0.4901310000000 1.0
C      1  0.5664970000000  0.5590790000000  0.5825410000000 1.0
C      1  0.5957530000000  0.5408100000000  0.4844300000000 1.0
C      1  0.5204790000000  0.5580540000000  0.4644650000000 1.0
C      1  0.5379000000000  0.4645020000000  0.5911280000000 1.0
C      1  0.4069020000000  0.4395540000000  0.5457570000000 1.0
C      1  0.4973550000000  0.5222700000000  0.4900640000000 1.0
C      1  0.5225520000000  0.4915160000000  0.4286160000000 1.0
C      1  0.5251510000000  0.4593690000000  0.5618920000000 1.0
C      1  0.5009350000000  0.4212710000000  0.4028510000000 1.0
C      1  0.5912470000000  0.4680140000000  0.4962050000000 1.0
C      1  0.5749440000000  0.4450660000000  0.5622470000000 1.0
C      1  0.5339260000000  0.4187320000000  0.4367850000000 1.0
C      1  0.5066350000000  0.4089460000000  0.4269410000000 1.0
C      1  0.4795320000000  0.3992060000000  0.5012040000000 1.0
C      1  0.5516480000000  0.4684890000000  0.4598280000000 1.0
C      1  0.5068020000000  0.4548300000000  0.4551400000000 1.0
C      1  0.4853470000000  0.4061300000000  0.4471550000000 1.0
C      1  0.4365550000000  0.4200970000000  0.4886430000000 1.0
C      1  0.3991710000000  0.4591440000000  0.5654670000000 1.0
C      1  0.4619590000000  0.5331920000000  0.4617800000000 1.0
C      1  0.4386100000000  0.4726470000000  0.5285290000000 1.0
C      1  0.4190990000000  0.4626160000000  0.4429150000000 1.0
C      1  0.4559080000000  0.4115800000000  0.4388790000000 1.0
C      1  0.4446320000000  0.5083700000000  0.5581050000000 1.0
C      1  0.5306100000000  0.4266190000000  0.5526370000000 1.0
C      1  0.4842500000000  0.5065370000000  0.3806110000000 1.0
C      1  0.5311220000000  0.5357250000000  0.4531870000000 1.0
C      1  0.5338340000000  0.4442630000000  0.4604630000000 1.0
C      1  0.5573050000000  0.5081730000000  0.4855510000000 1.0
C      1  0.4690350000000  0.5830730000000  0.4477490000000 1.0
C      1  0.5854540000000  0.5526200000000  0.5109010000000 1.0
C      1  0.5248560000000  0.5042930000000  0.5694390000000 1.0
C      1  0.4211750000000  0.5117400000000  0.4331920000000 1.0
C      1  0.5889740000000  0.4973640000000  0.4987400000000 1.0
C      1  0.4508260000000  0.5246420000000  0.5141150000000 1.0
C      1  0.4203260000000  0.4908180000000  0.4773670000000 1.0
C      1  0.4720940000000  0.5012880000000  0.5925300000000 1.0
C      1  0.5414040000000  0.6068890000000  0.5374030000000 1.0
C      1  0.4137700000000  0.4414530000000  0.4934760000000 1.0
C      1  0.5972250000000  0.4729370000000  0.4476980000000 1.0
C      1  0.5226290000000  0.3880120000000  0.4710480000000 1.0
C      1  0.5698740000000  0.5321360000000  0.5910140000000 1.0
C      1  0.5727850000000  0.5795110000000  0.5077070000000 1.0
C      1  0.5865360000000  0.5155160000000  0.5745040000000 1.0
C      1  0.4355040000000  0.5356780000000  0.4442380000000 1.0
C      1  0.5633980000000  0.4561030000000  0.4178610000000 1.0
C      1  0.4192710000000  0.5500380000000  0.5382590000000 1.0
C      1  0.5529250000000  0.5811480000000  0.4355620000000 1.0
C      1  0.5661760000000  0.4642730000000  0.5823380000000 1.0
C      1  0.4066340000000  0.5146600000000  0.4910220000000 1.0
C      1  0.4147750000000  0.4902750000000  0.4479160000000 1.0
C      1  0.5739610000000  0.4861300000000  0.5415290000000 1.0
C      1  0.5575730000000  0.5187960000000  0.4057080000000 1.0
C      1  0.5231150000000  0.6020650000000  0.5589600000000 1.0
C      1  0.5396430000000  0.5422760000000  0.4015360000000 1.0
C      1  0.5014270000000  0.4730250000000  0.4314550000000 1.0
C      1  0.5506850000000  0.4976170000000  0.3892890000000 1.0
C      1  0.5124030000000  0.4327630000000  0.5037050000000 1.0
C      1  0.4599080000000  0.4423350000000  0.4917490000000 1.0
C      1  0.4778140000000  0.5905240000000  0.5683980000000 1.0
C      1  0.4951740000000  0.3906060000000  0.4735910000000 1.0
C      1  0.4028990000000  0.5267900000000  0.5416900000000 1.0
C      1  0.4288650000000  0.4152610000000  0.5798790000000 1.0
C      1  0.4394880000000  0.5897350000000  0.4428670000000 1.0
C      1  0.5144950000000  0.4591980000000  0.3801060000000 1.0
C      1  0.4957540000000  0.5190410000000  0.5357790000000 1.0
C      1  0.4651060000000  0.5176390000000  0.4883650000000 1.0
C      1  0.5012180000000  0.5665630000000  0.5083150000000 1.0
C      1  0.4349810000000  0.5033980000000  0.5295500000000 1.0
C      1  0.4039810000000  0.5076110000000  0.5187210000000 1.0
C      1  0.5249270000000  0.5516720000000  0.5518680000000 1.0
C      1  0.4850160000000  0.4589280000000  0.3830980000000 1.0
C      1  0.5188540000000  0.4431490000000  0.6017830000000 1.0
C      1  0.5114920000000  0.6018920000000  0.4374750000000 1.0
C      1  0.5335260000000  0.4952750000000  0.5944310000000 1.0
C      1  0.6008450000000  0.5129470000000  0.4768560000000 1.0
C      1  0.4499970000000  0.4016810000000  0.5089680000000 1.0
C      1  0.5945600000000  0.5006940000000  0.4493430000000 1.0
C      1  0.5724890000000  0.4263790000000  0.5200700000000 1.0
C      1  0.4876640000000  0.5335250000000  0.3910080000000 1.0
C      1  0.5378990000000  0.4376760000000  0.4901840000000 1.0
C      1  0.4984470000000  0.5548820000000  0.4811230000000 1.0
C      1  0.4755680000000  0.5415840000000  0.4161100000000 1.0
C      1  0.5357730000000  0.4690130000000  0.5035570000000 1.0
C      1  0.5902540000000  0.4490970000000  0.5175380000000 1.0
C      1  0.4959300000000  0.6191660000000  0.5270100000000 1.0
C      1  0.5706540000000  0.5736520000000  0.4574990000000 1.0
C      1  0.4543570000000  0.4332930000000  0.4172100000000 1.0
C      1  0.4321970000000  0.4562510000000  0.6047810000000 1.0
END
