TITL C-45464-3662-13 -159.159497725369 125000 -1363.11453548515 0 0 194 (C1) n - 1
REM
REM in /rds/project/t2_vol4/rds-t2-cs072/BORA/CARBON/from-Arr/AIRSS/Generating-Clusters/GAP-ML-2020/Only-C1/SD-CG/HFTN-CG/C160-200
REM
REM
REM
REM
REM
REM ./C.cell (f2ad243b7eb7c0cd63fb1bbaf7e03044)
REM AIRSS Version 0.9.1 bugfix July 2018 build 013d7b7c2542+ Fri, 06 Jul 2018 19:26:36 +0100
REM compiler GCC version 9.3.0
REM options -cpp -mtune=generic -march=x86-64 -g -O0
REM seed 1686698444 -1804557487 -1710603368 -1981317808 1112534133 975393025 1664209684 1518779310 1523804602 1217343953 -387677015 4549976 31653640 432236533 -560358578 1203363862 -903172907 -976950120 -1189794952 1255127601 257063106 1825492413 -891669570 1768943945 -1942185179 159402430 -1866120112 -2016113381 -1520806238 -1005746438 649336736 -849765328 -1508036907
REM
CELL 1.54180   50.00000   50.00000   50.00000   90.00000   90.00000   90.00000
LATT -1
SFAC C  
C      1  0.5388410000000  0.6141380000000  0.4885170000000 1.0
C      1  0.4710950000000  0.4903800000000  0.5477320000000 1.0
C      1  0.5128720000000  0.5384870000000  0.3970490000000 1.0
C      1  0.5033120000000  0.4443810000000  0.4157270000000 1.0
C      1  0.5359640000000  0.6077700000000  0.5391850000000 1.0
C      1  0.4928790000000  0.5599620000000  0.5728030000000 1.0
C      1  0.4024690000000  0.5397120000000  0.4409150000000 1.0
C      1  0.5316670000000  0.4844690000000  0.4452490000000 1.0
C      1  0.4287410000000  0.5100330000000  0.4186000000000 1.0
C      1  0.5328220000000  0.3928530000000  0.4369190000000 1.0
C      1  0.3919810000000  0.4380180000000  0.5220170000000 1.0
C      1  0.4442300000000  0.4230790000000  0.5542710000000 1.0
C      1  0.4953810000000  0.4421960000000  0.6019820000000 1.0
C      1  0.5237990000000  0.5646570000000  0.5106480000000 1.0
C      1  0.5242160000000  0.6159200000000  0.5140670000000 1.0
C      1  0.5582800000000  0.5123190000000  0.4674910000000 1.0
C      1  0.4373360000000  0.5711160000000  0.4540930000000 1.0
C      1  0.4745320000000  0.4275240000000  0.5589320000000 1.0
C      1  0.4627010000000  0.5894780000000  0.4848100000000 1.0
C      1  0.5527210000000  0.4148550000000  0.4380900000000 1.0
C      1  0.4874680000000  0.4979250000000  0.4016620000000 1.0
C      1  0.4304610000000  0.4451400000000  0.5668650000000 1.0
C      1  0.5832180000000  0.5536950000000  0.4809340000000 1.0
C      1  0.4650330000000  0.5444880000000  0.4075580000000 1.0
C      1  0.4758450000000  0.5968630000000  0.4569010000000 1.0
C      1  0.5185280000000  0.4105130000000  0.4950920000000 1.0
C      1  0.5975890000000  0.4421960000000  0.5131660000000 1.0
C      1  0.5471770000000  0.4954210000000  0.4903320000000 1.0
C      1  0.5495550000000  0.4569620000000  0.4053990000000 1.0
C      1  0.4847650000000  0.4969680000000  0.5947740000000 1.0
C      1  0.4732270000000  0.4773950000000  0.5205800000000 1.0
C      1  0.4642740000000  0.4779560000000  0.4049780000000 1.0
C      1  0.4760790000000  0.4568160000000  0.4225460000000 1.0
C      1  0.4260190000000  0.4722900000000  0.4362860000000 1.0
C      1  0.5185770000000  0.4065040000000  0.5452290000000 1.0
C      1  0.5012420000000  0.4539620000000  0.4607040000000 1.0
C      1  0.4971250000000  0.4053120000000  0.4713100000000 1.0
C      1  0.5145760000000  0.4255760000000  0.5886690000000 1.0
C      1  0.5785490000000  0.4264630000000  0.5043950000000 1.0
C      1  0.4491980000000  0.5303390000000  0.4292660000000 1.0
C      1  0.5211060000000  0.4572170000000  0.3962020000000 1.0
C      1  0.4788390000000  0.5190490000000  0.5446460000000 1.0
C      1  0.4920310000000  0.4179660000000  0.4241570000000 1.0
C      1  0.5619660000000  0.4361790000000  0.4794920000000 1.0
C      1  0.6077010000000  0.4800110000000  0.4813610000000 1.0
C      1  0.6045900000000  0.5090810000000  0.5284520000000 1.0
C      1  0.4826520000000  0.4744170000000  0.4463970000000 1.0
C      1  0.5019440000000  0.5053400000000  0.4823990000000 1.0
C      1  0.5296660000000  0.5191890000000  0.5271160000000 1.0
C      1  0.5345420000000  0.5487860000000  0.6118230000000 1.0
C      1  0.5042890000000  0.5598620000000  0.5299910000000 1.0
C      1  0.4650810000000  0.4510870000000  0.4839560000000 1.0
C      1  0.5116770000000  0.4690070000000  0.5593970000000 1.0
C      1  0.4865560000000  0.4772680000000  0.5714530000000 1.0
C      1  0.5906970000000  0.5258020000000  0.5468580000000 1.0
C      1  0.5516620000000  0.4435730000000  0.4330820000000 1.0
C      1  0.4954940000000  0.6184000000000  0.4584120000000 1.0
C      1  0.5239970000000  0.4854990000000  0.4746430000000 1.0
C      1  0.5399010000000  0.4406070000000  0.5861710000000 1.0
C      1  0.5219000000000  0.6122770000000  0.4643000000000 1.0
C      1  0.4319550000000  0.4074760000000  0.4685560000000 1.0
C      1  0.5855210000000  0.5626110000000  0.5093380000000 1.0
C      1  0.5691700000000  0.4567540000000  0.4564010000000 1.0
C      1  0.5214290000000  0.5742280000000  0.6059570000000 1.0
C      1  0.5081930000000  0.5795920000000  0.4905240000000 1.0
C      1  0.4695570000000  0.5715570000000  0.4145080000000 1.0
C      1  0.4811900000000  0.4330940000000  0.4652900000000 1.0
C      1  0.5351630000000  0.5851640000000  0.5837510000000 1.0
C      1  0.4485180000000  0.3917050000000  0.4849630000000 1.0
C      1  0.5342100000000  0.5300900000000  0.4576370000000 1.0
C      1  0.4384370000000  0.4226550000000  0.4437520000000 1.0
C      1  0.5281910000000  0.5382130000000  0.5048010000000 1.0
C      1  0.6000850000000  0.5073390000000  0.4819510000000 1.0
C      1  0.5114360000000  0.4603370000000  0.6142810000000 1.0
C      1  0.4549960000000  0.5366500000000  0.5918140000000 1.0
C      1  0.5133630000000  0.5316140000000  0.4781710000000 1.0
C      1  0.4897670000000  0.5473660000000  0.4639280000000 1.0
C      1  0.4426640000000  0.4963620000000  0.5430110000000 1.0
C      1  0.5346570000000  0.5211990000000  0.4065740000000 1.0
C      1  0.5848330000000  0.5524290000000  0.5371490000000 1.0
C      1  0.4701370000000  0.6031100000000  0.5107670000000 1.0
C      1  0.4703860000000  0.5410870000000  0.5656720000000 1.0
C      1  0.4655260000000  0.5959290000000  0.5608550000000 1.0
C      1  0.5672100000000  0.4616440000000  0.5525110000000 1.0
C      1  0.5605090000000  0.4865170000000  0.4493620000000 1.0
C      1  0.4792730000000  0.3899570000000  0.5124310000000 1.0
C      1  0.5052730000000  0.4759620000000  0.5128270000000 1.0
C      1  0.5098080000000  0.5083340000000  0.6034320000000 1.0
C      1  0.4563890000000  0.5847200000000  0.4377960000000 1.0
C      1  0.3942870000000  0.4957820000000  0.4964110000000 1.0
C      1  0.4010720000000  0.4636940000000  0.5293200000000 1.0
C      1  0.4446980000000  0.4910260000000  0.5139090000000 1.0
C      1  0.4380450000000  0.4839090000000  0.4130870000000 1.0
C      1  0.4207470000000  0.4456650000000  0.4446580000000 1.0
C      1  0.5208830000000  0.5822600000000  0.4618240000000 1.0
C      1  0.4231950000000  0.4715710000000  0.5076880000000 1.0
C      1  0.4338350000000  0.4103070000000  0.5302790000000 1.0
C      1  0.5559640000000  0.4374890000000  0.5637430000000 1.0
C      1  0.5228110000000  0.4550600000000  0.4385970000000 1.0
C      1  0.5128260000000  0.5496280000000  0.5552720000000 1.0
C      1  0.4929860000000  0.5918890000000  0.5664510000000 1.0
C      1  0.4925960000000  0.5026900000000  0.4342540000000 1.0
C      1  0.4066480000000  0.5367230000000  0.5345890000000 1.0
C      1  0.5350490000000  0.4668820000000  0.6012100000000 1.0
C      1  0.5096420000000  0.5238350000000  0.5468560000000 1.0
C      1  0.5388290000000  0.4975910000000  0.3916500000000 1.0
C      1  0.5653080000000  0.5727400000000  0.4695070000000 1.0
C      1  0.6021030000000  0.4785230000000  0.4324440000000 1.0
C      1  0.4749640000000  0.5230310000000  0.4504580000000 1.0
C      1  0.5446860000000  0.5617330000000  0.4224910000000 1.0
C      1  0.4198970000000  0.4911530000000  0.5615890000000 1.0
C      1  0.5014530000000  0.4082560000000  0.5204520000000 1.0
C      1  0.5365740000000  0.4960630000000  0.5969120000000 1.0
C      1  0.4864520000000  0.5280560000000  0.3965730000000 1.0
C      1  0.6087340000000  0.4664500000000  0.5092960000000 1.0
C      1  0.5546110000000  0.5423770000000  0.5930460000000 1.0
C      1  0.4308650000000  0.4873060000000  0.4627460000000 1.0
C      1  0.5611140000000  0.4820270000000  0.4014200000000 1.0
C      1  0.4672730000000  0.5296110000000  0.5184780000000 1.0
C      1  0.4612200000000  0.4783830000000  0.4679960000000 1.0
C      1  0.5058370000000  0.4004730000000  0.4413320000000 1.0
C      1  0.5099310000000  0.5346460000000  0.6126030000000 1.0
C      1  0.4302770000000  0.5187160000000  0.4735350000000 1.0
C      1  0.4457800000000  0.4601720000000  0.5857040000000 1.0
C      1  0.5130090000000  0.4839290000000  0.3903110000000 1.0
C      1  0.4020680000000  0.5214100000000  0.4853260000000 1.0
C      1  0.6066480000000  0.4825390000000  0.5339730000000 1.0
C      1  0.5574150000000  0.5674440000000  0.5774510000000 1.0
C      1  0.4984330000000  0.6055600000000  0.5065980000000 1.0
C      1  0.5702590000000  0.5718580000000  0.5525900000000 1.0
C      1  0.5441610000000  0.3939330000000  0.5001000000000 1.0
C      1  0.5448620000000  0.4204950000000  0.5405340000000 1.0
C      1  0.4870200000000  0.4344720000000  0.5299280000000 1.0
C      1  0.4075990000000  0.4469920000000  0.4699940000000 1.0
C      1  0.5553870000000  0.3868640000000  0.4749960000000 1.0
C      1  0.5532330000000  0.4698160000000  0.5277160000000 1.0
C      1  0.4312900000000  0.5771680000000  0.5287730000000 1.0
C      1  0.4650890000000  0.5628520000000  0.6038750000000 1.0
C      1  0.5441850000000  0.3732950000000  0.4538370000000 1.0
C      1  0.4379470000000  0.4881130000000  0.5868150000000 1.0
C      1  0.5639720000000  0.4118020000000  0.4631980000000 1.0
C      1  0.4019640000000  0.5152030000000  0.4291860000000 1.0
C      1  0.5583110000000  0.5372630000000  0.4163890000000 1.0
C      1  0.4109310000000  0.4740040000000  0.4818720000000 1.0
C      1  0.4727430000000  0.5049610000000  0.4757960000000 1.0
C      1  0.5329820000000  0.4924500000000  0.5189950000000 1.0
C      1  0.4973110000000  0.5759950000000  0.4188530000000 1.0
C      1  0.4818400000000  0.5646610000000  0.4883740000000 1.0
C      1  0.4674550000000  0.4300240000000  0.4368330000000 1.0
C      1  0.5867580000000  0.5067970000000  0.5072470000000 1.0
C      1  0.4967170000000  0.5740430000000  0.4477460000000 1.0
C      1  0.5878130000000  0.4803140000000  0.5566000000000 1.0
C      1  0.5100300000000  0.4550610000000  0.5338700000000 1.0
C      1  0.5614440000000  0.5938110000000  0.5362590000000 1.0
C      1  0.3909450000000  0.4919050000000  0.5241240000000 1.0
C      1  0.5994670000000  0.4659850000000  0.4570500000000 1.0
C      1  0.5432210000000  0.5636510000000  0.4519530000000 1.0
C      1  0.4013820000000  0.5095920000000  0.5436110000000 1.0
C      1  0.4945780000000  0.5599860000000  0.6035050000000 1.0
C      1  0.4526400000000  0.5144250000000  0.4966410000000 1.0
C      1  0.5607180000000  0.4076770000000  0.5184220000000 1.0
C      1  0.5326090000000  0.4388070000000  0.4941250000000 1.0
C      1  0.4797980000000  0.5535290000000  0.5149060000000 1.0
C      1  0.4062130000000  0.5437780000000  0.5065460000000 1.0
C      1  0.5788860000000  0.5069640000000  0.5659900000000 1.0
C      1  0.4568190000000  0.5076860000000  0.5961170000000 1.0
C      1  0.4355080000000  0.5799080000000  0.4808820000000 1.0
C      1  0.4501740000000  0.3941660000000  0.5142640000000 1.0
C      1  0.5020060000000  0.4134560000000  0.5668310000000 1.0
C      1  0.4540390000000  0.5957190000000  0.5337590000000 1.0
C      1  0.3903090000000  0.5211520000000  0.4563770000000 1.0
C      1  0.4133520000000  0.4225020000000  0.4843380000000 1.0
C      1  0.5142290000000  0.4607060000000  0.4862530000000 1.0
C      1  0.5196950000000  0.5635430000000  0.4078700000000 1.0
C      1  0.4773790000000  0.3870650000000  0.4842260000000 1.0
C      1  0.4407230000000  0.5551580000000  0.5700300000000 1.0
C      1  0.5732020000000  0.5885450000000  0.5108760000000 1.0
C      1  0.5791680000000  0.4937920000000  0.4241610000000 1.0
C      1  0.4226500000000  0.5569330000000  0.5476330000000 1.0
C      1  0.4114790000000  0.4206920000000  0.5133870000000 1.0
C      1  0.4218380000000  0.5684640000000  0.5030040000000 1.0
C      1  0.5209470000000  0.6002110000000  0.5631370000000 1.0
C      1  0.5368270000000  0.4454490000000  0.5232480000000 1.0
C      1  0.4314150000000  0.5431710000000  0.4498400000000 1.0
C      1  0.4122760000000  0.4638630000000  0.5556550000000 1.0
C      1  0.5681830000000  0.4834460000000  0.5057080000000 1.0
C      1  0.5584770000000  0.5136690000000  0.5863760000000 1.0
C      1  0.4526470000000  0.5789110000000  0.5815940000000 1.0
C      1  0.4738560000000  0.4503570000000  0.5817630000000 1.0
C      1  0.5216730000000  0.5106980000000  0.4355960000000 1.0
C      1  0.5607880000000  0.5958570000000  0.4868270000000 1.0
C      1  0.5783260000000  0.5241600000000  0.4306740000000 1.0
C      1  0.5845650000000  0.5267870000000  0.4661500000000 1.0
C      1  0.4684390000000  0.4503480000000  0.5120690000000 1.0
END
