TITL C-45464-3662-24 5.54528095229084 125000 -1191.49930472309 0 0 167 (C1) n - 1
REM
REM in /rds/project/t2_vol4/rds-t2-cs072/BORA/CARBON/from-Arr/AIRSS/Generating-Clusters/GAP-ML-2020/Only-C1/SD-CG/HFTN-CG/C160-200
REM
REM
REM
REM
REM
REM ./C.cell (f2ad243b7eb7c0cd63fb1bbaf7e03044)
REM AIRSS Version 0.9.1 bugfix July 2018 build 013d7b7c2542+ Fri, 06 Jul 2018 19:26:36 +0100
REM compiler GCC version 9.3.0
REM options -cpp -mtune=generic -march=x86-64 -g -O0
REM seed -1376775918 429769100 -348798679 957217924 -1356501551 908854019 -1104394 -874594166 1195013842 1983905608 1925645642 -957259978 -2069485090 -1631670491 -1007561590 299083157 723179629 1787760858 -979079948 -168517871 541537673 911406184 -1109973806 912037954 -2058839719 -715536104 -1394626539 -209248468 454853563 -709413738 2097327296 -1999716097 -1455722783
REM
CELL 1.54180   50.00000   50.00000   50.00000   90.00000   90.00000   90.00000
LATT -1
SFAC C  
C      1  0.4216330000000  0.4890680000000  0.5049720000000 1.0
C      1  0.5143640000000  0.4758880000000  0.4469430000000 1.0
C      1  0.5491230000000  0.4019390000000  0.4968610000000 1.0
C      1  0.5009320000000  0.5375640000000  0.4234300000000 1.0
C      1  0.6086480000000  0.4855370000000  0.4899760000000 1.0
C      1  0.5214180000000  0.4863950000000  0.5426870000000 1.0
C      1  0.4972080000000  0.5255680000000  0.3927250000000 1.0
C      1  0.5150960000000  0.5231520000000  0.5749500000000 1.0
C      1  0.3955060000000  0.5147220000000  0.4700830000000 1.0
C      1  0.4463650000000  0.5072050000000  0.5876410000000 1.0
C      1  0.4772880000000  0.5353020000000  0.6073880000000 1.0
C      1  0.4782570000000  0.4195920000000  0.4381580000000 1.0
C      1  0.4029690000000  0.5172300000000  0.5593750000000 1.0
C      1  0.4559140000000  0.4547320000000  0.5265370000000 1.0
C      1  0.5499880000000  0.4795530000000  0.3867640000000 1.0
C      1  0.4816770000000  0.4259570000000  0.5638780000000 1.0
C      1  0.5562660000000  0.3989330000000  0.4696180000000 1.0
C      1  0.4977680000000  0.4772670000000  0.4229260000000 1.0
C      1  0.5159140000000  0.5854670000000  0.5558870000000 1.0
C      1  0.5296020000000  0.4275450000000  0.4381980000000 1.0
C      1  0.4538980000000  0.5382410000000  0.4338490000000 1.0
C      1  0.5926540000000  0.5301120000000  0.5476410000000 1.0
C      1  0.3921820000000  0.4643060000000  0.4902630000000 1.0
C      1  0.6019040000000  0.5235460000000  0.4645910000000 1.0
C      1  0.5090290000000  0.5989970000000  0.5078080000000 1.0
C      1  0.5255420000000  0.5184000000000  0.3937790000000 1.0
C      1  0.4916370000000  0.4425990000000  0.5892330000000 1.0
C      1  0.4971630000000  0.4514810000000  0.4098310000000 1.0
C      1  0.5645980000000  0.5880620000000  0.4984440000000 1.0
C      1  0.5195420000000  0.4449190000000  0.5857900000000 1.0
C      1  0.4676280000000  0.4902880000000  0.6053890000000 1.0
C      1  0.5849140000000  0.4738130000000  0.4506720000000 1.0
C      1  0.5392680000000  0.5316980000000  0.4833130000000 1.0
C      1  0.3989500000000  0.4739740000000  0.5408930000000 1.0
C      1  0.5208410000000  0.6033800000000  0.4822860000000 1.0
C      1  0.4588890000000  0.4960780000000  0.4042910000000 1.0
C      1  0.4781180000000  0.5217560000000  0.4668360000000 1.0
C      1  0.5103560000000  0.3991600000000  0.5273270000000 1.0
C      1  0.5761450000000  0.4815730000000  0.5668390000000 1.0
C      1  0.5381220000000  0.4549930000000  0.4504230000000 1.0
C      1  0.5994840000000  0.5544990000000  0.5047380000000 1.0
C      1  0.4374240000000  0.4779970000000  0.4099560000000 1.0
C      1  0.4907530000000  0.5344450000000  0.4872330000000 1.0
C      1  0.6076320000000  0.5305620000000  0.4919540000000 1.0
C      1  0.5452720000000  0.4626010000000  0.4067190000000 1.0
C      1  0.5797360000000  0.5661080000000  0.4603090000000 1.0
C      1  0.4747630000000  0.4941430000000  0.4299830000000 1.0
C      1  0.4664340000000  0.5036710000000  0.5632370000000 1.0
C      1  0.5497400000000  0.4862800000000  0.4823490000000 1.0
C      1  0.5418310000000  0.5083210000000  0.4666130000000 1.0
C      1  0.4727900000000  0.4378500000000  0.4157390000000 1.0
C      1  0.4519740000000  0.5353260000000  0.5947160000000 1.0
C      1  0.4745930000000  0.5289540000000  0.5103570000000 1.0
C      1  0.4247750000000  0.4384630000000  0.4283030000000 1.0
C      1  0.5892100000000  0.5425700000000  0.4470500000000 1.0
C      1  0.5372400000000  0.5676870000000  0.4354990000000 1.0
C      1  0.5746620000000  0.5366520000000  0.4221260000000 1.0
C      1  0.4328570000000  0.4242130000000  0.4942800000000 1.0
C      1  0.5477680000000  0.5442910000000  0.4248330000000 1.0
C      1  0.5723980000000  0.5319090000000  0.5682110000000 1.0
C      1  0.5730620000000  0.5216740000000  0.3991360000000 1.0
C      1  0.5473630000000  0.5947700000000  0.4770860000000 1.0
C      1  0.4448150000000  0.4721600000000  0.5482080000000 1.0
C      1  0.5550040000000  0.5856540000000  0.5248260000000 1.0
C      1  0.5152210000000  0.5072060000000  0.5999250000000 1.0
C      1  0.4839600000000  0.4269000000000  0.4912140000000 1.0
C      1  0.4036930000000  0.5418750000000  0.4770620000000 1.0
C      1  0.4811080000000  0.4511150000000  0.5468210000000 1.0
C      1  0.5596990000000  0.5052090000000  0.5751730000000 1.0
C      1  0.5592960000000  0.5586610000000  0.5650490000000 1.0
C      1  0.4701780000000  0.5903590000000  0.5354890000000 1.0
C      1  0.4156590000000  0.4275320000000  0.4721530000000 1.0
C      1  0.4095800000000  0.5072960000000  0.4448350000000 1.0
C      1  0.5551220000000  0.5802110000000  0.4539040000000 1.0
C      1  0.5402230000000  0.4643600000000  0.5926810000000 1.0
C      1  0.5924160000000  0.5541500000000  0.5323950000000 1.0
C      1  0.5249980000000  0.4412940000000  0.4111980000000 1.0
C      1  0.4736390000000  0.4648300000000  0.5935880000000 1.0
C      1  0.4896640000000  0.5393230000000  0.5339480000000 1.0
C      1  0.5510830000000  0.5234810000000  0.5087980000000 1.0
C      1  0.5397270000000  0.4925970000000  0.5974420000000 1.0
C      1  0.3901340000000  0.4947970000000  0.4923290000000 1.0
C      1  0.4912830000000  0.5198350000000  0.5555290000000 1.0
C      1  0.4869970000000  0.5870130000000  0.5585470000000 1.0
C      1  0.4528710000000  0.4991600000000  0.5374610000000 1.0
C      1  0.4455340000000  0.4495800000000  0.4123930000000 1.0
C      1  0.5102280000000  0.4550520000000  0.5412470000000 1.0
C      1  0.4500870000000  0.5575870000000  0.5761800000000 1.0
C      1  0.4314280000000  0.5131800000000  0.5220030000000 1.0
C      1  0.4747300000000  0.5118040000000  0.3873210000000 1.0
C      1  0.5732050000000  0.4358410000000  0.5335000000000 1.0
C      1  0.6111350000000  0.5075010000000  0.5079030000000 1.0
C      1  0.4188940000000  0.5344070000000  0.5431150000000 1.0
C      1  0.5912200000000  0.4572730000000  0.5259030000000 1.0
C      1  0.4196790000000  0.4998030000000  0.5757150000000 1.0
C      1  0.5160540000000  0.5499860000000  0.5232710000000 1.0
C      1  0.4670420000000  0.4769360000000  0.4570690000000 1.0
C      1  0.4563860000000  0.4138860000000  0.4551470000000 1.0
C      1  0.5376400000000  0.5314000000000  0.5323250000000 1.0
C      1  0.4338730000000  0.5232530000000  0.4497170000000 1.0
C      1  0.5519900000000  0.5074340000000  0.3874570000000 1.0
C      1  0.5056860000000  0.6045970000000  0.4597540000000 1.0
C      1  0.5084940000000  0.5654080000000  0.4331460000000 1.0
C      1  0.4755370000000  0.4971990000000  0.5185400000000 1.0
C      1  0.4883890000000  0.5091850000000  0.6112810000000 1.0
C      1  0.5931030000000  0.4803480000000  0.5439910000000 1.0
C      1  0.4350290000000  0.5571070000000  0.5510060000000 1.0
C      1  0.5853800000000  0.5716810000000  0.4877500000000 1.0
C      1  0.5330110000000  0.5682530000000  0.5725070000000 1.0
C      1  0.4476850000000  0.5632250000000  0.4477060000000 1.0
C      1  0.4794610000000  0.5233240000000  0.4379810000000 1.0
C      1  0.5537130000000  0.4956070000000  0.5080020000000 1.0
C      1  0.6026250000000  0.5059730000000  0.5351390000000 1.0
C      1  0.5344150000000  0.4794640000000  0.5184730000000 1.0
C      1  0.4989050000000  0.5010830000000  0.5349920000000 1.0
C      1  0.4496900000000  0.4832890000000  0.4814340000000 1.0
C      1  0.4277230000000  0.5525660000000  0.4921810000000 1.0
C      1  0.4685350000000  0.4714940000000  0.5659440000000 1.0
C      1  0.5566320000000  0.4737360000000  0.4345510000000 1.0
C      1  0.5033930000000  0.4096550000000  0.4791470000000 1.0
C      1  0.5170510000000  0.5506290000000  0.5868850000000 1.0
C      1  0.5507430000000  0.4067990000000  0.4463790000000 1.0
C      1  0.4680450000000  0.4719060000000  0.5042320000000 1.0
C      1  0.5970500000000  0.4612320000000  0.4976240000000 1.0
C      1  0.4299700000000  0.4201260000000  0.4484510000000 1.0
C      1  0.5623290000000  0.4585750000000  0.5752290000000 1.0
C      1  0.5040650000000  0.4164200000000  0.4507670000000 1.0
C      1  0.6013590000000  0.4943470000000  0.4633140000000 1.0
C      1  0.4449470000000  0.5766360000000  0.5319140000000 1.0
C      1  0.4660810000000  0.5805980000000  0.4610430000000 1.0
C      1  0.5068980000000  0.4125820000000  0.5503750000000 1.0
C      1  0.5409690000000  0.4423500000000  0.4989760000000 1.0
C      1  0.5194110000000  0.3986720000000  0.5011220000000 1.0
C      1  0.4451460000000  0.5288370000000  0.5007980000000 1.0
C      1  0.4507860000000  0.5129000000000  0.4749840000000 1.0
C      1  0.4251780000000  0.5511290000000  0.4610670000000 1.0
C      1  0.5812020000000  0.4554990000000  0.4732150000000 1.0
C      1  0.4929710000000  0.4706250000000  0.4666220000000 1.0
C      1  0.4091450000000  0.4616520000000  0.5161080000000 1.0
C      1  0.5361520000000  0.5119460000000  0.5565880000000 1.0
C      1  0.5587970000000  0.4238540000000  0.5118840000000 1.0
C      1  0.4918080000000  0.5842000000000  0.4481210000000 1.0
C      1  0.3868220000000  0.4996610000000  0.5410300000000 1.0
C      1  0.3989610000000  0.4500160000000  0.4671590000000 1.0
C      1  0.4398220000000  0.5762290000000  0.5037740000000 1.0
C      1  0.4341850000000  0.4200310000000  0.5453200000000 1.0
C      1  0.4584000000000  0.4176430000000  0.4833330000000 1.0
C      1  0.4917640000000  0.5574690000000  0.5972430000000 1.0
C      1  0.5266560000000  0.4344250000000  0.5584990000000 1.0
C      1  0.5345610000000  0.4988140000000  0.4414300000000 1.0
C      1  0.5250720000000  0.5844390000000  0.5282240000000 1.0
C      1  0.5568210000000  0.4377770000000  0.5568580000000 1.0
C      1  0.5180760000000  0.4560930000000  0.5109030000000 1.0
C      1  0.4140270000000  0.4837290000000  0.4284120000000 1.0
C      1  0.4617660000000  0.5876460000000  0.4891110000000 1.0
C      1  0.3767740000000  0.5038970000000  0.5163520000000 1.0
C      1  0.4809070000000  0.5966430000000  0.5095330000000 1.0
C      1  0.4302260000000  0.4376010000000  0.5201940000000 1.0
C      1  0.5713890000000  0.5707440000000  0.5423400000000 1.0
C      1  0.5278630000000  0.5227890000000  0.4225380000000 1.0
C      1  0.5161120000000  0.5451220000000  0.4915920000000 1.0
C      1  0.4744490000000  0.5724310000000  0.5795880000000 1.0
C      1  0.4542280000000  0.4159100000000  0.5603740000000 1.0
C      1  0.5514980000000  0.4568900000000  0.4764980000000 1.0
C      1  0.4924280000000  0.4568230000000  0.4928390000000 1.0
C      1  0.4064400000000  0.4580900000000  0.4392800000000 1.0
C      1  0.4186760000000  0.4754600000000  0.5605910000000 1.0
END
