TITL C-45464-3662-16 -610.086105403682 125000 -1183.3772207018 0 0 169 (C1) n - 1
REM
REM in /rds/project/t2_vol4/rds-t2-cs072/BORA/CARBON/from-Arr/AIRSS/Generating-Clusters/GAP-ML-2020/Only-C1/SD-CG/HFTN-CG/C160-200
REM
REM
REM
REM
REM
REM ./C.cell (f2ad243b7eb7c0cd63fb1bbaf7e03044)
REM AIRSS Version 0.9.1 bugfix July 2018 build 013d7b7c2542+ Fri, 06 Jul 2018 19:26:36 +0100
REM compiler GCC version 9.3.0
REM options -cpp -mtune=generic -march=x86-64 -g -O0
REM seed -1811976121 -1038775068 -1050355200 1049540301 -2023978394 -1685194197 -798690001 1516286180 -1727400254 860992012 418395921 1507201054 -322809454 -384690359 1860088938 270523556 1755919629 1390356216 -649072377 -967999777 -1122955175 1559710259 -1461530025 -207676384 1617495765 -1693775106 1318555750 672720446 496692151 -1360536561 1144709578 -1242021648 1621812511
REM
CELL 1.54180   50.00000   50.00000   50.00000   90.00000   90.00000   90.00000
LATT -1
SFAC C  
C      1  0.4419900000000  0.5585930000000  0.4524610000000 1.0
C      1  0.4888300000000  0.4147660000000  0.4265890000000 1.0
C      1  0.4810560000000  0.4998660000000  0.4282100000000 1.0
C      1  0.4579550000000  0.5639240000000  0.4275610000000 1.0
C      1  0.5672370000000  0.4333280000000  0.4615200000000 1.0
C      1  0.5241820000000  0.5590930000000  0.4892810000000 1.0
C      1  0.5237180000000  0.4474680000000  0.5973100000000 1.0
C      1  0.4972800000000  0.5237550000000  0.5463750000000 1.0
C      1  0.5074640000000  0.6107270000000  0.5206890000000 1.0
C      1  0.4588030000000  0.5133160000000  0.4138870000000 1.0
C      1  0.4714340000000  0.5142250000000  0.5371990000000 1.0
C      1  0.4654000000000  0.5455590000000  0.4703020000000 1.0
C      1  0.4342090000000  0.5776790000000  0.5228790000000 1.0
C      1  0.4110710000000  0.4994980000000  0.5269770000000 1.0
C      1  0.5714670000000  0.4309510000000  0.5289560000000 1.0
C      1  0.5246750000000  0.4936350000000  0.5243530000000 1.0
C      1  0.4652770000000  0.5407450000000  0.4104160000000 1.0
C      1  0.5630060000000  0.4572300000000  0.4427670000000 1.0
C      1  0.4448170000000  0.4728890000000  0.4408010000000 1.0
C      1  0.4624190000000  0.4670710000000  0.4919500000000 1.0
C      1  0.4916480000000  0.6015750000000  0.4778060000000 1.0
C      1  0.5542540000000  0.5787630000000  0.4637560000000 1.0
C      1  0.5252170000000  0.5018540000000  0.4541010000000 1.0
C      1  0.4855300000000  0.4297510000000  0.5709100000000 1.0
C      1  0.5400190000000  0.4346640000000  0.5777960000000 1.0
C      1  0.5334980000000  0.4705730000000  0.4816980000000 1.0
C      1  0.5812500000000  0.4816730000000  0.4496440000000 1.0
C      1  0.5182370000000  0.5050800000000  0.5493340000000 1.0
C      1  0.5034770000000  0.4027800000000  0.5244740000000 1.0
C      1  0.4740140000000  0.5147430000000  0.6047720000000 1.0
C      1  0.5716690000000  0.4993740000000  0.5805440000000 1.0
C      1  0.5122190000000  0.5460750000000  0.5887030000000 1.0
C      1  0.4285700000000  0.5230320000000  0.5147270000000 1.0
C      1  0.4465040000000  0.5104040000000  0.4946330000000 1.0
C      1  0.4369580000000  0.4865440000000  0.5874120000000 1.0
C      1  0.5158480000000  0.5260440000000  0.3965250000000 1.0
C      1  0.4171600000000  0.5133450000000  0.4307440000000 1.0
C      1  0.5747370000000  0.5600740000000  0.4686880000000 1.0
C      1  0.4388620000000  0.4830390000000  0.4928660000000 1.0
C      1  0.5221500000000  0.6116250000000  0.5442450000000 1.0
C      1  0.5768350000000  0.5682140000000  0.5228100000000 1.0
C      1  0.4133530000000  0.5604910000000  0.5346640000000 1.0
C      1  0.4063440000000  0.5454610000000  0.5111000000000 1.0
C      1  0.4508920000000  0.5184010000000  0.4670500000000 1.0
C      1  0.4105600000000  0.5115160000000  0.5541460000000 1.0
C      1  0.4542520000000  0.4247310000000  0.4563840000000 1.0
C      1  0.5373960000000  0.5860060000000  0.4865060000000 1.0
C      1  0.5335920000000  0.4713060000000  0.4510280000000 1.0
C      1  0.5020780000000  0.5167990000000  0.4424530000000 1.0
C      1  0.4722790000000  0.5126730000000  0.5077620000000 1.0
C      1  0.4541290000000  0.4631060000000  0.5903070000000 1.0
C      1  0.5313950000000  0.4189210000000  0.5556850000000 1.0
C      1  0.6057390000000  0.5334030000000  0.5308130000000 1.0
C      1  0.4698940000000  0.5937890000000  0.4966910000000 1.0
C      1  0.5301290000000  0.5865070000000  0.5517700000000 1.0
C      1  0.4820550000000  0.5806390000000  0.4296060000000 1.0
C      1  0.6084630000000  0.5121610000000  0.5472980000000 1.0
C      1  0.4399040000000  0.5890170000000  0.4964520000000 1.0
C      1  0.4005260000000  0.5374650000000  0.4696390000000 1.0
C      1  0.5118330000000  0.5610920000000  0.4612240000000 1.0
C      1  0.5161950000000  0.6048210000000  0.4930880000000 1.0
C      1  0.4952210000000  0.4752530000000  0.5551380000000 1.0
C      1  0.4965130000000  0.4011920000000  0.4771670000000 1.0
C      1  0.4534750000000  0.4666430000000  0.5416720000000 1.0
C      1  0.4574250000000  0.5605290000000  0.5257290000000 1.0
C      1  0.5902110000000  0.4959250000000  0.5585160000000 1.0
C      1  0.4962450000000  0.4440290000000  0.5943390000000 1.0
C      1  0.5358880000000  0.4734850000000  0.6038680000000 1.0
C      1  0.5623550000000  0.4517740000000  0.5737060000000 1.0
C      1  0.5421310000000  0.5436780000000  0.5380500000000 1.0
C      1  0.5398080000000  0.4847720000000  0.3980430000000 1.0
C      1  0.4912700000000  0.4833350000000  0.4040590000000 1.0
C      1  0.5548180000000  0.4937430000000  0.5202000000000 1.0
C      1  0.6006030000000  0.5325340000000  0.5016290000000 1.0
C      1  0.5173190000000  0.4492470000000  0.4905090000000 1.0
C      1  0.4637950000000  0.4261700000000  0.5078540000000 1.0
C      1  0.4185080000000  0.4873950000000  0.5659820000000 1.0
C      1  0.5151230000000  0.4178090000000  0.4157680000000 1.0
C      1  0.4856210000000  0.5402350000000  0.5973480000000 1.0
C      1  0.5427680000000  0.5308930000000  0.4068400000000 1.0
C      1  0.4840360000000  0.4791470000000  0.4741290000000 1.0
C      1  0.4943320000000  0.5261070000000  0.4952070000000 1.0
C      1  0.5869600000000  0.5509120000000  0.5431210000000 1.0
C      1  0.5634170000000  0.5424700000000  0.5597890000000 1.0
C      1  0.4064550000000  0.4503070000000  0.4940280000000 1.0
C      1  0.6004520000000  0.4661420000000  0.4687840000000 1.0
C      1  0.4959450000000  0.5861680000000  0.4544700000000 1.0
C      1  0.4933540000000  0.5361890000000  0.4632260000000 1.0
C      1  0.4361410000000  0.4949400000000  0.4197580000000 1.0
C      1  0.5176720000000  0.5107770000000  0.4999400000000 1.0
C      1  0.5767980000000  0.5065970000000  0.4310270000000 1.0
C      1  0.5730670000000  0.4519540000000  0.5482840000000 1.0
C      1  0.4938130000000  0.5445780000000  0.4009580000000 1.0
C      1  0.5543810000000  0.5248970000000  0.5171560000000 1.0
C      1  0.4540590000000  0.4456570000000  0.4340730000000 1.0
C      1  0.5574730000000  0.5057340000000  0.4095570000000 1.0
C      1  0.4712610000000  0.4579220000000  0.5188590000000 1.0
C      1  0.4071400000000  0.5605290000000  0.4849020000000 1.0
C      1  0.5157100000000  0.4867200000000  0.5691850000000 1.0
C      1  0.5154030000000  0.4413150000000  0.3980260000000 1.0
C      1  0.4477410000000  0.5340170000000  0.5356500000000 1.0
C      1  0.5107620000000  0.5473120000000  0.5373820000000 1.0
C      1  0.4661680000000  0.5548340000000  0.5827730000000 1.0
C      1  0.5398170000000  0.4556760000000  0.3991390000000 1.0
C      1  0.5886540000000  0.4408800000000  0.4782700000000 1.0
C      1  0.4250890000000  0.5383320000000  0.5562780000000 1.0
C      1  0.4388750000000  0.4245590000000  0.5534640000000 1.0
C      1  0.4789560000000  0.4655290000000  0.6031680000000 1.0
C      1  0.5395460000000  0.4185240000000  0.4304500000000 1.0
C      1  0.5852590000000  0.5568080000000  0.4951550000000 1.0
C      1  0.4257490000000  0.4199590000000  0.4586830000000 1.0
C      1  0.5110400000000  0.4546860000000  0.4455960000000 1.0
C      1  0.6078490000000  0.4815190000000  0.4915270000000 1.0
C      1  0.5311110000000  0.5253480000000  0.5942000000000 1.0
C      1  0.4473950000000  0.5132560000000  0.5943560000000 1.0
C      1  0.4738950000000  0.4379060000000  0.4164220000000 1.0
C      1  0.5265600000000  0.4021050000000  0.4807580000000 1.0
C      1  0.4842780000000  0.4053070000000  0.5038060000000 1.0
C      1  0.5297210000000  0.4020560000000  0.5112600000000 1.0
C      1  0.4362080000000  0.4244360000000  0.5262990000000 1.0
C      1  0.5604420000000  0.4753270000000  0.5897900000000 1.0
C      1  0.5158170000000  0.4469840000000  0.5172570000000 1.0
C      1  0.5180460000000  0.4966290000000  0.5988350000000 1.0
C      1  0.5888690000000  0.4411870000000  0.5076490000000 1.0
C      1  0.4150990000000  0.4698170000000  0.4552400000000 1.0
C      1  0.5120620000000  0.4921670000000  0.4793360000000 1.0
C      1  0.3951170000000  0.4983710000000  0.5018420000000 1.0
C      1  0.4995370000000  0.5690120000000  0.4116600000000 1.0
C      1  0.5796380000000  0.4782960000000  0.5366350000000 1.0
C      1  0.5574410000000  0.5243360000000  0.5821850000000 1.0
C      1  0.4419560000000  0.5385020000000  0.5807350000000 1.0
C      1  0.5503240000000  0.5716490000000  0.5360130000000 1.0
C      1  0.5507650000000  0.5484980000000  0.4275420000000 1.0
C      1  0.4171650000000  0.4456540000000  0.5198320000000 1.0
C      1  0.4678960000000  0.5833940000000  0.5418660000000 1.0
C      1  0.5089310000000  0.5658080000000  0.5634610000000 1.0
C      1  0.5673980000000  0.5344190000000  0.4470080000000 1.0
C      1  0.4232740000000  0.4723650000000  0.5377310000000 1.0
C      1  0.5500330000000  0.5181710000000  0.4663830000000 1.0
C      1  0.5368310000000  0.5679500000000  0.4431520000000 1.0
C      1  0.4087330000000  0.4874740000000  0.4321550000000 1.0
C      1  0.5476110000000  0.4140060000000  0.5312210000000 1.0
C      1  0.5570890000000  0.4811250000000  0.4935230000000 1.0
C      1  0.4907710000000  0.4549110000000  0.4007810000000 1.0
C      1  0.3902290000000  0.5246790000000  0.4937310000000 1.0
C      1  0.4114180000000  0.4415180000000  0.4664040000000 1.0
C      1  0.5395840000000  0.5304890000000  0.4921270000000 1.0
C      1  0.5711010000000  0.4987020000000  0.4744600000000 1.0
C      1  0.4902080000000  0.4919950000000  0.6081060000000 1.0
C      1  0.5981460000000  0.5083030000000  0.4872190000000 1.0
C      1  0.4799500000000  0.4069730000000  0.4527530000000 1.0
C      1  0.4730140000000  0.5618570000000  0.4998500000000 1.0
C      1  0.5007390000000  0.4668390000000  0.5277740000000 1.0
C      1  0.5141060000000  0.4972900000000  0.3944750000000 1.0
C      1  0.4647400000000  0.4388990000000  0.4805810000000 1.0
C      1  0.4802290000000  0.6007280000000  0.5229810000000 1.0
C      1  0.5454830000000  0.4130650000000  0.4592150000000 1.0
C      1  0.5008680000000  0.5529530000000  0.5076190000000 1.0
C      1  0.5986810000000  0.4670350000000  0.5146140000000 1.0
C      1  0.4946960000000  0.4510180000000  0.4699840000000 1.0
C      1  0.5034120000000  0.4148070000000  0.5522330000000 1.0
C      1  0.4102150000000  0.4783570000000  0.4852870000000 1.0
C      1  0.4695370000000  0.4886420000000  0.5514760000000 1.0
C      1  0.4660460000000  0.4920880000000  0.4534370000000 1.0
C      1  0.5541760000000  0.4416010000000  0.4195440000000 1.0
C      1  0.4796100000000  0.5735100000000  0.5658620000000 1.0
C      1  0.4283000000000  0.5751390000000  0.4743360000000 1.0
C      1  0.4237490000000  0.5324010000000  0.4519200000000 1.0
C      1  0.4573300000000  0.4424610000000  0.5663100000000 1.0
END
