TITL C-46965-1584-7 -0.0374345352486885 125000 -239.790127777211 0 0 36 (C1) n - 1
REM
REM in /rds/project/t2_vol4/rds-t2-cs072/BORA/CARBON/from-Arr/AIRSS/Generating-Clusters/GAP-ML-2020/Only-C1/SD-CG/HFTN-CG
REM
REM
REM
REM
REM
REM ./C.cell (11c1c37f851c82e70ff6c80c92926a4b)
REM AIRSS Version 0.9.1 bugfix July 2018 build 013d7b7c2542+ Fri, 06 Jul 2018 19:26:36 +0100
REM compiler GCC version 9.3.0
REM options -cpp -mtune=generic -march=x86-64 -g -O0
REM seed 1457954059 -936212229 -1617239543 -813596452 731410657 1740172429 -175669901 -230640229 1103865074 2078981572 1404236318 -830935118 1816904695 -116127035 513036926 -473527775 -2113733638 -591121694 318332601 -964293494 -970800596 1104243859 1794032198 -1265122037 377657384 387507274 665285631 -953891431 244251586 -1331854870 -1231911329 -1753333174 770714096
REM
CELL 1.54180   50.00000   50.00000   50.00000   90.00000   90.00000   90.00000
LATT -1
SFAC C  
C      1  0.5801100000000  0.4947010000000  0.4628260000000 1.0
C      1  0.5008990000000  0.4970170000000  0.5180740000000 1.0
C      1  0.5464090000000  0.4740860000000  0.5214890000000 1.0
C      1  0.4749510000000  0.4860850000000  0.5106430000000 1.0
C      1  0.4531460000000  0.5033890000000  0.5147410000000 1.0
C      1  0.5086380000000  0.5351090000000  0.4613710000000 1.0
C      1  0.5736810000000  0.5157910000000  0.5283680000000 1.0
C      1  0.5380320000000  0.4666660000000  0.5471290000000 1.0
C      1  0.4477140000000  0.5153340000000  0.4890860000000 1.0
C      1  0.4642120000000  0.5294570000000  0.5571720000000 1.0
C      1  0.5160970000000  0.4755830000000  0.5582300000000 1.0
C      1  0.5097390000000  0.4546440000000  0.4588420000000 1.0
C      1  0.4307940000000  0.4779710000000  0.4621750000000 1.0
C      1  0.4816810000000  0.5303240000000  0.4610930000000 1.0
C      1  0.5268640000000  0.5370180000000  0.5329810000000 1.0
C      1  0.4436510000000  0.5018470000000  0.4646080000000 1.0
C      1  0.5538170000000  0.5318940000000  0.5292460000000 1.0
C      1  0.5074290000000  0.5274120000000  0.5111280000000 1.0
C      1  0.5228390000000  0.4808630000000  0.5020570000000 1.0
C      1  0.5654560000000  0.4966040000000  0.4843070000000 1.0
C      1  0.4678630000000  0.5350450000000  0.4856960000000 1.0
C      1  0.5368270000000  0.5024960000000  0.4862010000000 1.0
C      1  0.4631120000000  0.5257700000000  0.5306080000000 1.0
C      1  0.4997140000000  0.4952480000000  0.5478280000000 1.0
C      1  0.4672700000000  0.5069740000000  0.4483970000000 1.0
C      1  0.4566540000000  0.4540850000000  0.4797190000000 1.0
C      1  0.4777750000000  0.4851460000000  0.4346110000000 1.0
C      1  0.4804870000000  0.5393600000000  0.5106480000000 1.0
C      1  0.5214000000000  0.5265160000000  0.4836340000000 1.0
C      1  0.4773910000000  0.4639160000000  0.4935210000000 1.0
C      1  0.5120400000000  0.5401360000000  0.5564230000000 1.0
C      1  0.4324560000000  0.4521680000000  0.4682330000000 1.0
C      1  0.4949460000000  0.4675800000000  0.4414990000000 1.0
C      1  0.4911760000000  0.5216950000000  0.5575430000000 1.0
C      1  0.5688310000000  0.4914500000000  0.5141660000000 1.0
C      1  0.5058980000000  0.4606190000000  0.4857060000000 1.0
END
