TITL C-46967-1556-3 14.6142153730771 125000 -647.064973824245 0 0 91 (C1) n - 1
REM
REM in /rds/project/t2_vol4/rds-t2-cs072/BORA/CARBON/from-Arr/AIRSS/Generating-Clusters/GAP-ML-2020/Only-C1/SD-CG/HFTN-CG
REM
REM
REM
REM
REM
REM ./C.cell (11c1c37f851c82e70ff6c80c92926a4b)
REM AIRSS Version 0.9.1 bugfix July 2018 build 013d7b7c2542+ Fri, 06 Jul 2018 19:26:36 +0100
REM compiler GCC version 9.3.0
REM options -cpp -mtune=generic -march=x86-64 -g -O0
REM seed 597947188 768265796 -579103378 -1381544740 -227959958 2094030969 172623928 -137848611 898021881 -1190365518 1741608334 -338451039 -415192820 1466564496 547879431 -1784964386 -127797690 -1082083977 -270845340 -1857929695 -1803137838 -1060256497 1819378939 -1745587997 -395525602 1220075243 433559671 1856994501 111010209 673453895 -532194678 865518016 -2109664588
REM
CELL 1.54180   50.00000   50.00000   50.00000   90.00000   90.00000   90.00000
LATT -1
SFAC C  
C      1  0.4858260000000  0.4821960000000  0.5800160000000 1.0
C      1  0.4279160000000  0.5250740000000  0.5209440000000 1.0
C      1  0.5774980000000  0.5383690000000  0.4836690000000 1.0
C      1  0.4880150000000  0.4564740000000  0.4377180000000 1.0
C      1  0.4259180000000  0.4750950000000  0.5118000000000 1.0
C      1  0.4103810000000  0.4715680000000  0.4870440000000 1.0
C      1  0.4427710000000  0.5460940000000  0.5343930000000 1.0
C      1  0.5429010000000  0.5626020000000  0.4646830000000 1.0
C      1  0.4429350000000  0.5082290000000  0.4469520000000 1.0
C      1  0.4589540000000  0.4376600000000  0.5244110000000 1.0
C      1  0.4726350000000  0.5144280000000  0.4876980000000 1.0
C      1  0.4241730000000  0.4655730000000  0.4642830000000 1.0
C      1  0.5206440000000  0.5557120000000  0.4476240000000 1.0
C      1  0.5373890000000  0.4863910000000  0.4287460000000 1.0
C      1  0.5384310000000  0.4585820000000  0.4379530000000 1.0
C      1  0.4479940000000  0.5641830000000  0.4503520000000 1.0
C      1  0.5737710000000  0.4630900000000  0.5028200000000 1.0
C      1  0.4477690000000  0.4738220000000  0.4186130000000 1.0
C      1  0.4942030000000  0.5032320000000  0.4743900000000 1.0
C      1  0.4822630000000  0.4766150000000  0.5109840000000 1.0
C      1  0.5418570000000  0.5682420000000  0.4925390000000 1.0
C      1  0.4519350000000  0.4979590000000  0.4764830000000 1.0
C      1  0.4947980000000  0.5618960000000  0.4569670000000 1.0
C      1  0.5414050000000  0.4356830000000  0.5263300000000 1.0
C      1  0.4755360000000  0.5068460000000  0.5144120000000 1.0
C      1  0.5157450000000  0.5757160000000  0.5023140000000 1.0
C      1  0.4687640000000  0.4448850000000  0.5515550000000 1.0
C      1  0.4953430000000  0.4736990000000  0.4846910000000 1.0
C      1  0.5681070000000  0.5259890000000  0.5222070000000 1.0
C      1  0.4521900000000  0.4602220000000  0.5071330000000 1.0
C      1  0.5814970000000  0.4869860000000  0.4879660000000 1.0
C      1  0.5559540000000  0.5265560000000  0.4397810000000 1.0
C      1  0.5599390000000  0.5214870000000  0.5508230000000 1.0
C      1  0.5625750000000  0.4437990000000  0.4846980000000 1.0
C      1  0.5338720000000  0.4825290000000  0.5172620000000 1.0
C      1  0.4640240000000  0.4698890000000  0.5640070000000 1.0
C      1  0.4848850000000  0.5676940000000  0.5408840000000 1.0
C      1  0.5201570000000  0.5094360000000  0.4834370000000 1.0
C      1  0.5113420000000  0.4233980000000  0.4589100000000 1.0
C      1  0.4285480000000  0.4968070000000  0.5308450000000 1.0
C      1  0.5560930000000  0.4614030000000  0.5277100000000 1.0
C      1  0.5636490000000  0.5520930000000  0.5051910000000 1.0
C      1  0.5212460000000  0.4151760000000  0.4848860000000 1.0
C      1  0.5434090000000  0.4267790000000  0.4989080000000 1.0
C      1  0.4943930000000  0.5325370000000  0.5797290000000 1.0
C      1  0.4322610000000  0.4819880000000  0.4385530000000 1.0
C      1  0.4846880000000  0.4254450000000  0.4709960000000 1.0
C      1  0.4625890000000  0.5654710000000  0.5229110000000 1.0
C      1  0.5602060000000  0.4562560000000  0.4581480000000 1.0
C      1  0.5313630000000  0.5004120000000  0.5813760000000 1.0
C      1  0.4705300000000  0.5495380000000  0.4439280000000 1.0
C      1  0.4440960000000  0.4907800000000  0.5555520000000 1.0
C      1  0.4532170000000  0.5398030000000  0.5597440000000 1.0
C      1  0.5645710000000  0.5449060000000  0.4593730000000 1.0
C      1  0.4936130000000  0.4299400000000  0.5458230000000 1.0
C      1  0.4930300000000  0.5723860000000  0.4843690000000 1.0
C      1  0.5218900000000  0.4360270000000  0.5484720000000 1.0
C      1  0.5828330000000  0.5138890000000  0.4984040000000 1.0
C      1  0.4527110000000  0.5135540000000  0.5698450000000 1.0
C      1  0.4774370000000  0.4535800000000  0.4654920000000 1.0
C      1  0.5235320000000  0.4810140000000  0.4899970000000 1.0
C      1  0.4868320000000  0.5042710000000  0.4218650000000 1.0
C      1  0.5606930000000  0.4987260000000  0.4400600000000 1.0
C      1  0.5306040000000  0.4570520000000  0.5666230000000 1.0
C      1  0.5222480000000  0.5272910000000  0.5784760000000 1.0
C      1  0.4778770000000  0.5092820000000  0.5830550000000 1.0
C      1  0.4203860000000  0.5588450000000  0.4858980000000 1.0
C      1  0.4295340000000  0.5147340000000  0.4717250000000 1.0
C      1  0.4440230000000  0.5701770000000  0.4770440000000 1.0
C      1  0.4230020000000  0.5324470000000  0.4927860000000 1.0
C      1  0.5067850000000  0.4845270000000  0.5277580000000 1.0
C      1  0.5161400000000  0.5076410000000  0.4229880000000 1.0
C      1  0.5000410000000  0.5129170000000  0.5260800000000 1.0
C      1  0.5423400000000  0.5113530000000  0.5200760000000 1.0
C      1  0.5732700000000  0.4816370000000  0.4600330000000 1.0
C      1  0.5548670000000  0.4695540000000  0.5567690000000 1.0
C      1  0.4665680000000  0.5723270000000  0.4955270000000 1.0
C      1  0.4823450000000  0.4206140000000  0.5204320000000 1.0
C      1  0.4936660000000  0.4140790000000  0.4960240000000 1.0
C      1  0.5141050000000  0.4435080000000  0.4390120000000 1.0
C      1  0.4519200000000  0.4648310000000  0.4768420000000 1.0
C      1  0.5550590000000  0.4967980000000  0.5655840000000 1.0
C      1  0.4760590000000  0.4767000000000  0.4211690000000 1.0
C      1  0.4791990000000  0.5511700000000  0.5638690000000 1.0
C      1  0.5290450000000  0.5321400000000  0.4316980000000 1.0
C      1  0.4670300000000  0.5219990000000  0.4340710000000 1.0
C      1  0.5196340000000  0.5242210000000  0.5081040000000 1.0
C      1  0.5117750000000  0.5731370000000  0.5311330000000 1.0
C      1  0.5400820000000  0.5411660000000  0.5604510000000 1.0
C      1  0.5144860000000  0.4766580000000  0.5809360000000 1.0
C      1  0.5321700000000  0.5625130000000  0.5461660000000 1.0
END
