TITL C-46956-1655-9 160.995380490629 125000 -398.642437662157 0 0 59 (C1) n - 1
REM
REM in /rds/project/t2_vol4/rds-t2-cs072/BORA/CARBON/from-Arr/AIRSS/Generating-Clusters/GAP-ML-2020/Only-C1/SD-CG/HFTN-CG
REM
REM
REM
REM
REM
REM ./C.cell (11c1c37f851c82e70ff6c80c92926a4b)
REM AIRSS Version 0.9.1 bugfix July 2018 build 013d7b7c2542+ Fri, 06 Jul 2018 19:26:36 +0100
REM compiler GCC version 9.3.0
REM options -cpp -mtune=generic -march=x86-64 -g -O0
REM seed 55443838 971623647 -597860076 -798128441 1009657409 456275584 1128106007 253357993 2014010660 -1922241830 1190095886 -380429093 -1686515242 -330947595 -2081889474 1461243986 2110610071 267976465 -660476818 562942205 -68722701 436722947 230320768 1026079595 -1766753407 649321141 -381298449 -1773281044 1999429619 -68709458 -1377667698 -2110311531 -1301102932
REM
CELL 1.54180   50.00000   50.00000   50.00000   90.00000   90.00000   90.00000
LATT -1
SFAC C  
C      1  0.5109150000000  0.4775110000000  0.5526710000000 1.0
C      1  0.4482640000000  0.5258550000000  0.5294220000000 1.0
C      1  0.4722650000000  0.4370090000000  0.4855250000000 1.0
C      1  0.5404310000000  0.5358650000000  0.5099870000000 1.0
C      1  0.5474830000000  0.4471140000000  0.4781560000000 1.0
C      1  0.4910790000000  0.5206990000000  0.5694440000000 1.0
C      1  0.4861990000000  0.4391590000000  0.5342250000000 1.0
C      1  0.5314090000000  0.5484510000000  0.5355450000000 1.0
C      1  0.4420510000000  0.5059250000000  0.4566250000000 1.0
C      1  0.5029290000000  0.4663040000000  0.4228060000000 1.0
C      1  0.5355650000000  0.4818990000000  0.4498640000000 1.0
C      1  0.5051990000000  0.5605540000000  0.4731080000000 1.0
C      1  0.4485440000000  0.4609110000000  0.5162770000000 1.0
C      1  0.5366110000000  0.5226070000000  0.5481160000000 1.0
C      1  0.5162570000000  0.5048600000000  0.4517590000000 1.0
C      1  0.4662120000000  0.4382200000000  0.5134330000000 1.0
C      1  0.4868020000000  0.5412550000000  0.4613100000000 1.0
C      1  0.4632320000000  0.5496040000000  0.5319150000000 1.0
C      1  0.4986260000000  0.5159750000000  0.4746500000000 1.0
C      1  0.4978310000000  0.4507090000000  0.4777550000000 1.0
C      1  0.4848170000000  0.4641620000000  0.5484790000000 1.0
C      1  0.5512300000000  0.5455270000000  0.4854870000000 1.0
C      1  0.4526130000000  0.5451540000000  0.4873270000000 1.0
C      1  0.4979860000000  0.5577870000000  0.5025170000000 1.0
C      1  0.4426230000000  0.5268930000000  0.4417060000000 1.0
C      1  0.5066880000000  0.4640450000000  0.5026500000000 1.0
C      1  0.4993280000000  0.5110120000000  0.5221770000000 1.0
C      1  0.5076330000000  0.5612130000000  0.5306370000000 1.0
C      1  0.4694690000000  0.5579350000000  0.5056670000000 1.0
C      1  0.4407150000000  0.4706640000000  0.4901390000000 1.0
C      1  0.5590530000000  0.5210840000000  0.4710230000000 1.0
C      1  0.4786970000000  0.4958480000000  0.4828360000000 1.0
C      1  0.4564400000000  0.4568130000000  0.4710300000000 1.0
C      1  0.5541140000000  0.5151620000000  0.5266380000000 1.0
C      1  0.5106970000000  0.5269670000000  0.5010850000000 1.0
C      1  0.5516880000000  0.4674140000000  0.5200610000000 1.0
C      1  0.5366350000000  0.5267100000000  0.4518800000000 1.0
C      1  0.5305990000000  0.5512680000000  0.4657240000000 1.0
C      1  0.4907910000000  0.5477980000000  0.5739420000000 1.0
C      1  0.5111330000000  0.5072000000000  0.5507860000000 1.0
C      1  0.5237520000000  0.4578490000000  0.4383100000000 1.0
C      1  0.4551270000000  0.5038530000000  0.5463920000000 1.0
C      1  0.4936500000000  0.4857950000000  0.4396500000000 1.0
C      1  0.5657040000000  0.4933370000000  0.5143230000000 1.0
C      1  0.4658800000000  0.5085250000000  0.5710730000000 1.0
C      1  0.4803410000000  0.4736700000000  0.4632110000000 1.0
C      1  0.4589820000000  0.5417700000000  0.4595640000000 1.0
C      1  0.5324480000000  0.4757550000000  0.4980450000000 1.0
C      1  0.5117680000000  0.4441880000000  0.5247240000000 1.0
C      1  0.5576370000000  0.4435120000000  0.5030320000000 1.0
C      1  0.5302780000000  0.4614450000000  0.5403290000000 1.0
C      1  0.5221370000000  0.4416150000000  0.4629150000000 1.0
C      1  0.4647760000000  0.4796480000000  0.5327070000000 1.0
C      1  0.4445120000000  0.4994240000000  0.4846160000000 1.0
C      1  0.5502780000000  0.4763860000000  0.4727630000000 1.0
C      1  0.5668580000000  0.4974390000000  0.4841790000000 1.0
C      1  0.4415990000000  0.5229550000000  0.5017690000000 1.0
C      1  0.4862140000000  0.5544520000000  0.5478200000000 1.0
C      1  0.4872060000000  0.4872390000000  0.5101900000000 1.0
END
