TITL C-46968-1706-6 0.0252704488342167 125000 -573.20514519061 0 0 82 (C1) n - 1
REM
REM in /rds/project/t2_vol4/rds-t2-cs072/BORA/CARBON/from-Arr/AIRSS/Generating-Clusters/GAP-ML-2020/Only-C1/SD-CG/HFTN-CG
REM
REM
REM
REM
REM
REM ./C.cell (11c1c37f851c82e70ff6c80c92926a4b)
REM AIRSS Version 0.9.1 bugfix July 2018 build 013d7b7c2542+ Fri, 06 Jul 2018 19:26:36 +0100
REM compiler GCC version 9.3.0
REM options -cpp -mtune=generic -march=x86-64 -g -O0
REM seed 1107677563 -431831754 -2022368947 -1682388976 715471613 -1891721159 496256355 1109538717 -1672822077 197185780 628726115 -382488788 -109136828 1439461211 -1045803008 -1607211164 -1556577935 1135118018 -737120216 -125589025 -1221635615 -10726211 970059233 -103168467 1903771589 -738118823 1506173693 1361001550 -1488742495 -1756717045 249923374 -302481774 1617468593
REM
CELL 1.54180   50.00000   50.00000   50.00000   90.00000   90.00000   90.00000
LATT -1
SFAC C  
C      1  0.5567350000000  0.5519150000000  0.4686390000000 1.0
C      1  0.4451910000000  0.5342600000000  0.4628730000000 1.0
C      1  0.4888000000000  0.4938620000000  0.5756830000000 1.0
C      1  0.5198800000000  0.4291840000000  0.5158670000000 1.0
C      1  0.5649510000000  0.5507600000000  0.5138060000000 1.0
C      1  0.5773550000000  0.4763950000000  0.4587610000000 1.0
C      1  0.5281780000000  0.4668530000000  0.5554950000000 1.0
C      1  0.5224910000000  0.5281960000000  0.4463500000000 1.0
C      1  0.5417230000000  0.4911450000000  0.5601910000000 1.0
C      1  0.5568750000000  0.4410760000000  0.4899720000000 1.0
C      1  0.5347890000000  0.5544890000000  0.4509600000000 1.0
C      1  0.4487460000000  0.4619450000000  0.4565480000000 1.0
C      1  0.4144660000000  0.4997420000000  0.5063180000000 1.0
C      1  0.4403270000000  0.4632240000000  0.5309540000000 1.0
C      1  0.4947740000000  0.4846980000000  0.4595360000000 1.0
C      1  0.4357420000000  0.4628170000000  0.4820310000000 1.0
C      1  0.4826200000000  0.4847200000000  0.4851010000000 1.0
C      1  0.4221240000000  0.4848620000000  0.5301510000000 1.0
C      1  0.5165450000000  0.5164350000000  0.5213670000000 1.0
C      1  0.4981170000000  0.5605920000000  0.5415600000000 1.0
C      1  0.5341580000000  0.4516030000000  0.5296950000000 1.0
C      1  0.5667620000000  0.5027820000000  0.4546180000000 1.0
C      1  0.4766170000000  0.5638890000000  0.5226950000000 1.0
C      1  0.4598220000000  0.5398630000000  0.5576510000000 1.0
C      1  0.4525960000000  0.5555000000000  0.5341410000000 1.0
C      1  0.4686220000000  0.5128570000000  0.5191560000000 1.0
C      1  0.5495060000000  0.5315540000000  0.5553680000000 1.0
C      1  0.5019300000000  0.4691570000000  0.5672390000000 1.0
C      1  0.5268120000000  0.5131020000000  0.4961530000000 1.0
C      1  0.4256380000000  0.5100480000000  0.5441790000000 1.0
C      1  0.4858900000000  0.5331080000000  0.4788830000000 1.0
C      1  0.5196770000000  0.4675700000000  0.5073500000000 1.0
C      1  0.4338680000000  0.5068720000000  0.4609930000000 1.0
C      1  0.5293150000000  0.5160320000000  0.5697470000000 1.0
C      1  0.5239620000000  0.5666930000000  0.5306950000000 1.0
C      1  0.4912650000000  0.4247000000000  0.5203180000000 1.0
C      1  0.4832110000000  0.4313800000000  0.4745830000000 1.0
C      1  0.5372650000000  0.5012780000000  0.4420560000000 1.0
C      1  0.5517850000000  0.5651260000000  0.4932480000000 1.0
C      1  0.4701730000000  0.4439960000000  0.4521850000000 1.0
C      1  0.4497740000000  0.4891630000000  0.4454030000000 1.0
C      1  0.4563040000000  0.4666410000000  0.5554590000000 1.0
C      1  0.5620690000000  0.5070000000000  0.5461270000000 1.0
C      1  0.5147430000000  0.5717340000000  0.4588990000000 1.0
C      1  0.5020460000000  0.5197280000000  0.5744970000000 1.0
C      1  0.4765620000000  0.5015420000000  0.4415710000000 1.0
C      1  0.4805320000000  0.4515840000000  0.5591660000000 1.0
C      1  0.5639730000000  0.4808090000000  0.5074430000000 1.0
C      1  0.5258730000000  0.5745270000000  0.5026210000000 1.0
C      1  0.4475310000000  0.5522140000000  0.4865010000000 1.0
C      1  0.4739070000000  0.5314090000000  0.4513930000000 1.0
C      1  0.4350940000000  0.5477290000000  0.5124930000000 1.0
C      1  0.4848680000000  0.4281770000000  0.5463520000000 1.0
C      1  0.4609380000000  0.4916860000000  0.5687890000000 1.0
C      1  0.5126280000000  0.4312900000000  0.4689550000000 1.0
C      1  0.4460100000000  0.5151890000000  0.5623010000000 1.0
C      1  0.4227670000000  0.4894990000000  0.4821360000000 1.0
C      1  0.5182390000000  0.4887900000000  0.4185080000000 1.0
C      1  0.4972000000000  0.5310420000000  0.4312620000000 1.0
C      1  0.5693100000000  0.5259350000000  0.4732770000000 1.0
C      1  0.5036900000000  0.5755710000000  0.4834670000000 1.0
C      1  0.4906270000000  0.4585240000000  0.4394230000000 1.0
C      1  0.5117440000000  0.4609510000000  0.4224280000000 1.0
C      1  0.4944440000000  0.4769780000000  0.5099220000000 1.0
C      1  0.5485560000000  0.5528280000000  0.5372640000000 1.0
C      1  0.5720690000000  0.4530520000000  0.4689000000000 1.0
C      1  0.4774680000000  0.5598820000000  0.4927560000000 1.0
C      1  0.5253140000000  0.4806660000000  0.4614390000000 1.0
C      1  0.5729050000000  0.5038090000000  0.5203900000000 1.0
C      1  0.4471980000000  0.4494160000000  0.5056990000000 1.0
C      1  0.4930790000000  0.5021340000000  0.5259170000000 1.0
C      1  0.5138000000000  0.5268990000000  0.4759560000000 1.0
C      1  0.5204670000000  0.4521210000000  0.4497690000000 1.0
C      1  0.4957210000000  0.5060630000000  0.4177310000000 1.0
C      1  0.4707250000000  0.4315150000000  0.5004220000000 1.0
C      1  0.4200460000000  0.5251590000000  0.5200190000000 1.0
C      1  0.5753700000000  0.5264660000000  0.5028100000000 1.0
C      1  0.5602340000000  0.4539650000000  0.5154280000000 1.0
C      1  0.5356740000000  0.4849280000000  0.4902310000000 1.0
C      1  0.4877490000000  0.5424150000000  0.5621930000000 1.0
C      1  0.5320800000000  0.4264300000000  0.4896680000000 1.0
C      1  0.4713720000000  0.5102600000000  0.4919020000000 1.0
END
