TITL C-46956-1655-10 0.0645178865959546 125000 -293.296324764926 0 0 43 (C1) n - 1
REM
REM in /rds/project/t2_vol4/rds-t2-cs072/BORA/CARBON/from-Arr/AIRSS/Generating-Clusters/GAP-ML-2020/Only-C1/SD-CG/HFTN-CG
REM
REM
REM
REM
REM
REM ./C.cell (11c1c37f851c82e70ff6c80c92926a4b)
REM AIRSS Version 0.9.1 bugfix July 2018 build 013d7b7c2542+ Fri, 06 Jul 2018 19:26:36 +0100
REM compiler GCC version 9.3.0
REM options -cpp -mtune=generic -march=x86-64 -g -O0
REM seed -271369853 545463290 1690955710 148575311 -773739375 -1025297571 2137765209 686835605 2032141632 420314424 301098832 2003195660 -1953183209 -1570176316 472433062 -2039603877 -1920274531 430395254 1443211670 1285930284 -1455572805 1097488808 1268679456 1472599713 -1365243986 533426521 -2054551773 -2086453486 1521230494 1899884941 1751753056 1734044480 -571286150
REM
CELL 1.54180   50.00000   50.00000   50.00000   90.00000   90.00000   90.00000
LATT -1
SFAC C  
C      1  0.5049690000000  0.5126520000000  0.5539820000000 1.0
C      1  0.4935010000000  0.5178380000000  0.4943410000000 1.0
C      1  0.5287860000000  0.5498320000000  0.5192290000000 1.0
C      1  0.4663500000000  0.4560180000000  0.4863460000000 1.0
C      1  0.4688250000000  0.4924610000000  0.4534580000000 1.0
C      1  0.5056210000000  0.4608200000000  0.4573230000000 1.0
C      1  0.4606420000000  0.4934450000000  0.5648170000000 1.0
C      1  0.5098100000000  0.5525730000000  0.4766460000000 1.0
C      1  0.4895510000000  0.5342180000000  0.5427000000000 1.0
C      1  0.4881920000000  0.4971580000000  0.5128320000000 1.0
C      1  0.4526690000000  0.5025870000000  0.5406000000000 1.0
C      1  0.5016410000000  0.5519580000000  0.5244250000000 1.0
C      1  0.4631890000000  0.5202220000000  0.4602210000000 1.0
C      1  0.4546930000000  0.4776370000000  0.4731090000000 1.0
C      1  0.5178090000000  0.5056870000000  0.4552000000000 1.0
C      1  0.4636780000000  0.4591660000000  0.5144600000000 1.0
C      1  0.5610810000000  0.5005590000000  0.4797960000000 1.0
C      1  0.4810970000000  0.5370010000000  0.4498860000000 1.0
C      1  0.5076380000000  0.5346430000000  0.4533400000000 1.0
C      1  0.5423730000000  0.5252220000000  0.5243140000000 1.0
C      1  0.5311070000000  0.5072680000000  0.5425560000000 1.0
C      1  0.5334530000000  0.5479870000000  0.4902020000000 1.0
C      1  0.5332920000000  0.4634270000000  0.4650710000000 1.0
C      1  0.4488500000000  0.5215230000000  0.4862030000000 1.0
C      1  0.4433840000000  0.4949210000000  0.4932230000000 1.0
C      1  0.4477070000000  0.4834230000000  0.5188530000000 1.0
C      1  0.5368010000000  0.4542930000000  0.4921480000000 1.0
C      1  0.4628220000000  0.5284080000000  0.5324090000000 1.0
C      1  0.4890570000000  0.4515370000000  0.5259550000000 1.0
C      1  0.5186240000000  0.5051230000000  0.4866740000000 1.0
C      1  0.4920870000000  0.4479230000000  0.4784800000000 1.0
C      1  0.5427500000000  0.4897530000000  0.4589720000000 1.0
C      1  0.5543730000000  0.4728080000000  0.5083840000000 1.0
C      1  0.5091080000000  0.4505930000000  0.5022040000000 1.0
C      1  0.4948630000000  0.4652490000000  0.5481640000000 1.0
C      1  0.4874840000000  0.5500650000000  0.4989440000000 1.0
C      1  0.5446460000000  0.5207870000000  0.4933350000000 1.0
C      1  0.5353030000000  0.4834820000000  0.5271760000000 1.0
C      1  0.4961650000000  0.4856710000000  0.4478920000000 1.0
C      1  0.5127630000000  0.4827830000000  0.5059420000000 1.0
C      1  0.5759780000000  0.4838090000000  0.4957020000000 1.0
C      1  0.4602100000000  0.5383110000000  0.5060290000000 1.0
C      1  0.4870590000000  0.4891570000000  0.5584580000000 1.0
END
