TITL C-46969-1807-5 0.0504782547772658 125000 -535.56744208299 0 0 77 (C1) n - 1
REM
REM in /rds/project/t2_vol4/rds-t2-cs072/BORA/CARBON/from-Arr/AIRSS/Generating-Clusters/GAP-ML-2020/Only-C1/SD-CG/HFTN-CG
REM
REM
REM
REM
REM
REM ./C.cell (11c1c37f851c82e70ff6c80c92926a4b)
REM AIRSS Version 0.9.1 bugfix July 2018 build 013d7b7c2542+ Fri, 06 Jul 2018 19:26:36 +0100
REM compiler GCC version 9.3.0
REM options -cpp -mtune=generic -march=x86-64 -g -O0
REM seed -673305544 -1534674568 -1949294395 -499921295 -29014856 -1488648161 -1179983600 1832061816 -207890375 282656801 -1160117015 957844278 -1580909604 -290731425 1994775567 1772062869 1103898246 -980630263 -698708405 -461426552 -890807354 633088605 740121548 -700645457 720679345 -1411066174 959083540 986478991 1661051740 -643078507 841851353 -814686760 1549341659
REM
CELL 1.54180   50.00000   50.00000   50.00000   90.00000   90.00000   90.00000
LATT -1
SFAC C  
C      1  0.4208060000000  0.4729120000000  0.4969540000000 1.0
C      1  0.4805860000000  0.5015490000000  0.4321840000000 1.0
C      1  0.5088840000000  0.4747170000000  0.5200420000000 1.0
C      1  0.5405070000000  0.4697160000000  0.5570980000000 1.0
C      1  0.4979510000000  0.4918600000000  0.4838290000000 1.0
C      1  0.4693200000000  0.5720180000000  0.5168100000000 1.0
C      1  0.4912110000000  0.5365100000000  0.4912710000000 1.0
C      1  0.4789810000000  0.5438850000000  0.5535480000000 1.0
C      1  0.4808000000000  0.4636140000000  0.5157610000000 1.0
C      1  0.5273060000000  0.5061670000000  0.4367080000000 1.0
C      1  0.4736010000000  0.4828080000000  0.4929640000000 1.0
C      1  0.4963430000000  0.4278180000000  0.4641980000000 1.0
C      1  0.4964580000000  0.4523480000000  0.5581270000000 1.0
C      1  0.4545110000000  0.4999540000000  0.4771440000000 1.0
C      1  0.4309230000000  0.5131860000000  0.5190700000000 1.0
C      1  0.5251910000000  0.5509010000000  0.4603270000000 1.0
C      1  0.4400680000000  0.5250000000000  0.4375270000000 1.0
C      1  0.4874220000000  0.4458270000000  0.4437420000000 1.0
C      1  0.5145970000000  0.5306050000000  0.4443140000000 1.0
C      1  0.5135300000000  0.4346350000000  0.5436650000000 1.0
C      1  0.5502400000000  0.5440470000000  0.4712490000000 1.0
C      1  0.5212480000000  0.4781720000000  0.4932190000000 1.0
C      1  0.4609670000000  0.4556180000000  0.4503430000000 1.0
C      1  0.5771030000000  0.5395220000000  0.5093420000000 1.0
C      1  0.5075310000000  0.4252040000000  0.5176810000000 1.0
C      1  0.4813760000000  0.5186100000000  0.5658340000000 1.0
C      1  0.5544810000000  0.4695940000000  0.4564420000000 1.0
C      1  0.5641480000000  0.4656580000000  0.5062550000000 1.0
C      1  0.4752090000000  0.4264070000000  0.4828810000000 1.0
C      1  0.5053970000000  0.5631750000000  0.4789120000000 1.0
C      1  0.4299530000000  0.4996640000000  0.4935270000000 1.0
C      1  0.5299100000000  0.4295760000000  0.4994280000000 1.0
C      1  0.5091560000000  0.4879080000000  0.5909780000000 1.0
C      1  0.5161170000000  0.5761060000000  0.5036250000000 1.0
C      1  0.4331550000000  0.4489200000000  0.4909220000000 1.0
C      1  0.5557080000000  0.5151390000000  0.4753890000000 1.0
C      1  0.4743720000000  0.4985860000000  0.5460910000000 1.0
C      1  0.5272860000000  0.5445760000000  0.5491620000000 1.0
C      1  0.4543470000000  0.4842260000000  0.4508040000000 1.0
C      1  0.4559600000000  0.5545790000000  0.4677440000000 1.0
C      1  0.5671610000000  0.4649190000000  0.4796850000000 1.0
C      1  0.5252870000000  0.5146790000000  0.5508780000000 1.0
C      1  0.5237240000000  0.4325790000000  0.4713230000000 1.0
C      1  0.5403330000000  0.4450160000000  0.5427650000000 1.0
C      1  0.5024110000000  0.5586110000000  0.5471590000000 1.0
C      1  0.4365480000000  0.5484890000000  0.4472300000000 1.0
C      1  0.5061020000000  0.4879290000000  0.4281790000000 1.0
C      1  0.4581820000000  0.5522750000000  0.5349360000000 1.0
C      1  0.5744410000000  0.5461550000000  0.5355450000000 1.0
C      1  0.4442180000000  0.4686700000000  0.5405430000000 1.0
C      1  0.4827920000000  0.4342260000000  0.5086190000000 1.0
C      1  0.5487990000000  0.5579890000000  0.5368340000000 1.0
C      1  0.4704840000000  0.5285540000000  0.4714890000000 1.0
C      1  0.5742190000000  0.5134010000000  0.4998900000000 1.0
C      1  0.5503170000000  0.4979690000000  0.4514150000000 1.0
C      1  0.5074080000000  0.5093200000000  0.5748360000000 1.0
C      1  0.5359960000000  0.5041860000000  0.4980200000000 1.0
C      1  0.4308430000000  0.4573420000000  0.5184930000000 1.0
C      1  0.5102170000000  0.4606530000000  0.4353850000000 1.0
C      1  0.4612250000000  0.5763240000000  0.4902270000000 1.0
C      1  0.4870650000000  0.5250450000000  0.4461640000000 1.0
C      1  0.5495270000000  0.4435060000000  0.5159460000000 1.0
C      1  0.4966930000000  0.5753040000000  0.5243210000000 1.0
C      1  0.4511590000000  0.5016760000000  0.4289020000000 1.0
C      1  0.4732850000000  0.4672270000000  0.5450900000000 1.0
C      1  0.5584420000000  0.4934750000000  0.5178310000000 1.0
C      1  0.5025640000000  0.5030370000000  0.5297380000000 1.0
C      1  0.5149370000000  0.4696390000000  0.5716880000000 1.0
C      1  0.4451420000000  0.4974990000000  0.5386530000000 1.0
C      1  0.5478670000000  0.4948690000000  0.5454910000000 1.0
C      1  0.5066170000000  0.5153990000000  0.5023130000000 1.0
C      1  0.4519400000000  0.4397700000000  0.4726030000000 1.0
C      1  0.5328010000000  0.4515790000000  0.4510660000000 1.0
C      1  0.4793780000000  0.5749010000000  0.4705910000000 1.0
C      1  0.4364620000000  0.5381260000000  0.5270070000000 1.0
C      1  0.5603590000000  0.5578660000000  0.4931080000000 1.0
C      1  0.5423970000000  0.5704830000000  0.5109230000000 1.0
END
