TITL C-46960-1720-9 -194.330003931345 125000 -201.409845742548 0 0 31 (C1) n - 1
REM
REM in /rds/project/t2_vol4/rds-t2-cs072/BORA/CARBON/from-Arr/AIRSS/Generating-Clusters/GAP-ML-2020/Only-C1/SD-CG/HFTN-CG
REM
REM
REM
REM
REM
REM ./C.cell (11c1c37f851c82e70ff6c80c92926a4b)
REM AIRSS Version 0.9.1 bugfix July 2018 build 013d7b7c2542+ Fri, 06 Jul 2018 19:26:36 +0100
REM compiler GCC version 9.3.0
REM options -cpp -mtune=generic -march=x86-64 -g -O0
REM seed 1433600647 -1669974024 -96540480 -1904863141 -1545651793 -1155348546 1779207668 416194378 1635639329 904094107 157591905 1116225422 -2010337113 785443300 -1355071869 -2082757000 2136836188 2018018420 1981553774 -1638127884 2026262161 1455360203 -1966826719 1494751624 180947851 -436542597 1003597493 1847754543 -1788858535 -64772636 945908140 -2137797423 2129448397
REM
CELL 1.54180   50.00000   50.00000   50.00000   90.00000   90.00000   90.00000
LATT -1
SFAC C  
C      1  0.5292360000000  0.5303960000000  0.5541620000000 1.0
C      1  0.4860890000000  0.5486310000000  0.5064500000000 1.0
C      1  0.5265460000000  0.4485900000000  0.4712810000000 1.0
C      1  0.4503460000000  0.4915420000000  0.5056960000000 1.0
C      1  0.4955930000000  0.5344710000000  0.4518070000000 1.0
C      1  0.4989850000000  0.4516130000000  0.4658530000000 1.0
C      1  0.4551200000000  0.5197310000000  0.5066180000000 1.0
C      1  0.4788810000000  0.4828200000000  0.5284350000000 1.0
C      1  0.4940930000000  0.4772120000000  0.4520820000000 1.0
C      1  0.4918340000000  0.5078000000000  0.5322900000000 1.0
C      1  0.5528220000000  0.5168190000000  0.4899370000000 1.0
C      1  0.5245800000000  0.4761850000000  0.5464780000000 1.0
C      1  0.5144150000000  0.5517280000000  0.5103570000000 1.0
C      1  0.5139960000000  0.4835960000000  0.4974010000000 1.0
C      1  0.5212590000000  0.5475600000000  0.5368490000000 1.0
C      1  0.5171960000000  0.5067020000000  0.5124670000000 1.0
C      1  0.4953520000000  0.4650570000000  0.5112460000000 1.0
C      1  0.5203020000000  0.5054090000000  0.5414360000000 1.0
C      1  0.5118930000000  0.4578870000000  0.5350730000000 1.0
C      1  0.4802940000000  0.4535970000000  0.4879670000000 1.0
C      1  0.5101040000000  0.4934040000000  0.4692100000000 1.0
C      1  0.4733000000000  0.5219770000000  0.4631780000000 1.0
C      1  0.5565800000000  0.4920880000000  0.4867530000000 1.0
C      1  0.4606910000000  0.4766020000000  0.4824400000000 1.0
C      1  0.5252550000000  0.5290390000000  0.4944390000000 1.0
C      1  0.5374230000000  0.4702240000000  0.4861510000000 1.0
C      1  0.4524080000000  0.4799250000000  0.5310390000000 1.0
C      1  0.4756260000000  0.5302930000000  0.5259680000000 1.0
C      1  0.4666030000000  0.5356200000000  0.4868910000000 1.0
C      1  0.5123130000000  0.5215570000000  0.4687620000000 1.0
C      1  0.4708640000000  0.4919260000000  0.4612850000000 1.0
END
