TITL C-46974-1548-3 -416.580978777825 125000 -898.209566447361 0 0 129 (C1) n - 1
REM
REM in /rds/project/t2_vol4/rds-t2-cs072/BORA/CARBON/from-Arr/AIRSS/Generating-Clusters/GAP-ML-2020/Only-C1/SD-CG/HFTN-CG
REM
REM
REM
REM
REM
REM ./C.cell (11c1c37f851c82e70ff6c80c92926a4b)
REM AIRSS Version 0.9.1 bugfix July 2018 build 013d7b7c2542+ Fri, 06 Jul 2018 19:26:36 +0100
REM compiler GCC version 9.3.0
REM options -cpp -mtune=generic -march=x86-64 -g -O0
REM seed 1161233566 -1683428007 1244688749 2005839733 -1274939322 2101544918 1225498704 25323068 -356497182 -1675997664 -1854756138 -504049352 204997995 -1054348259 -1908260926 1975066050 894954099 469564553 1703595309 586318279 839753889 1808020129 -1615429001 -12226703 -1080741496 -1408035044 -2128909156 340991054 245008675 1396990911 -1852384692 -1816208404 1540174723
REM
CELL 1.54180   50.00000   50.00000   50.00000   90.00000   90.00000   90.00000
LATT -1
SFAC C  
C      1  0.4427740000000  0.4958000000000  0.4971120000000 1.0
C      1  0.5181120000000  0.5604060000000  0.5630390000000 1.0
C      1  0.4947270000000  0.4190430000000  0.5002350000000 1.0
C      1  0.5065750000000  0.5801930000000  0.4703060000000 1.0
C      1  0.4426100000000  0.4652850000000  0.4902360000000 1.0
C      1  0.4698540000000  0.4151950000000  0.4824920000000 1.0
C      1  0.5824430000000  0.4748180000000  0.5441720000000 1.0
C      1  0.5471560000000  0.5623170000000  0.5256870000000 1.0
C      1  0.5449480000000  0.5227090000000  0.4975950000000 1.0
C      1  0.4606580000000  0.5474990000000  0.4333440000000 1.0
C      1  0.5516360000000  0.4777340000000  0.4164230000000 1.0
C      1  0.4154070000000  0.5333550000000  0.5178860000000 1.0
C      1  0.4389050000000  0.5549510000000  0.5550560000000 1.0
C      1  0.4953670000000  0.4896590000000  0.5813030000000 1.0
C      1  0.4412070000000  0.5738930000000  0.5078850000000 1.0
C      1  0.5020400000000  0.4580310000000  0.4216840000000 1.0
C      1  0.4912020000000  0.4236940000000  0.5490410000000 1.0
C      1  0.4695270000000  0.5030320000000  0.5071300000000 1.0
C      1  0.5257570000000  0.5475790000000  0.5873950000000 1.0
C      1  0.4719640000000  0.5740900000000  0.4399180000000 1.0
C      1  0.4511120000000  0.5205260000000  0.5889180000000 1.0
C      1  0.5370540000000  0.4212640000000  0.5273410000000 1.0
C      1  0.4513240000000  0.4593490000000  0.5357650000000 1.0
C      1  0.5991320000000  0.4746870000000  0.4710930000000 1.0
C      1  0.5766230000000  0.5296410000000  0.5571210000000 1.0
C      1  0.4937990000000  0.5766200000000  0.5167910000000 1.0
C      1  0.4114400000000  0.4659630000000  0.4864600000000 1.0
C      1  0.4914520000000  0.5705440000000  0.5643080000000 1.0
C      1  0.4785790000000  0.4166190000000  0.5247930000000 1.0
C      1  0.5465180000000  0.4563870000000  0.4370180000000 1.0
C      1  0.5416600000000  0.5038490000000  0.5186640000000 1.0
C      1  0.4970570000000  0.4784210000000  0.5334210000000 1.0
C      1  0.5986970000000  0.5214550000000  0.4862170000000 1.0
C      1  0.4792690000000  0.4640150000000  0.4033160000000 1.0
C      1  0.4318870000000  0.5079360000000  0.4708270000000 1.0
C      1  0.4965330000000  0.4363670000000  0.4436330000000 1.0
C      1  0.4233040000000  0.5522220000000  0.4990770000000 1.0
C      1  0.4553230000000  0.4199740000000  0.5075990000000 1.0
C      1  0.4746760000000  0.5319430000000  0.5074830000000 1.0
C      1  0.5368120000000  0.4731650000000  0.5636870000000 1.0
C      1  0.4561770000000  0.5015530000000  0.4523860000000 1.0
C      1  0.5984280000000  0.5123590000000  0.5135180000000 1.0
C      1  0.5947570000000  0.4843300000000  0.5192140000000 1.0
C      1  0.4640790000000  0.4960730000000  0.5800920000000 1.0
C      1  0.3941980000000  0.4542190000000  0.5340150000000 1.0
C      1  0.5928940000000  0.4652990000000  0.4978630000000 1.0
C      1  0.4319530000000  0.5391360000000  0.4741880000000 1.0
C      1  0.5065490000000  0.4721860000000  0.5064810000000 1.0
C      1  0.4996210000000  0.5758390000000  0.4431810000000 1.0
C      1  0.5391450000000  0.5162840000000  0.4415950000000 1.0
C      1  0.4580730000000  0.5850600000000  0.4866230000000 1.0
C      1  0.5273460000000  0.4666820000000  0.4577710000000 1.0
C      1  0.4992800000000  0.4576300000000  0.5812800000000 1.0
C      1  0.4062590000000  0.4918180000000  0.4724940000000 1.0
C      1  0.4392260000000  0.4446860000000  0.5130100000000 1.0
C      1  0.5028400000000  0.5347210000000  0.4159640000000 1.0
C      1  0.5300030000000  0.5625640000000  0.4761210000000 1.0
C      1  0.5375830000000  0.5215680000000  0.5889690000000 1.0
C      1  0.3987040000000  0.4915180000000  0.4977880000000 1.0
C      1  0.4646620000000  0.5075770000000  0.4038000000000 1.0
C      1  0.5638440000000  0.4329660000000  0.5240390000000 1.0
C      1  0.4794580000000  0.4408990000000  0.5699920000000 1.0
C      1  0.5385590000000  0.5072710000000  0.4723440000000 1.0
C      1  0.4689700000000  0.4572100000000  0.4752690000000 1.0
C      1  0.4869690000000  0.5854570000000  0.4908850000000 1.0
C      1  0.5001600000000  0.5387670000000  0.5979850000000 1.0
C      1  0.5239160000000  0.4486710000000  0.5695640000000 1.0
C      1  0.5144110000000  0.4418160000000  0.4662380000000 1.0
C      1  0.4795700000000  0.5550020000000  0.5851350000000 1.0
C      1  0.5817160000000  0.5151050000000  0.4435760000000 1.0
C      1  0.5115540000000  0.5098830000000  0.4323660000000 1.0
C      1  0.5554020000000  0.5139910000000  0.5660250000000 1.0
C      1  0.4500990000000  0.5738220000000  0.5355960000000 1.0
C      1  0.4509440000000  0.4413900000000  0.4360230000000 1.0
C      1  0.4535890000000  0.5456700000000  0.5786410000000 1.0
C      1  0.4195220000000  0.5037730000000  0.5156430000000 1.0
C      1  0.5693870000000  0.4447910000000  0.4509410000000 1.0
C      1  0.4792540000000  0.4823160000000  0.4632230000000 1.0
C      1  0.4515870000000  0.5796670000000  0.4592290000000 1.0
C      1  0.5348170000000  0.4783480000000  0.5065040000000 1.0
C      1  0.4705910000000  0.5277050000000  0.4547400000000 1.0
C      1  0.4365130000000  0.5564800000000  0.4506840000000 1.0
C      1  0.4743300000000  0.5336160000000  0.4106560000000 1.0
C      1  0.5242360000000  0.4148360000000  0.5026600000000 1.0
C      1  0.5861420000000  0.5465460000000  0.4764330000000 1.0
C      1  0.5167280000000  0.5563300000000  0.4295870000000 1.0
C      1  0.4553620000000  0.4631090000000  0.4207990000000 1.0
C      1  0.4557730000000  0.5014270000000  0.5519320000000 1.0
C      1  0.4268610000000  0.5048580000000  0.5475170000000 1.0
C      1  0.4780770000000  0.5796010000000  0.5405050000000 1.0
C      1  0.4000390000000  0.4649060000000  0.5566550000000 1.0
C      1  0.4089090000000  0.4492060000000  0.5104350000000 1.0
C      1  0.5420180000000  0.4800870000000  0.4787290000000 1.0
C      1  0.4954250000000  0.4481660000000  0.4902440000000 1.0
C      1  0.5979320000000  0.5031860000000  0.4649320000000 1.0
C      1  0.5764760000000  0.4407140000000  0.4993010000000 1.0
C      1  0.5198330000000  0.4273520000000  0.5498830000000 1.0
C      1  0.4446390000000  0.4738840000000  0.5774930000000 1.0
C      1  0.5607020000000  0.5021550000000  0.4281040000000 1.0
C      1  0.4692080000000  0.4852030000000  0.5319290000000 1.0
C      1  0.5882990000000  0.5315390000000  0.5329910000000 1.0
C      1  0.4639800000000  0.5396720000000  0.4805480000000 1.0
C      1  0.5239920000000  0.5452350000000  0.5380380000000 1.0
C      1  0.5622520000000  0.4327320000000  0.4758910000000 1.0
C      1  0.5192940000000  0.5390620000000  0.4931330000000 1.0
C      1  0.5310100000000  0.4599620000000  0.4126180000000 1.0
C      1  0.5621730000000  0.4847350000000  0.5618300000000 1.0
C      1  0.5758600000000  0.4487360000000  0.5420310000000 1.0
C      1  0.4754200000000  0.4869820000000  0.3880350000000 1.0
C      1  0.5309320000000  0.5150390000000  0.5433480000000 1.0
C      1  0.4546430000000  0.4513940000000  0.5639730000000 1.0
C      1  0.4693000000000  0.4326920000000  0.4558870000000 1.0
C      1  0.4979500000000  0.5243370000000  0.4539550000000 1.0
C      1  0.4514070000000  0.4918400000000  0.4247640000000 1.0
C      1  0.4215620000000  0.5346990000000  0.5452550000000 1.0
C      1  0.5747080000000  0.5547020000000  0.5240980000000 1.0
C      1  0.5414740000000  0.5474510000000  0.4472060000000 1.0
C      1  0.5936970000000  0.4568620000000  0.4510850000000 1.0
C      1  0.5132270000000  0.4921330000000  0.5542320000000 1.0
C      1  0.5355000000000  0.4247770000000  0.4788400000000 1.0
C      1  0.5037970000000  0.4811540000000  0.4428930000000 1.0
C      1  0.5102040000000  0.5113400000000  0.5963620000000 1.0
C      1  0.4191880000000  0.4826150000000  0.5659800000000 1.0
C      1  0.5091220000000  0.5155110000000  0.4777480000000 1.0
C      1  0.5486880000000  0.5716600000000  0.4972240000000 1.0
C      1  0.5020010000000  0.5470100000000  0.5159110000000 1.0
C      1  0.5728080000000  0.5419970000000  0.4514320000000 1.0
C      1  0.4914620000000  0.4937690000000  0.4882340000000 1.0
C      1  0.5756260000000  0.5628460000000  0.4961990000000 1.0
END
