TITL C-46958-1682-10 416.63164384117 125000 -552.061508064657 0 0 79 (C1) n - 1
REM
REM in /rds/project/t2_vol4/rds-t2-cs072/BORA/CARBON/from-Arr/AIRSS/Generating-Clusters/GAP-ML-2020/Only-C1/SD-CG/HFTN-CG
REM
REM
REM
REM
REM
REM ./C.cell (11c1c37f851c82e70ff6c80c92926a4b)
REM AIRSS Version 0.9.1 bugfix July 2018 build 013d7b7c2542+ Fri, 06 Jul 2018 19:26:36 +0100
REM compiler GCC version 9.3.0
REM options -cpp -mtune=generic -march=x86-64 -g -O0
REM seed -584624882 335460120 -2045378020 667940842 92334056 -1062378340 -270575679 -1218941273 -1401253623 422338818 -100231352 -2073640219 -963674811 -799906139 -485716414 13720904 128155255 1056579603 -2137223506 729007978 -1769870310 1173306419 63478298 -328014086 1186367319 -403125882 -946250056 942533222 1428001612 -782760521 913260579 357589126 -1138510179
REM
CELL 1.54180   50.00000   50.00000   50.00000   90.00000   90.00000   90.00000
LATT -1
SFAC C  
C      1  0.4701550000000  0.5159800000000  0.4795180000000 1.0
C      1  0.5575610000000  0.5398990000000  0.5087700000000 1.0
C      1  0.4463510000000  0.4510420000000  0.5289520000000 1.0
C      1  0.5449410000000  0.4360300000000  0.4904170000000 1.0
C      1  0.4599870000000  0.4467890000000  0.4626770000000 1.0
C      1  0.4763400000000  0.4907060000000  0.4916850000000 1.0
C      1  0.5063540000000  0.4586730000000  0.5690120000000 1.0
C      1  0.5535400000000  0.5614700000000  0.4675260000000 1.0
C      1  0.4549490000000  0.4845280000000  0.5681140000000 1.0
C      1  0.5684740000000  0.4752510000000  0.5133110000000 1.0
C      1  0.4232720000000  0.4892590000000  0.4998120000000 1.0
C      1  0.4456820000000  0.5479390000000  0.5240260000000 1.0
C      1  0.5224110000000  0.5011400000000  0.5626110000000 1.0
C      1  0.4229890000000  0.5145940000000  0.5138670000000 1.0
C      1  0.4333170000000  0.5370930000000  0.4991600000000 1.0
C      1  0.4917000000000  0.5202810000000  0.5225040000000 1.0
C      1  0.4803800000000  0.5636410000000  0.4984680000000 1.0
C      1  0.4980510000000  0.5785370000000  0.4646920000000 1.0
C      1  0.5550540000000  0.4953530000000  0.4509620000000 1.0
C      1  0.5329740000000  0.4577960000000  0.5570710000000 1.0
C      1  0.5151870000000  0.4261200000000  0.5252400000000 1.0
C      1  0.4914240000000  0.5627070000000  0.5446720000000 1.0
C      1  0.5412610000000  0.5206970000000  0.4928540000000 1.0
C      1  0.5029400000000  0.4860330000000  0.5766460000000 1.0
C      1  0.4273520000000  0.4660000000000  0.5153810000000 1.0
C      1  0.4805220000000  0.4945640000000  0.5199570000000 1.0
C      1  0.5514960000000  0.5641520000000  0.4950760000000 1.0
C      1  0.5608010000000  0.5285760000000  0.5340970000000 1.0
C      1  0.4481300000000  0.4746540000000  0.4574400000000 1.0
C      1  0.5046390000000  0.5804570000000  0.4925580000000 1.0
C      1  0.5618400000000  0.5091610000000  0.4754860000000 1.0
C      1  0.5377190000000  0.4408320000000  0.5355720000000 1.0
C      1  0.4708660000000  0.5680590000000  0.4702720000000 1.0
C      1  0.4703590000000  0.5245450000000  0.5725210000000 1.0
C      1  0.4992960000000  0.4740030000000  0.5249570000000 1.0
C      1  0.5291180000000  0.4997080000000  0.4388050000000 1.0
C      1  0.4452220000000  0.5121220000000  0.5615840000000 1.0
C      1  0.4580870000000  0.4584960000000  0.5556700000000 1.0
C      1  0.5439600000000  0.4843250000000  0.5555990000000 1.0
C      1  0.5269000000000  0.5751610000000  0.5081590000000 1.0
C      1  0.5639360000000  0.4710110000000  0.4634450000000 1.0
C      1  0.4690390000000  0.5645270000000  0.5249530000000 1.0
C      1  0.5482580000000  0.4475250000000  0.4642740000000 1.0
C      1  0.4578060000000  0.5488000000000  0.4549470000000 1.0
C      1  0.5163440000000  0.4717640000000  0.4312270000000 1.0
C      1  0.4874310000000  0.4684290000000  0.4302580000000 1.0
C      1  0.4770020000000  0.5363950000000  0.4373830000000 1.0
C      1  0.5556720000000  0.4487540000000  0.5143910000000 1.0
C      1  0.5180360000000  0.4787910000000  0.5040710000000 1.0
C      1  0.5323440000000  0.5022370000000  0.5146340000000 1.0
C      1  0.4802750000000  0.5106340000000  0.4504290000000 1.0
C      1  0.4661270000000  0.4331880000000  0.5156590000000 1.0
C      1  0.5277890000000  0.5293810000000  0.4313700000000 1.0
C      1  0.5036140000000  0.4321160000000  0.4526510000000 1.0
C      1  0.5026590000000  0.4841240000000  0.4812030000000 1.0
C      1  0.5200270000000  0.5641370000000  0.5345150000000 1.0
C      1  0.4341540000000  0.5252350000000  0.5390830000000 1.0
C      1  0.4433150000000  0.5262130000000  0.4737610000000 1.0
C      1  0.5025700000000  0.5451610000000  0.4301610000000 1.0
C      1  0.4883650000000  0.4296350000000  0.5341620000000 1.0
C      1  0.4677400000000  0.4868220000000  0.4399560000000 1.0
C      1  0.4907050000000  0.5327920000000  0.4951880000000 1.0
C      1  0.5200270000000  0.4230920000000  0.4975970000000 1.0
C      1  0.5358070000000  0.5405650000000  0.5403780000000 1.0
C      1  0.4982380000000  0.4236820000000  0.4794760000000 1.0
C      1  0.5174800000000  0.5173970000000  0.5373110000000 1.0
C      1  0.4710070000000  0.4317750000000  0.4868720000000 1.0
C      1  0.5088090000000  0.5052670000000  0.4613020000000 1.0
C      1  0.4781810000000  0.4969340000000  0.5804670000000 1.0
C      1  0.5721180000000  0.4847930000000  0.4873260000000 1.0
C      1  0.4850010000000  0.5460220000000  0.5658970000000 1.0
C      1  0.4835510000000  0.4454880000000  0.5579370000000 1.0
C      1  0.5133060000000  0.5672650000000  0.4442050000000 1.0
C      1  0.5401300000000  0.5521980000000  0.4465720000000 1.0
C      1  0.5263030000000  0.4480080000000  0.4452430000000 1.0
C      1  0.4327880000000  0.4947360000000  0.4726630000000 1.0
C      1  0.5151240000000  0.5283110000000  0.4790570000000 1.0
C      1  0.4800460000000  0.4440550000000  0.4425120000000 1.0
C      1  0.5572720000000  0.4963670000000  0.5317680000000 1.0
END
