TITL C-46973-1485-3 -47.4795189763138 125000 -755.369685173038 0 0 108 (C1) n - 1
REM
REM in /rds/project/t2_vol4/rds-t2-cs072/BORA/CARBON/from-Arr/AIRSS/Generating-Clusters/GAP-ML-2020/Only-C1/SD-CG/HFTN-CG
REM
REM
REM
REM
REM
REM ./C.cell (11c1c37f851c82e70ff6c80c92926a4b)
REM AIRSS Version 0.9.1 bugfix July 2018 build 013d7b7c2542+ Fri, 06 Jul 2018 19:26:36 +0100
REM compiler GCC version 9.3.0
REM options -cpp -mtune=generic -march=x86-64 -g -O0
REM seed -1195204630 1685064893 1476736260 1942344308 -1171715291 541405712 -1355800963 -1627251837 -1641227666 1805504450 -1740534471 -732803727 1595142092 -171525023 248715985 1239229858 -1399142229 2041697343 -1858060961 -1280650970 -1479648387 1826132102 -1388237191 -1507873070 -1260082528 -916265299 837998832 -1826146709 -1606215219 155190388 -1287491958 931801503 199382500
REM
CELL 1.54180   50.00000   50.00000   50.00000   90.00000   90.00000   90.00000
LATT -1
SFAC C  
C      1  0.4751590000000  0.5511330000000  0.5756410000000 1.0
C      1  0.5511760000000  0.4252760000000  0.4784410000000 1.0
C      1  0.5408950000000  0.5385340000000  0.4345360000000 1.0
C      1  0.5641820000000  0.5514360000000  0.5001420000000 1.0
C      1  0.5198390000000  0.5604510000000  0.5679820000000 1.0
C      1  0.5089070000000  0.4628650000000  0.5062150000000 1.0
C      1  0.4667950000000  0.5099800000000  0.5538240000000 1.0
C      1  0.5079860000000  0.4228300000000  0.5429200000000 1.0
C      1  0.5275060000000  0.5348150000000  0.5785510000000 1.0
C      1  0.4043790000000  0.4907730000000  0.5108270000000 1.0
C      1  0.4942070000000  0.5703440000000  0.5677970000000 1.0
C      1  0.4643360000000  0.5222720000000  0.4916580000000 1.0
C      1  0.5223240000000  0.4880790000000  0.4194800000000 1.0
C      1  0.5385470000000  0.4551370000000  0.5622040000000 1.0
C      1  0.4943050000000  0.4708970000000  0.5282630000000 1.0
C      1  0.5373770000000  0.4806290000000  0.5754910000000 1.0
C      1  0.4936910000000  0.5350780000000  0.4149180000000 1.0
C      1  0.5596870000000  0.5174480000000  0.4303300000000 1.0
C      1  0.4512170000000  0.4862520000000  0.5632220000000 1.0
C      1  0.5840270000000  0.4652640000000  0.5047200000000 1.0
C      1  0.4231570000000  0.4438220000000  0.4908180000000 1.0
C      1  0.4839360000000  0.5091910000000  0.4052960000000 1.0
C      1  0.4800920000000  0.4776570000000  0.4767990000000 1.0
C      1  0.4835690000000  0.4657340000000  0.4278280000000 1.0
C      1  0.4278160000000  0.4530090000000  0.5419190000000 1.0
C      1  0.4969470000000  0.4830230000000  0.4073470000000 1.0
C      1  0.5923230000000  0.5161330000000  0.5189620000000 1.0
C      1  0.5587000000000  0.4888610000000  0.5361180000000 1.0
C      1  0.4722770000000  0.5826170000000  0.4956950000000 1.0
C      1  0.5854850000000  0.4642550000000  0.4760020000000 1.0
C      1  0.4214010000000  0.4750440000000  0.4921190000000 1.0
C      1  0.5266450000000  0.4945260000000  0.4718780000000 1.0
C      1  0.5668130000000  0.4454100000000  0.5185950000000 1.0
C      1  0.4811250000000  0.5239300000000  0.5761420000000 1.0
C      1  0.4910320000000  0.5846030000000  0.5190730000000 1.0
C      1  0.4661570000000  0.4624540000000  0.5690630000000 1.0
C      1  0.5845860000000  0.4901760000000  0.5199930000000 1.0
C      1  0.5102880000000  0.5149580000000  0.5265020000000 1.0
C      1  0.4687000000000  0.5474200000000  0.4236740000000 1.0
C      1  0.5630990000000  0.5347810000000  0.4744680000000 1.0
C      1  0.4823360000000  0.4392670000000  0.4381850000000 1.0
C      1  0.5182360000000  0.5694750000000  0.5188360000000 1.0
C      1  0.5117570000000  0.5294450000000  0.4870350000000 1.0
C      1  0.4787890000000  0.5792880000000  0.5443670000000 1.0
C      1  0.4603210000000  0.5194740000000  0.4178320000000 1.0
C      1  0.5130140000000  0.4423680000000  0.5636620000000 1.0
C      1  0.5561100000000  0.4590950000000  0.5406500000000 1.0
C      1  0.5528560000000  0.5271680000000  0.5679750000000 1.0
C      1  0.4834980000000  0.4159340000000  0.5272850000000 1.0
C      1  0.4638380000000  0.4546610000000  0.4874360000000 1.0
C      1  0.5065690000000  0.5149750000000  0.5842450000000 1.0
C      1  0.4024820000000  0.5135520000000  0.4933570000000 1.0
C      1  0.4862850000000  0.4976330000000  0.5284710000000 1.0
C      1  0.5500610000000  0.4918070000000  0.4192860000000 1.0
C      1  0.4587880000000  0.5595610000000  0.5536480000000 1.0
C      1  0.4308450000000  0.4358460000000  0.5186050000000 1.0
C      1  0.5490480000000  0.5537520000000  0.4567290000000 1.0
C      1  0.5014870000000  0.5394180000000  0.5131800000000 1.0
C      1  0.5777100000000  0.5394030000000  0.5227470000000 1.0
C      1  0.5056530000000  0.4243940000000  0.4523220000000 1.0
C      1  0.4148610000000  0.5007870000000  0.5349610000000 1.0
C      1  0.4563730000000  0.4240940000000  0.5318220000000 1.0
C      1  0.5808600000000  0.4851140000000  0.4551870000000 1.0
C      1  0.5254900000000  0.4154890000000  0.5200730000000 1.0
C      1  0.5497910000000  0.4246210000000  0.5069220000000 1.0
C      1  0.4573980000000  0.4327780000000  0.4492490000000 1.0
C      1  0.5720600000000  0.4412130000000  0.4664350000000 1.0
C      1  0.4315140000000  0.5154870000000  0.4566310000000 1.0
C      1  0.5341820000000  0.4290440000000  0.4532070000000 1.0
C      1  0.5129630000000  0.5293760000000  0.4373610000000 1.0
C      1  0.5008920000000  0.4090980000000  0.5043800000000 1.0
C      1  0.4527080000000  0.5341850000000  0.5387710000000 1.0
C      1  0.5608180000000  0.5735260000000  0.5500260000000 1.0
C      1  0.4151580000000  0.4989670000000  0.4726450000000 1.0
C      1  0.4779140000000  0.5777020000000  0.4683090000000 1.0
C      1  0.4521080000000  0.4423500000000  0.5541740000000 1.0
C      1  0.4146200000000  0.5363900000000  0.5050650000000 1.0
C      1  0.4701840000000  0.4963060000000  0.5002530000000 1.0
C      1  0.5357720000000  0.5015480000000  0.5154820000000 1.0
C      1  0.5323650000000  0.5718350000000  0.4707450000000 1.0
C      1  0.4597030000000  0.5562010000000  0.4515670000000 1.0
C      1  0.5758300000000  0.5141450000000  0.4536780000000 1.0
C      1  0.4945290000000  0.4626890000000  0.5749100000000 1.0
C      1  0.4502310000000  0.4751450000000  0.5034280000000 1.0
C      1  0.5380190000000  0.5175070000000  0.4871540000000 1.0
C      1  0.4286030000000  0.5545760000000  0.4881820000000 1.0
C      1  0.5043450000000  0.5694920000000  0.4637990000000 1.0
C      1  0.4685460000000  0.5411700000000  0.5128650000000 1.0
C      1  0.4919590000000  0.4510280000000  0.4866610000000 1.0
C      1  0.5649680000000  0.4723140000000  0.4340940000000 1.0
C      1  0.4812970000000  0.4870650000000  0.4493840000000 1.0
C      1  0.5403550000000  0.5692230000000  0.4981870000000 1.0
C      1  0.4447780000000  0.4381880000000  0.4720310000000 1.0
C      1  0.5108440000000  0.4862600000000  0.5833470000000 1.0
C      1  0.5112200000000  0.4986420000000  0.4463740000000 1.0
C      1  0.4514850000000  0.5651580000000  0.5020670000000 1.0
C      1  0.4974900000000  0.4223800000000  0.4795690000000 1.0
C      1  0.5288390000000  0.4785010000000  0.4952470000000 1.0
C      1  0.4271440000000  0.4806060000000  0.5499550000000 1.0
C      1  0.5661370000000  0.5462530000000  0.5491090000000 1.0
C      1  0.4331440000000  0.5454590000000  0.4616310000000 1.0
C      1  0.4722500000000  0.5314250000000  0.4640390000000 1.0
C      1  0.4590800000000  0.5091300000000  0.4454060000000 1.0
C      1  0.5009970000000  0.5399950000000  0.4626760000000 1.0
C      1  0.4249450000000  0.5272990000000  0.5302100000000 1.0
C      1  0.5547900000000  0.4995830000000  0.5637940000000 1.0
C      1  0.5561010000000  0.4462010000000  0.4423670000000 1.0
C      1  0.5339690000000  0.5708400000000  0.5452650000000 1.0
END
