TITL C-46952-1641-1 15.6732777008628 125000 -47.0401808277083 0 0 8 (Cs) n - 1
REM
REM in /rds/project/t2_vol4/rds-t2-cs072/BORA/CARBON/from-Arr/AIRSS/Generating-Clusters/GAP-ML-2020/Only-C1/SD-CG/HFTN-CG
REM
REM
REM
REM
REM
REM ./C.cell (11c1c37f851c82e70ff6c80c92926a4b)
REM AIRSS Version 0.9.1 bugfix July 2018 build 013d7b7c2542+ Fri, 06 Jul 2018 19:26:36 +0100
REM compiler GCC version 9.3.0
REM options -cpp -mtune=generic -march=x86-64 -g -O0
REM seed -1993324851 -1507449121 1187455995 -212932702 286647389 -722950039 -1223200984 952391676 -1853967712 777181567 750936155 -433279252 1588715 1245286855 -1902590473 718619566 -1800294789 -293218984 -404403113 564212266 -235980473 985838730 -1517313708 1486588551 1576884494 2039073171 -1505876376 -1801626929 -1216072364 -1161703352 -558269315 383227254 -517246232
REM
CELL 1.54180   50.00000   50.00000   50.00000   90.00000   90.00000   90.00000
LATT -1
SFAC C  
C      1  0.5041320000000  0.5353040000000  0.4724230000000 1.0
C      1  0.5135510000000  0.4884850000000  0.4958920000000 1.0
C      1  0.4650720000000  0.4747740000000  0.5542720000000 1.0
C      1  0.4966700000000  0.5488240000000  0.4509400000000 1.0
C      1  0.5275970000000  0.4660000000000  0.4840740000000 1.0
C      1  0.4835270000000  0.4870190000000  0.5397990000000 1.0
C      1  0.5103790000000  0.5130440000000  0.4828140000000 1.0
C      1  0.4990720000000  0.4865500000000  0.5197850000000 1.0
END
