TITL C-46949-1520-8 -0.235348908570609 125000 -640.192444241101 0 0 93 (C1) n - 1
REM
REM in /rds/project/t2_vol4/rds-t2-cs072/BORA/CARBON/from-Arr/AIRSS/Generating-Clusters/GAP-ML-2020/Only-C1/SD-CG/HFTN-CG
REM
REM
REM
REM
REM
REM ./C.cell (11c1c37f851c82e70ff6c80c92926a4b)
REM AIRSS Version 0.9.1 bugfix July 2018 build 013d7b7c2542+ Fri, 06 Jul 2018 19:26:36 +0100
REM compiler GCC version 9.3.0
REM options -cpp -mtune=generic -march=x86-64 -g -O0
REM seed -138016484 -301113304 -2093929049 1725314439 -1309070693 405848160 -1371271880 -1914679964 1615677179 1317183571 -1187255675 -549876883 2114618864 -1492575432 163795870 529303628 964329568 949203852 -1921285159 1803355654 1827911501 -2138958009 -1986449749 -2088118186 936790434 -1190029761 1561106273 -179462615 -1346240684 -582942415 954868579 95930853 64533395
REM
CELL 1.54180   50.00000   50.00000   50.00000   90.00000   90.00000   90.00000
LATT -1
SFAC C  
C      1  0.5539630000000  0.5300570000000  0.4405540000000 1.0
C      1  0.5264640000000  0.5176660000000  0.4956310000000 1.0
C      1  0.5678100000000  0.5324290000000  0.4658090000000 1.0
C      1  0.4588010000000  0.5085480000000  0.5035310000000 1.0
C      1  0.4367310000000  0.4690190000000  0.4566410000000 1.0
C      1  0.4839070000000  0.5055400000000  0.5829210000000 1.0
C      1  0.5062890000000  0.5202120000000  0.4541980000000 1.0
C      1  0.4896680000000  0.5550050000000  0.5536150000000 1.0
C      1  0.4710780000000  0.4250120000000  0.5196610000000 1.0
C      1  0.5196070000000  0.4709410000000  0.4198570000000 1.0
C      1  0.5731230000000  0.4933520000000  0.5506200000000 1.0
C      1  0.5224880000000  0.4648990000000  0.5193630000000 1.0
C      1  0.4907060000000  0.4940080000000  0.5335650000000 1.0
C      1  0.5350350000000  0.5113880000000  0.5245450000000 1.0
C      1  0.5409770000000  0.4874600000000  0.4173320000000 1.0
C      1  0.5257460000000  0.4862260000000  0.5667680000000 1.0
C      1  0.4457150000000  0.4469840000000  0.4736920000000 1.0
C      1  0.5530550000000  0.5521040000000  0.5241700000000 1.0
C      1  0.5580750000000  0.5031940000000  0.4302360000000 1.0
C      1  0.4962170000000  0.4629270000000  0.5017750000000 1.0
C      1  0.4939550000000  0.5126800000000  0.4281960000000 1.0
C      1  0.5141930000000  0.4369790000000  0.5341240000000 1.0
C      1  0.4437930000000  0.5600410000000  0.5151480000000 1.0
C      1  0.5389170000000  0.5641480000000  0.4999180000000 1.0
C      1  0.4239100000000  0.4892870000000  0.4708370000000 1.0
C      1  0.4403400000000  0.5076490000000  0.5651810000000 1.0
C      1  0.5416530000000  0.4319110000000  0.4968670000000 1.0
C      1  0.5400810000000  0.5889220000000  0.4842640000000 1.0
C      1  0.4786820000000  0.4691400000000  0.5266770000000 1.0
C      1  0.4729850000000  0.4787950000000  0.5798410000000 1.0
C      1  0.5468500000000  0.4246320000000  0.4704140000000 1.0
C      1  0.4483190000000  0.4720570000000  0.5350600000000 1.0
C      1  0.4747180000000  0.5531420000000  0.4267840000000 1.0
C      1  0.4619020000000  0.5229310000000  0.5759110000000 1.0
C      1  0.4310190000000  0.5176050000000  0.5402590000000 1.0
C      1  0.5191270000000  0.4893520000000  0.5360680000000 1.0
C      1  0.5006110000000  0.5307940000000  0.5010060000000 1.0
C      1  0.4492930000000  0.4808440000000  0.5637670000000 1.0
C      1  0.5352680000000  0.4305600000000  0.4480060000000 1.0
C      1  0.4998300000000  0.4759950000000  0.4763730000000 1.0
C      1  0.4858430000000  0.5689620000000  0.4861110000000 1.0
C      1  0.4310600000000  0.4523530000000  0.4984940000000 1.0
C      1  0.4949620000000  0.4855040000000  0.4187080000000 1.0
C      1  0.5349960000000  0.5364300000000  0.5412300000000 1.0
C      1  0.5129430000000  0.5374300000000  0.5597360000000 1.0
C      1  0.5077230000000  0.5607930000000  0.5067450000000 1.0
C      1  0.5848570000000  0.5092410000000  0.4690770000000 1.0
C      1  0.5655140000000  0.4808860000000  0.5007170000000 1.0
C      1  0.4912300000000  0.5695560000000  0.4386140000000 1.0
C      1  0.5310950000000  0.4414130000000  0.5564760000000 1.0
C      1  0.5203680000000  0.4970460000000  0.4733450000000 1.0
C      1  0.5419670000000  0.5396020000000  0.4808440000000 1.0
C      1  0.4894200000000  0.4545690000000  0.4526040000000 1.0
C      1  0.4929810000000  0.5860320000000  0.4637480000000 1.0
C      1  0.4686910000000  0.5261320000000  0.4251270000000 1.0
C      1  0.4727200000000  0.4375940000000  0.4713580000000 1.0
C      1  0.4176930000000  0.5407040000000  0.4707620000000 1.0
C      1  0.5542120000000  0.4534140000000  0.5458750000000 1.0
C      1  0.4221280000000  0.4801610000000  0.4975160000000 1.0
C      1  0.5155410000000  0.4590390000000  0.5741570000000 1.0
C      1  0.5155450000000  0.4479090000000  0.4385310000000 1.0
C      1  0.5902600000000  0.4983320000000  0.4945150000000 1.0
C      1  0.5228240000000  0.5889770000000  0.4634350000000 1.0
C      1  0.5551360000000  0.4770090000000  0.5614140000000 1.0
C      1  0.5522940000000  0.4562010000000  0.5142050000000 1.0
C      1  0.4634530000000  0.5457860000000  0.5593960000000 1.0
C      1  0.4465570000000  0.5100100000000  0.4346920000000 1.0
C      1  0.4418910000000  0.5443160000000  0.5390600000000 1.0
C      1  0.5280860000000  0.5409960000000  0.4524680000000 1.0
C      1  0.5639920000000  0.5041200000000  0.5253410000000 1.0
C      1  0.4325310000000  0.5164070000000  0.4606590000000 1.0
C      1  0.4522450000000  0.4246960000000  0.5399610000000 1.0
C      1  0.4347640000000  0.5476990000000  0.4904930000000 1.0
C      1  0.4712630000000  0.4346560000000  0.5623050000000 1.0
C      1  0.4507670000000  0.4815630000000  0.4357930000000 1.0
C      1  0.4685340000000  0.5727770000000  0.5109230000000 1.0
C      1  0.5104310000000  0.5124050000000  0.5753000000000 1.0
C      1  0.4554380000000  0.5262710000000  0.4809120000000 1.0
C      1  0.4867810000000  0.4423040000000  0.5398300000000 1.0
C      1  0.4754350000000  0.4696230000000  0.4307240000000 1.0
C      1  0.4875750000000  0.4315890000000  0.4969670000000 1.0
C      1  0.4397070000000  0.4454400000000  0.5248000000000 1.0
C      1  0.5743060000000  0.5331110000000  0.5202010000000 1.0
C      1  0.5505040000000  0.4842980000000  0.4747650000000 1.0
C      1  0.4844870000000  0.5359510000000  0.4753520000000 1.0
C      1  0.5202480000000  0.5672470000000  0.4433660000000 1.0
C      1  0.5698890000000  0.4905040000000  0.4537260000000 1.0
C      1  0.5961060000000  0.5213600000000  0.5104140000000 1.0
C      1  0.4867720000000  0.4542880000000  0.5772000000000 1.0
C      1  0.4362880000000  0.4954670000000  0.5189040000000 1.0
C      1  0.4904570000000  0.5694990000000  0.5293970000000 1.0
C      1  0.5159470000000  0.4242750000000  0.5080740000000 1.0
C      1  0.4826400000000  0.5136140000000  0.5164510000000 1.0
END
