TITL C-46975-1576-7 0.0894718690492598 125000 -533.823523886917 0 0 77 (C1) n - 1
REM
REM in /rds/project/t2_vol4/rds-t2-cs072/BORA/CARBON/from-Arr/AIRSS/Generating-Clusters/GAP-ML-2020/Only-C1/SD-CG/HFTN-CG
REM
REM
REM
REM
REM
REM ./C.cell (11c1c37f851c82e70ff6c80c92926a4b)
REM AIRSS Version 0.9.1 bugfix July 2018 build 013d7b7c2542+ Fri, 06 Jul 2018 19:26:36 +0100
REM compiler GCC version 9.3.0
REM options -cpp -mtune=generic -march=x86-64 -g -O0
REM seed -1652222012 -982590709 -548970235 1994954682 -845715453 1283463390 1028441908 1822494582 -2020144959 658159317 1340753420 -610709103 -355912861 -1199899674 -1916008822 -1713486547 -1479262390 864135838 -1408855689 -701031754 1615682355 -1090272621 2057543100 1195197358 1353740441 -1940770936 517516862 835207498 444885205 -370661281 -2011291363 -997934738 1268502879
REM
CELL 1.54180   50.00000   50.00000   50.00000   90.00000   90.00000   90.00000
LATT -1
SFAC C  
C      1  0.4702400000000  0.5368280000000  0.4489990000000 1.0
C      1  0.5017490000000  0.4315420000000  0.5133100000000 1.0
C      1  0.5661440000000  0.5225560000000  0.4717100000000 1.0
C      1  0.4255000000000  0.5368780000000  0.4682340000000 1.0
C      1  0.4580020000000  0.4760890000000  0.5709290000000 1.0
C      1  0.4392970000000  0.4688030000000  0.5296990000000 1.0
C      1  0.5241820000000  0.4907270000000  0.4198190000000 1.0
C      1  0.5434580000000  0.4340110000000  0.4892020000000 1.0
C      1  0.4264170000000  0.5548880000000  0.4914510000000 1.0
C      1  0.5301420000000  0.4277410000000  0.5147910000000 1.0
C      1  0.4513510000000  0.5669260000000  0.4837380000000 1.0
C      1  0.4940170000000  0.4864980000000  0.4692540000000 1.0
C      1  0.4702750000000  0.5553330000000  0.5287690000000 1.0
C      1  0.5355490000000  0.5563880000000  0.4652600000000 1.0
C      1  0.5101910000000  0.5209860000000  0.5230080000000 1.0
C      1  0.5423680000000  0.5272330000000  0.5331700000000 1.0
C      1  0.5548640000000  0.5189810000000  0.4455620000000 1.0
C      1  0.4731810000000  0.5077430000000  0.4637010000000 1.0
C      1  0.4977290000000  0.5472310000000  0.5370280000000 1.0
C      1  0.5165950000000  0.5630160000000  0.5174580000000 1.0
C      1  0.4890130000000  0.4509770000000  0.5367180000000 1.0
C      1  0.4443690000000  0.5416580000000  0.5349410000000 1.0
C      1  0.5104620000000  0.5345580000000  0.4308540000000 1.0
C      1  0.4975250000000  0.4386030000000  0.4856680000000 1.0
C      1  0.5432200000000  0.4277010000000  0.5385620000000 1.0
C      1  0.4211140000000  0.5110910000000  0.5058560000000 1.0
C      1  0.4534660000000  0.4924810000000  0.4343230000000 1.0
C      1  0.4687820000000  0.5087250000000  0.5114400000000 1.0
C      1  0.5700620000000  0.4713590000000  0.4694900000000 1.0
C      1  0.4263650000000  0.5388580000000  0.5133940000000 1.0
C      1  0.5522750000000  0.5455170000000  0.4860290000000 1.0
C      1  0.5610410000000  0.5064890000000  0.5269860000000 1.0
C      1  0.5346730000000  0.4465520000000  0.5561800000000 1.0
C      1  0.4279510000000  0.4963330000000  0.5298360000000 1.0
C      1  0.4250980000000  0.5098650000000  0.4765000000000 1.0
C      1  0.5321260000000  0.4930070000000  0.5677300000000 1.0
C      1  0.4892410000000  0.4990710000000  0.5281460000000 1.0
C      1  0.5142670000000  0.4629620000000  0.4238950000000 1.0
C      1  0.5070740000000  0.4527340000000  0.5611630000000 1.0
C      1  0.5483620000000  0.4940040000000  0.4337750000000 1.0
C      1  0.5796100000000  0.4943750000000  0.5092530000000 1.0
C      1  0.5718650000000  0.4663270000000  0.5129150000000 1.0
C      1  0.4486990000000  0.5504020000000  0.4589020000000 1.0
C      1  0.4829040000000  0.5160690000000  0.5757940000000 1.0
C      1  0.4460700000000  0.4916750000000  0.4624370000000 1.0
C      1  0.5102690000000  0.4779180000000  0.5765930000000 1.0
C      1  0.5360990000000  0.5391830000000  0.4417820000000 1.0
C      1  0.5179130000000  0.4949950000000  0.4839930000000 1.0
C      1  0.4770660000000  0.4895540000000  0.4200350000000 1.0
C      1  0.5089380000000  0.5656130000000  0.4683410000000 1.0
C      1  0.5769010000000  0.4979300000000  0.4812690000000 1.0
C      1  0.4940640000000  0.5513620000000  0.4469580000000 1.0
C      1  0.5423100000000  0.5501660000000  0.5135310000000 1.0
C      1  0.4525390000000  0.4687240000000  0.4814760000000 1.0
C      1  0.5029600000000  0.5088740000000  0.4194970000000 1.0
C      1  0.5302590000000  0.4513030000000  0.4454840000000 1.0
C      1  0.5665360000000  0.4514910000000  0.4895120000000 1.0
C      1  0.4688430000000  0.4733290000000  0.5960230000000 1.0
C      1  0.5477730000000  0.4789440000000  0.5255930000000 1.0
C      1  0.4901890000000  0.4912180000000  0.5902030000000 1.0
C      1  0.4881040000000  0.4636060000000  0.4155140000000 1.0
C      1  0.5295240000000  0.5208140000000  0.5600700000000 1.0
C      1  0.4795190000000  0.5196570000000  0.4893540000000 1.0
C      1  0.5232280000000  0.4763650000000  0.5058850000000 1.0
C      1  0.5533550000000  0.4694200000000  0.4471970000000 1.0
C      1  0.5465550000000  0.4731670000000  0.5535800000000 1.0
C      1  0.5225480000000  0.4370400000000  0.4698220000000 1.0
C      1  0.5029900000000  0.5326450000000  0.5633310000000 1.0
C      1  0.4398400000000  0.5162850000000  0.5482290000000 1.0
C      1  0.4959420000000  0.4737290000000  0.5168160000000 1.0
C      1  0.4381970000000  0.4635090000000  0.5031060000000 1.0
C      1  0.5001440000000  0.5709260000000  0.4954010000000 1.0
C      1  0.4605350000000  0.4598950000000  0.5471130000000 1.0
C      1  0.5087050000000  0.5205010000000  0.4930860000000 1.0
C      1  0.4565910000000  0.5065390000000  0.5673820000000 1.0
C      1  0.4726460000000  0.5686170000000  0.5029380000000 1.0
C      1  0.4820340000000  0.4648890000000  0.4850080000000 1.0
END
