TITL C-46966-1742-7 30.9473667301022 125000 -121.734457571623 0 0 19 (C1) n - 1
REM
REM in /rds/project/t2_vol4/rds-t2-cs072/BORA/CARBON/from-Arr/AIRSS/Generating-Clusters/GAP-ML-2020/Only-C1/SD-CG/HFTN-CG
REM
REM
REM
REM
REM
REM ./C.cell (11c1c37f851c82e70ff6c80c92926a4b)
REM AIRSS Version 0.9.1 bugfix July 2018 build 013d7b7c2542+ Fri, 06 Jul 2018 19:26:36 +0100
REM compiler GCC version 9.3.0
REM options -cpp -mtune=generic -march=x86-64 -g -O0
REM seed -1575048141 9216816 -1697141668 689849917 648061382 -1030202683 -388077962 -1985635387 -608540115 59220889 -754879842 1733323897 -853286205 -470040453 1729955544 -924462781 -748512252 -60995195 -482780538 1573744379 -113045468 -871938371 -831773267 -821286303 299132104 1471297797 -693601097 -1783372141 596616201 -1265498797 322326704 -1685162703 -1707272633
REM
CELL 1.54180   50.00000   50.00000   50.00000   90.00000   90.00000   90.00000
LATT -1
SFAC C  
C      1  0.4796160000000  0.4944500000000  0.4661800000000 1.0
C      1  0.4866430000000  0.4701440000000  0.4781020000000 1.0
C      1  0.5066030000000  0.5148550000000  0.4271530000000 1.0
C      1  0.5346760000000  0.4381360000000  0.5489400000000 1.0
C      1  0.4982590000000  0.5228140000000  0.5427360000000 1.0
C      1  0.4538660000000  0.5227950000000  0.5206500000000 1.0
C      1  0.5317720000000  0.4627930000000  0.5588500000000 1.0
C      1  0.5252210000000  0.5295620000000  0.4393760000000 1.0
C      1  0.5260570000000  0.4868170000000  0.5633890000000 1.0
C      1  0.5299820000000  0.5376660000000  0.4636850000000 1.0
C      1  0.5139300000000  0.5095000000000  0.5568920000000 1.0
C      1  0.4819670000000  0.5291580000000  0.5222320000000 1.0
C      1  0.4901390000000  0.5319970000000  0.4943930000000 1.0
C      1  0.4910680000000  0.5027340000000  0.4432280000000 1.0
C      1  0.4696890000000  0.5169100000000  0.4801600000000 1.0
C      1  0.5136640000000  0.5364290000000  0.4829580000000 1.0
C      1  0.4951190000000  0.4481590000000  0.4877300000000 1.0
C      1  0.5260150000000  0.4272630000000  0.5270250000000 1.0
C      1  0.4457140000000  0.5178170000000  0.4963200000000 1.0
END
