TITL C-46964-2722-5 26.8673073197683 125000 -704.536771595617 0 0 102 (C1) n - 1
REM
REM in /rds/project/t2_vol4/rds-t2-cs072/BORA/CARBON/from-Arr/AIRSS/Generating-Clusters/GAP-ML-2020/Only-C1/SD-CG/HFTN-CG
REM
REM
REM
REM
REM
REM ./C.cell (11c1c37f851c82e70ff6c80c92926a4b)
REM AIRSS Version 0.9.1 bugfix July 2018 build 013d7b7c2542+ Fri, 06 Jul 2018 19:26:36 +0100
REM compiler GCC version 9.3.0
REM options -cpp -mtune=generic -march=x86-64 -g -O0
REM seed 1244075040 -2040464684 1835233678 -1383596087 1368806981 -1662142265 -1072955812 1360252042 1091782428 -1257747133 -1999210987 244692554 1134123896 1214444574 -1694898817 -1993879539 -247865691 -828691729 1777967368 -999925754 1092465886 -1895374086 -1910120464 -1070513153 1723663909 1184951016 -2015461443 522960733 452340922 -1559316807 -795493656 635257164 -1666817862
REM
CELL 1.54180   50.00000   50.00000   50.00000   90.00000   90.00000   90.00000
LATT -1
SFAC C  
C      1  0.4843190000000  0.4935190000000  0.5281930000000 1.0
C      1  0.5513560000000  0.5647620000000  0.5046080000000 1.0
C      1  0.5595940000000  0.4514710000000  0.5194900000000 1.0
C      1  0.4601110000000  0.4255390000000  0.5311310000000 1.0
C      1  0.4773450000000  0.4216320000000  0.5079310000000 1.0
C      1  0.5675720000000  0.4555390000000  0.4712130000000 1.0
C      1  0.5426210000000  0.4885040000000  0.4152070000000 1.0
C      1  0.5328900000000  0.4642200000000  0.4259020000000 1.0
C      1  0.4458560000000  0.5262560000000  0.4463770000000 1.0
C      1  0.4680670000000  0.4903820000000  0.4372380000000 1.0
C      1  0.5462320000000  0.5149660000000  0.4524210000000 1.0
C      1  0.4611490000000  0.4234170000000  0.4830120000000 1.0
C      1  0.4915330000000  0.4529370000000  0.5009200000000 1.0
C      1  0.5216430000000  0.4782230000000  0.4679290000000 1.0
C      1  0.5052000000000  0.5830010000000  0.5069920000000 1.0
C      1  0.5581670000000  0.4919970000000  0.4384720000000 1.0
C      1  0.5642620000000  0.4984620000000  0.5244490000000 1.0
C      1  0.5262020000000  0.5175670000000  0.5272020000000 1.0
C      1  0.4805870000000  0.4752710000000  0.5843400000000 1.0
C      1  0.4954360000000  0.4407490000000  0.4489880000000 1.0
C      1  0.4650390000000  0.5173950000000  0.5243250000000 1.0
C      1  0.5314480000000  0.5729580000000  0.5408810000000 1.0
C      1  0.5161640000000  0.4183050000000  0.5323990000000 1.0
C      1  0.5973410000000  0.5109720000000  0.4921080000000 1.0
C      1  0.4594060000000  0.5241240000000  0.5771350000000 1.0
C      1  0.4723170000000  0.4350060000000  0.5545220000000 1.0
C      1  0.5502420000000  0.5152280000000  0.5677730000000 1.0
C      1  0.4995100000000  0.5233340000000  0.5859500000000 1.0
C      1  0.4548780000000  0.5150750000000  0.4967840000000 1.0
C      1  0.5005710000000  0.5057620000000  0.4054690000000 1.0
C      1  0.5064420000000  0.5718090000000  0.4467380000000 1.0
C      1  0.5017520000000  0.4063410000000  0.5110970000000 1.0
C      1  0.4972170000000  0.4996250000000  0.5021270000000 1.0
C      1  0.5538810000000  0.4751010000000  0.5399600000000 1.0
C      1  0.4200670000000  0.4772890000000  0.5097200000000 1.0
C      1  0.5082210000000  0.4677250000000  0.5843020000000 1.0
C      1  0.5852330000000  0.4899150000000  0.5060650000000 1.0
C      1  0.4411780000000  0.5499810000000  0.4623010000000 1.0
C      1  0.5264430000000  0.5141810000000  0.5862030000000 1.0
C      1  0.4374810000000  0.5375580000000  0.5361930000000 1.0
C      1  0.4231710000000  0.5326610000000  0.5107910000000 1.0
C      1  0.4625280000000  0.4587460000000  0.5684780000000 1.0
C      1  0.4282560000000  0.4617470000000  0.5325000000000 1.0
C      1  0.4384640000000  0.4711630000000  0.5579430000000 1.0
C      1  0.5302280000000  0.5760120000000  0.4632180000000 1.0
C      1  0.5281430000000  0.5107100000000  0.4053150000000 1.0
C      1  0.4312180000000  0.4963290000000  0.5648480000000 1.0
C      1  0.5078560000000  0.5526060000000  0.4231860000000 1.0
C      1  0.5047000000000  0.4575660000000  0.4258980000000 1.0
C      1  0.5050700000000  0.5759950000000  0.5353520000000 1.0
C      1  0.4818020000000  0.5423610000000  0.5719290000000 1.0
C      1  0.4738780000000  0.4802060000000  0.4643160000000 1.0
C      1  0.5633190000000  0.5483660000000  0.4827390000000 1.0
C      1  0.5425520000000  0.5044160000000  0.5049450000000 1.0
C      1  0.5007700000000  0.4300710000000  0.5530410000000 1.0
C      1  0.4817590000000  0.5773970000000  0.4625010000000 1.0
C      1  0.5526280000000  0.4862270000000  0.5681640000000 1.0
C      1  0.4536830000000  0.5626340000000  0.5356350000000 1.0
C      1  0.5891490000000  0.5340060000000  0.4842820000000 1.0
C      1  0.4959220000000  0.5195850000000  0.4637340000000 1.0
C      1  0.4891460000000  0.5306980000000  0.4157210000000 1.0
C      1  0.4821260000000  0.5590470000000  0.5471390000000 1.0
C      1  0.5497610000000  0.5401530000000  0.4381450000000 1.0
C      1  0.4786790000000  0.4198190000000  0.4607570000000 1.0
C      1  0.5229090000000  0.4843590000000  0.4960210000000 1.0
C      1  0.4878840000000  0.4807430000000  0.4179890000000 1.0
C      1  0.5527250000000  0.5605550000000  0.4570840000000 1.0
C      1  0.5152440000000  0.4517570000000  0.5622490000000 1.0
C      1  0.4247380000000  0.5038680000000  0.4975080000000 1.0
C      1  0.4816920000000  0.5787180000000  0.4920060000000 1.0
C      1  0.4560170000000  0.5717180000000  0.4539150000000 1.0
C      1  0.5524830000000  0.5265410000000  0.5414510000000 1.0
C      1  0.5148750000000  0.5339240000000  0.4818190000000 1.0
C      1  0.5512690000000  0.5561400000000  0.5326140000000 1.0
C      1  0.5321620000000  0.5389260000000  0.4167710000000 1.0
C      1  0.4735740000000  0.5214500000000  0.4377800000000 1.0
C      1  0.5489100000000  0.4675100000000  0.4528330000000 1.0
C      1  0.5197010000000  0.4151810000000  0.4904040000000 1.0
C      1  0.5057710000000  0.4169760000000  0.4664300000000 1.0
C      1  0.4345720000000  0.5231730000000  0.5623970000000 1.0
C      1  0.4386950000000  0.4984850000000  0.4471890000000 1.0
C      1  0.4372590000000  0.4377200000000  0.5208600000000 1.0
C      1  0.4954840000000  0.4618150000000  0.4697620000000 1.0
C      1  0.4624440000000  0.5616600000000  0.5067630000000 1.0
C      1  0.5060730000000  0.5288140000000  0.5085560000000 1.0
C      1  0.4250790000000  0.4885380000000  0.4697790000000 1.0
C      1  0.5297240000000  0.4853830000000  0.5866250000000 1.0
C      1  0.4822770000000  0.5402080000000  0.5212750000000 1.0
C      1  0.5105370000000  0.4962750000000  0.5419620000000 1.0
C      1  0.4245690000000  0.4634750000000  0.4847100000000 1.0
C      1  0.5739450000000  0.4626690000000  0.4975970000000 1.0
C      1  0.5298760000000  0.5794200000000  0.4924780000000 1.0
C      1  0.5186620000000  0.4591480000000  0.5125810000000 1.0
C      1  0.4751050000000  0.4696450000000  0.5169970000000 1.0
C      1  0.5172230000000  0.5029120000000  0.4524450000000 1.0
C      1  0.5237960000000  0.4699420000000  0.5400070000000 1.0
C      1  0.4384700000000  0.4388620000000  0.4914500000000 1.0
C      1  0.5340430000000  0.4336490000000  0.5131740000000 1.0
C      1  0.4433090000000  0.5443360000000  0.4918760000000 1.0
C      1  0.4776000000000  0.5032090000000  0.4810830000000 1.0
C      1  0.5440280000000  0.5240220000000  0.4812440000000 1.0
C      1  0.4774890000000  0.5036560000000  0.5876720000000 1.0
END
