TITL C-46967-1556-2 10.714539427842 125000 -429.685995844169 0 0 64 (C1) n - 1
REM
REM in /rds/project/t2_vol4/rds-t2-cs072/BORA/CARBON/from-Arr/AIRSS/Generating-Clusters/GAP-ML-2020/Only-C1/SD-CG/HFTN-CG
REM
REM
REM
REM
REM
REM ./C.cell (11c1c37f851c82e70ff6c80c92926a4b)
REM AIRSS Version 0.9.1 bugfix July 2018 build 013d7b7c2542+ Fri, 06 Jul 2018 19:26:36 +0100
REM compiler GCC version 9.3.0
REM options -cpp -mtune=generic -march=x86-64 -g -O0
REM seed -4223489 -1720111061 306285811 -1987897872 3164881 548060035 -331037537 285494690 -1443163821 -362400916 501115352 -470371193 -773701946 1504821427 571621509 8119981 -432029919 -1594740172 1382947654 -1932208792 1665699511 -1679306858 -1856075398 776289934 -406522644 416758237 2071657232 -2123943567 -1452829917 1447919323 -546625386 716067692 -2046505953
REM
CELL 1.54180   50.00000   50.00000   50.00000   90.00000   90.00000   90.00000
LATT -1
SFAC C  
C      1  0.4582130000000  0.4460220000000  0.4646250000000 1.0
C      1  0.5636520000000  0.5012130000000  0.4698260000000 1.0
C      1  0.5396750000000  0.5342250000000  0.4472460000000 1.0
C      1  0.4728640000000  0.5356990000000  0.4431970000000 1.0
C      1  0.4452970000000  0.4613910000000  0.5400540000000 1.0
C      1  0.4996130000000  0.5676220000000  0.4981680000000 1.0
C      1  0.4409830000000  0.4881290000000  0.5441400000000 1.0
C      1  0.5157990000000  0.5340840000000  0.4329320000000 1.0
C      1  0.4768210000000  0.5093050000000  0.4285620000000 1.0
C      1  0.5196750000000  0.4587740000000  0.5515630000000 1.0
C      1  0.4667640000000  0.4782370000000  0.5525790000000 1.0
C      1  0.4699610000000  0.5564820000000  0.5352990000000 1.0
C      1  0.4893280000000  0.4230590000000  0.4940430000000 1.0
C      1  0.4956760000000  0.5495510000000  0.5445590000000 1.0
C      1  0.5290640000000  0.4600920000000  0.4534400000000 1.0
C      1  0.4393500000000  0.4901440000000  0.4671670000000 1.0
C      1  0.5470020000000  0.5067160000000  0.4489460000000 1.0
C      1  0.5423020000000  0.5463720000000  0.5193650000000 1.0
C      1  0.5685560000000  0.5054170000000  0.5364870000000 1.0
C      1  0.5128480000000  0.5513310000000  0.5197140000000 1.0
C      1  0.4713460000000  0.5638600000000  0.5079830000000 1.0
C      1  0.4461680000000  0.4411850000000  0.4887340000000 1.0
C      1  0.4887600000000  0.4386570000000  0.4693880000000 1.0
C      1  0.4572920000000  0.4466340000000  0.5147490000000 1.0
C      1  0.4575120000000  0.5366880000000  0.4662400000000 1.0
C      1  0.4844230000000  0.4340990000000  0.5178610000000 1.0
C      1  0.5060640000000  0.5079830000000  0.4264220000000 1.0
C      1  0.5219050000000  0.5029940000000  0.5321960000000 1.0
C      1  0.4836680000000  0.4804290000000  0.5275500000000 1.0
C      1  0.5531440000000  0.5430420000000  0.4933980000000 1.0
C      1  0.5098420000000  0.5087090000000  0.4885620000000 1.0
C      1  0.4445460000000  0.5174750000000  0.5031350000000 1.0
C      1  0.5162850000000  0.4645560000000  0.5009810000000 1.0
C      1  0.5540570000000  0.5305830000000  0.5409570000000 1.0
C      1  0.5099110000000  0.5607100000000  0.4721270000000 1.0
C      1  0.5709510000000  0.5206540000000  0.4897620000000 1.0
C      1  0.5549890000000  0.4826580000000  0.4916810000000 1.0
C      1  0.4377910000000  0.5176020000000  0.4719600000000 1.0
C      1  0.4944910000000  0.5248410000000  0.5061970000000 1.0
C      1  0.5371950000000  0.5506200000000  0.4707050000000 1.0
C      1  0.5581840000000  0.4852280000000  0.5549990000000 1.0
C      1  0.5278290000000  0.4924630000000  0.5051720000000 1.0
C      1  0.4838020000000  0.5214710000000  0.5549360000000 1.0
C      1  0.5340870000000  0.5196280000000  0.5578160000000 1.0
C      1  0.4413970000000  0.5149440000000  0.5320300000000 1.0
C      1  0.4594410000000  0.4882560000000  0.4308180000000 1.0
C      1  0.4689430000000  0.4728390000000  0.5029040000000 1.0
C      1  0.5118090000000  0.4391890000000  0.4516870000000 1.0
C      1  0.4665410000000  0.5379210000000  0.4948520000000 1.0
C      1  0.5729300000000  0.4996870000000  0.5101030000000 1.0
C      1  0.4864450000000  0.4937480000000  0.5691310000000 1.0
C      1  0.5228220000000  0.4892760000000  0.4448090000000 1.0
C      1  0.4939960000000  0.5077070000000  0.5299980000000 1.0
C      1  0.4989500000000  0.4925910000000  0.4689400000000 1.0
C      1  0.5117210000000  0.4812110000000  0.5701580000000 1.0
C      1  0.5031540000000  0.4557420000000  0.5274030000000 1.0
C      1  0.5385650000000  0.4600280000000  0.4820550000000 1.0
C      1  0.4505630000000  0.4704060000000  0.4497470000000 1.0
C      1  0.4578380000000  0.5329290000000  0.5463920000000 1.0
C      1  0.5366730000000  0.4961230000000  0.5724250000000 1.0
C      1  0.5464430000000  0.4632700000000  0.5452010000000 1.0
C      1  0.4457350000000  0.4893170000000  0.4948870000000 1.0
C      1  0.4974070000000  0.5503120000000  0.4474550000000 1.0
C      1  0.4909410000000  0.4678710000000  0.4835820000000 1.0
END
