TITL C-46952-1641-8 0.0474732977232637 125000 -517.36933499802 0 0 75 (C1) n - 1
REM
REM in /rds/project/t2_vol4/rds-t2-cs072/BORA/CARBON/from-Arr/AIRSS/Generating-Clusters/GAP-ML-2020/Only-C1/SD-CG/HFTN-CG
REM
REM
REM
REM
REM
REM ./C.cell (11c1c37f851c82e70ff6c80c92926a4b)
REM AIRSS Version 0.9.1 bugfix July 2018 build 013d7b7c2542+ Fri, 06 Jul 2018 19:26:36 +0100
REM compiler GCC version 9.3.0
REM options -cpp -mtune=generic -march=x86-64 -g -O0
REM seed -1332071537 1944552978 -1771157212 -2134832377 -543096788 -1223458405 -614585315 -680209523 -860470495 -1617459666 -278459826 -69702474 -1445715225 -1532321082 2106193 -784691021 -2004290620 1847845506 1688766958 1685218629 1347237148 -1629644690 -783371456 -30024760 -1821357317 917853507 -1297361050 726259825 -157345801 564268419 869804244 1621665771 -1978136400
REM
CELL 1.54180   50.00000   50.00000   50.00000   90.00000   90.00000   90.00000
LATT -1
SFAC C  
C      1  0.4876920000000  0.5123200000000  0.5766120000000 1.0
C      1  0.5300590000000  0.5005150000000  0.5522230000000 1.0
C      1  0.4615720000000  0.4365500000000  0.4961620000000 1.0
C      1  0.4864200000000  0.4938500000000  0.5130250000000 1.0
C      1  0.5412000000000  0.5689260000000  0.5270910000000 1.0
C      1  0.4472970000000  0.5029860000000  0.4318820000000 1.0
C      1  0.5730000000000  0.5062040000000  0.5021600000000 1.0
C      1  0.5348100000000  0.4356380000000  0.5344380000000 1.0
C      1  0.4985570000000  0.5509480000000  0.4730180000000 1.0
C      1  0.4585150000000  0.5178560000000  0.5731110000000 1.0
C      1  0.5445230000000  0.5619350000000  0.4821800000000 1.0
C      1  0.4687900000000  0.5751980000000  0.5326820000000 1.0
C      1  0.4380930000000  0.5326070000000  0.5323380000000 1.0
C      1  0.5074680000000  0.4718410000000  0.5153310000000 1.0
C      1  0.4837020000000  0.4467940000000  0.4549030000000 1.0
C      1  0.5169880000000  0.5797300000000  0.5156800000000 1.0
C      1  0.5348240000000  0.5521250000000  0.5492730000000 1.0
C      1  0.4866620000000  0.4305400000000  0.5368890000000 1.0
C      1  0.4420000000000  0.4493590000000  0.5124270000000 1.0
C      1  0.4388060000000  0.5110980000000  0.5533150000000 1.0
C      1  0.5056990000000  0.4914830000000  0.5672410000000 1.0
C      1  0.5108600000000  0.4405410000000  0.5499740000000 1.0
C      1  0.5336640000000  0.4826920000000  0.5291880000000 1.0
C      1  0.4286730000000  0.4694610000000  0.4962060000000 1.0
C      1  0.4433720000000  0.4977420000000  0.4593000000000 1.0
C      1  0.5172190000000  0.5723840000000  0.4876060000000 1.0
C      1  0.5449770000000  0.5254130000000  0.5449720000000 1.0
C      1  0.5223420000000  0.4577580000000  0.4427760000000 1.0
C      1  0.5096390000000  0.5321280000000  0.4972650000000 1.0
C      1  0.4974990000000  0.5202310000000  0.5184340000000 1.0
C      1  0.5250570000000  0.5107740000000  0.4882530000000 1.0
C      1  0.5086040000000  0.5588700000000  0.5578580000000 1.0
C      1  0.4235160000000  0.4923760000000  0.5119280000000 1.0
C      1  0.4613190000000  0.5497660000000  0.4397310000000 1.0
C      1  0.4415750000000  0.5164150000000  0.5066320000000 1.0
C      1  0.4596270000000  0.4483690000000  0.4696440000000 1.0
C      1  0.5180190000000  0.4658170000000  0.4874130000000 1.0
C      1  0.5566980000000  0.5545210000000  0.5078780000000 1.0
C      1  0.4362670000000  0.4858240000000  0.5386600000000 1.0
C      1  0.4662370000000  0.5258510000000  0.4277150000000 1.0
C      1  0.5710640000000  0.5050740000000  0.4702060000000 1.0
C      1  0.5307080000000  0.4210170000000  0.5111440000000 1.0
C      1  0.4639260000000  0.5457370000000  0.5681350000000 1.0
C      1  0.4602330000000  0.5001790000000  0.5237320000000 1.0
C      1  0.4920920000000  0.5415720000000  0.5728650000000 1.0
C      1  0.5428180000000  0.4777230000000  0.4420020000000 1.0
C      1  0.5695360000000  0.4607670000000  0.5093390000000 1.0
C      1  0.5600810000000  0.4790960000000  0.4641840000000 1.0
C      1  0.4553010000000  0.4825320000000  0.4140190000000 1.0
C      1  0.5509590000000  0.4578680000000  0.5306300000000 1.0
C      1  0.4459950000000  0.4581440000000  0.5399080000000 1.0
C      1  0.5401540000000  0.5063480000000  0.4348420000000 1.0
C      1  0.4403550000000  0.4708880000000  0.4705210000000 1.0
C      1  0.4574040000000  0.5171550000000  0.4790190000000 1.0
C      1  0.5866810000000  0.4821850000000  0.5100630000000 1.0
C      1  0.4692930000000  0.5445640000000  0.4661500000000 1.0
C      1  0.5103850000000  0.4432270000000  0.4689980000000 1.0
C      1  0.4910940000000  0.5124280000000  0.4210860000000 1.0
C      1  0.4955300000000  0.4611820000000  0.4329800000000 1.0
C      1  0.5444710000000  0.5468160000000  0.4583580000000 1.0
C      1  0.4710140000000  0.4503030000000  0.5511600000000 1.0
C      1  0.4849220000000  0.4257640000000  0.5084730000000 1.0
C      1  0.5582990000000  0.5222750000000  0.4515740000000 1.0
C      1  0.5481770000000  0.4699020000000  0.4886490000000 1.0
C      1  0.5173210000000  0.5438950000000  0.4496500000000 1.0
C      1  0.5079980000000  0.4920030000000  0.4756470000000 1.0
C      1  0.4532010000000  0.5547370000000  0.5427980000000 1.0
C      1  0.5158600000000  0.5218390000000  0.4311590000000 1.0
C      1  0.4834220000000  0.4831480000000  0.4182330000000 1.0
C      1  0.4961440000000  0.5762900000000  0.5360320000000 1.0
C      1  0.5101700000000  0.4253820000000  0.4937700000000 1.0
C      1  0.5616690000000  0.5282900000000  0.5197260000000 1.0
C      1  0.5441180000000  0.4964810000000  0.5046190000000 1.0
C      1  0.4965360000000  0.4631360000000  0.5620190000000 1.0
C      1  0.4812250000000  0.4966130000000  0.4848980000000 1.0
END
