TITL C-46955-1491-8 -0.0523589208205 125000 -356.817120305944 0 0 52 (C1) n - 1
REM
REM in /rds/project/t2_vol4/rds-t2-cs072/BORA/CARBON/from-Arr/AIRSS/Generating-Clusters/GAP-ML-2020/Only-C1/SD-CG/HFTN-CG
REM
REM
REM
REM
REM
REM ./C.cell (11c1c37f851c82e70ff6c80c92926a4b)
REM AIRSS Version 0.9.1 bugfix July 2018 build 013d7b7c2542+ Fri, 06 Jul 2018 19:26:36 +0100
REM compiler GCC version 9.3.0
REM options -cpp -mtune=generic -march=x86-64 -g -O0
REM seed -74396148 -1279997860 -968128763 1591575505 1948677913 -257027476 1913913564 1170010015 1544578786 -1859640168 388349965 891816811 -898092038 496295690 1924728608 -1933076705 -371241323 -155693801 -1470727412 -501439011 -1248624887 1725895313 -871090505 -57083659 501299863 1474036942 -1602484856 299414277 2092481547 -1229041168 320377380 1041216267 -482939124
REM
CELL 1.54180   50.00000   50.00000   50.00000   90.00000   90.00000   90.00000
LATT -1
SFAC C  
C      1  0.5065570000000  0.5433370000000  0.5527480000000 1.0
C      1  0.4923630000000  0.4324780000000  0.5091260000000 1.0
C      1  0.5190150000000  0.4443960000000  0.4804290000000 1.0
C      1  0.5239430000000  0.4826990000000  0.4295090000000 1.0
C      1  0.5114520000000  0.4498600000000  0.5479490000000 1.0
C      1  0.4739390000000  0.4773340000000  0.4488050000000 1.0
C      1  0.5694400000000  0.4681930000000  0.4374180000000 1.0
C      1  0.5051610000000  0.5308320000000  0.4463110000000 1.0
C      1  0.5337210000000  0.5500080000000  0.5103020000000 1.0
C      1  0.5218550000000  0.4354970000000  0.5069980000000 1.0
C      1  0.4480270000000  0.5024930000000  0.4767670000000 1.0
C      1  0.4704100000000  0.5190400000000  0.4899870000000 1.0
C      1  0.5003000000000  0.4738260000000  0.4426800000000 1.0
C      1  0.4638890000000  0.5032320000000  0.4515860000000 1.0
C      1  0.4872570000000  0.5580490000000  0.4934910000000 1.0
C      1  0.4536960000000  0.4804430000000  0.5209060000000 1.0
C      1  0.4866850000000  0.5619760000000  0.5441220000000 1.0
C      1  0.5345310000000  0.4692060000000  0.4746330000000 1.0
C      1  0.4510980000000  0.4769470000000  0.4920660000000 1.0
C      1  0.4317370000000  0.5394380000000  0.5021300000000 1.0
C      1  0.5451420000000  0.4693520000000  0.4456480000000 1.0
C      1  0.4569720000000  0.5302940000000  0.5170810000000 1.0
C      1  0.4404530000000  0.5487710000000  0.4769540000000 1.0
C      1  0.4880620000000  0.4430940000000  0.4827860000000 1.0
C      1  0.4693840000000  0.5449080000000  0.4738070000000 1.0
C      1  0.5309420000000  0.5441940000000  0.5386600000000 1.0
C      1  0.4743500000000  0.5045710000000  0.5568190000000 1.0
C      1  0.5225670000000  0.5072770000000  0.4464020000000 1.0
C      1  0.4779820000000  0.5292840000000  0.4500700000000 1.0
C      1  0.5472590000000  0.4748280000000  0.5238580000000 1.0
C      1  0.5433730000000  0.4957420000000  0.5444650000000 1.0
C      1  0.5153660000000  0.5554530000000  0.4895370000000 1.0
C      1  0.4569430000000  0.5070580000000  0.5338390000000 1.0
C      1  0.5203990000000  0.4955480000000  0.5624160000000 1.0
C      1  0.5489720000000  0.5214930000000  0.5360990000000 1.0
C      1  0.4764730000000  0.5538690000000  0.5202430000000 1.0
C      1  0.5323830000000  0.4506640000000  0.5284650000000 1.0
C      1  0.4775020000000  0.4770280000000  0.5615340000000 1.0
C      1  0.5235210000000  0.5427890000000  0.4655830000000 1.0
C      1  0.5003540000000  0.5168790000000  0.5617310000000 1.0
C      1  0.4272600000000  0.5234500000000  0.4792220000000 1.0
C      1  0.4862070000000  0.4418750000000  0.5344530000000 1.0
C      1  0.5027270000000  0.4949580000000  0.5157600000000 1.0
C      1  0.5536130000000  0.5284090000000  0.5084730000000 1.0
C      1  0.5120660000000  0.4886380000000  0.4686600000000 1.0
C      1  0.5420700000000  0.5200340000000  0.4647540000000 1.0
C      1  0.5536300000000  0.5095370000000  0.4882040000000 1.0
C      1  0.4680950000000  0.4614920000000  0.4743080000000 1.0
C      1  0.5509930000000  0.4819270000000  0.4962000000000 1.0
C      1  0.4980020000000  0.5036900000000  0.4917240000000 1.0
C      1  0.5055290000000  0.4715690000000  0.5644480000000 1.0
C      1  0.4663330000000  0.4620390000000  0.5398350000000 1.0
END
