TITL C-46975-1576-1 -0.0754523231394773 125000 -225.393823888665 0 0 34 (C1) n - 1
REM
REM in /rds/project/t2_vol4/rds-t2-cs072/BORA/CARBON/from-Arr/AIRSS/Generating-Clusters/GAP-ML-2020/Only-C1/SD-CG/HFTN-CG
REM
REM
REM
REM
REM
REM ./C.cell (11c1c37f851c82e70ff6c80c92926a4b)
REM AIRSS Version 0.9.1 bugfix July 2018 build 013d7b7c2542+ Fri, 06 Jul 2018 19:26:36 +0100
REM compiler GCC version 9.3.0
REM options -cpp -mtune=generic -march=x86-64 -g -O0
REM seed -676961064 1381164544 1727681107 1792270540 1036591493 2065326279 1505200017 -2146390221 263965770 324819011 1231028819 2122519937 68755030 -2036253038 1197572266 -1594135178 845436782 1973517853 -1692198773 1302774093 -356452683 -805853369 -1607388265 -264034884 -1368612305 -1133171480 -1951378494 1654453892 852201558 -413941013 693642087 991916852 -1762359157
REM
CELL 1.54180   50.00000   50.00000   50.00000   90.00000   90.00000   90.00000
LATT -1
SFAC C  
C      1  0.5411970000000  0.4894100000000  0.5343830000000 1.0
C      1  0.4394710000000  0.4874570000000  0.4707490000000 1.0
C      1  0.4890200000000  0.5345320000000  0.5399280000000 1.0
C      1  0.4613550000000  0.4732700000000  0.4651560000000 1.0
C      1  0.5280150000000  0.4652270000000  0.5328390000000 1.0
C      1  0.4844750000000  0.5188180000000  0.4815080000000 1.0
C      1  0.5054700000000  0.4711460000000  0.5104140000000 1.0
C      1  0.5230310000000  0.4898820000000  0.4265770000000 1.0
C      1  0.5289870000000  0.5118000000000  0.5478370000000 1.0
C      1  0.5124960000000  0.5128010000000  0.4712400000000 1.0
C      1  0.4728510000000  0.4731520000000  0.5482790000000 1.0
C      1  0.5207230000000  0.4635390000000  0.4283840000000 1.0
C      1  0.5337440000000  0.5358000000000  0.5319610000000 1.0
C      1  0.5198930000000  0.4459580000000  0.4995390000000 1.0
C      1  0.5231960000000  0.4877040000000  0.4884820000000 1.0
C      1  0.5430100000000  0.5273090000000  0.5065960000000 1.0
C      1  0.4859860000000  0.4912590000000  0.5610570000000 1.0
C      1  0.5171850000000  0.5084650000000  0.4431350000000 1.0
C      1  0.5091320000000  0.5509770000000  0.5277860000000 1.0
C      1  0.4834960000000  0.4611320000000  0.4604790000000 1.0
C      1  0.4560230000000  0.5454890000000  0.5037000000000 1.0
C      1  0.5441810000000  0.4982160000000  0.5064510000000 1.0
C      1  0.4425320000000  0.5066160000000  0.4898770000000 1.0
C      1  0.5273690000000  0.4604940000000  0.4757930000000 1.0
C      1  0.4346680000000  0.5327530000000  0.4914210000000 1.0
C      1  0.5010770000000  0.5134390000000  0.5560490000000 1.0
C      1  0.5250730000000  0.5368000000000  0.4869530000000 1.0
C      1  0.4701560000000  0.5034900000000  0.5070620000000 1.0
C      1  0.4794140000000  0.5466980000000  0.4881500000000 1.0
C      1  0.4800550000000  0.4789390000000  0.5201280000000 1.0
C      1  0.5094830000000  0.4552420000000  0.4534220000000 1.0
C      1  0.5050930000000  0.5537500000000  0.4987780000000 1.0
C      1  0.5353910000000  0.4407850000000  0.5219850000000 1.0
C      1  0.4667550000000  0.5276480000000  0.5239040000000 1.0
END
