TITL C-46974-1548-6 28.7978256974075 125000 -403.549195424054 0 0 61 (C1) n - 1
REM
REM in /rds/project/t2_vol4/rds-t2-cs072/BORA/CARBON/from-Arr/AIRSS/Generating-Clusters/GAP-ML-2020/Only-C1/SD-CG/HFTN-CG
REM
REM
REM
REM
REM
REM ./C.cell (11c1c37f851c82e70ff6c80c92926a4b)
REM AIRSS Version 0.9.1 bugfix July 2018 build 013d7b7c2542+ Fri, 06 Jul 2018 19:26:36 +0100
REM compiler GCC version 9.3.0
REM options -cpp -mtune=generic -march=x86-64 -g -O0
REM seed -145360748 1832045987 1548516489 728201657 -12533839 1350123426 -1156326740 -1093730431 2103448018 -1793487012 274630285 -1242663509 1514361063 -1547175484 1789357523 -1933411685 1612482390 708318155 634801249 -419513161 -959317739 1554064887 91073647 314373426 -1466115297 -1660755998 -1065181029 1208764134 1487162032 1141021661 1609707954 -651803550 1902072148
REM
CELL 1.54180   50.00000   50.00000   50.00000   90.00000   90.00000   90.00000
LATT -1
SFAC C  
C      1  0.4825100000000  0.4315490000000  0.4797080000000 1.0
C      1  0.5446760000000  0.5060660000000  0.5279400000000 1.0
C      1  0.5267100000000  0.5323650000000  0.4430140000000 1.0
C      1  0.4381890000000  0.4990880000000  0.5106830000000 1.0
C      1  0.4684870000000  0.5506250000000  0.5500430000000 1.0
C      1  0.5191960000000  0.4546560000000  0.4583040000000 1.0
C      1  0.5231820000000  0.5270840000000  0.5314700000000 1.0
C      1  0.5276100000000  0.5417960000000  0.4692980000000 1.0
C      1  0.4941810000000  0.4537610000000  0.4365290000000 1.0
C      1  0.4587160000000  0.4984770000000  0.4698080000000 1.0
C      1  0.4985650000000  0.5668370000000  0.5110480000000 1.0
C      1  0.5470370000000  0.4580990000000  0.4547960000000 1.0
C      1  0.5115920000000  0.4364790000000  0.4807260000000 1.0
C      1  0.4817730000000  0.4772820000000  0.4703100000000 1.0
C      1  0.5309880000000  0.4858290000000  0.5096280000000 1.0
C      1  0.5034700000000  0.5482300000000  0.4868040000000 1.0
C      1  0.4784180000000  0.5180610000000  0.5141350000000 1.0
C      1  0.5219440000000  0.5025370000000  0.4882890000000 1.0
C      1  0.5201300000000  0.5772390000000  0.5245600000000 1.0
C      1  0.4847500000000  0.4759620000000  0.4232950000000 1.0
C      1  0.4629850000000  0.5421460000000  0.4542900000000 1.0
C      1  0.5198460000000  0.4646770000000  0.5604920000000 1.0
C      1  0.5252940000000  0.4939090000000  0.4363930000000 1.0
C      1  0.4255120000000  0.5212410000000  0.5535090000000 1.0
C      1  0.4758870000000  0.4489690000000  0.4578110000000 1.0
C      1  0.5480160000000  0.4487630000000  0.5197790000000 1.0
C      1  0.4427120000000  0.5401890000000  0.5505950000000 1.0
C      1  0.4642370000000  0.5158690000000  0.4464380000000 1.0
C      1  0.4325020000000  0.5067860000000  0.4821840000000 1.0
C      1  0.4665500000000  0.4950020000000  0.5011070000000 1.0
C      1  0.5534800000000  0.4684640000000  0.5000220000000 1.0
C      1  0.5596020000000  0.5027250000000  0.4655060000000 1.0
C      1  0.5498880000000  0.4891700000000  0.5512260000000 1.0
C      1  0.4694240000000  0.4604870000000  0.5451050000000 1.0
C      1  0.5597610000000  0.4738580000000  0.4728190000000 1.0
C      1  0.4581540000000  0.4417030000000  0.5265810000000 1.0
C      1  0.5089210000000  0.5163280000000  0.5557240000000 1.0
C      1  0.4352870000000  0.5282440000000  0.4984740000000 1.0
C      1  0.5059330000000  0.5238410000000  0.5050050000000 1.0
C      1  0.4740440000000  0.5588720000000  0.5220790000000 1.0
C      1  0.4821390000000  0.4706020000000  0.4996620000000 1.0
C      1  0.5243280000000  0.4933840000000  0.5657330000000 1.0
C      1  0.5113510000000  0.4852000000000  0.4640710000000 1.0
C      1  0.4846250000000  0.5300160000000  0.5613900000000 1.0
C      1  0.5373420000000  0.5562570000000  0.5293500000000 1.0
C      1  0.5466340000000  0.5206480000000  0.4836200000000 1.0
C      1  0.4684780000000  0.4422070000000  0.5024130000000 1.0
C      1  0.4612690000000  0.5415310000000  0.5022350000000 1.0
C      1  0.5081080000000  0.5160320000000  0.4272230000000 1.0
C      1  0.5072770000000  0.4664310000000  0.5159730000000 1.0
C      1  0.4788810000000  0.5085940000000  0.5433480000000 1.0
C      1  0.4748430000000  0.5484490000000  0.4778690000000 1.0
C      1  0.4359820000000  0.4990670000000  0.5384340000000 1.0
C      1  0.4985410000000  0.4610410000000  0.5430480000000 1.0
C      1  0.5471890000000  0.5103670000000  0.4416460000000 1.0
C      1  0.4599970000000  0.4866710000000  0.5485680000000 1.0
C      1  0.5222880000000  0.4424630000000  0.5061200000000 1.0
C      1  0.5631700000000  0.5491780000000  0.5215760000000 1.0
C      1  0.5449150000000  0.4608500000000  0.5455120000000 1.0
C      1  0.4823370000000  0.5038450000000  0.4265770000000 1.0
C      1  0.5601480000000  0.5239000000000  0.5101010000000 1.0
END
