TITL C-46961-1561-3 -0.0938411771486831 125000 -309.413829822102 0 0 47 (C1) n - 1
REM
REM in /rds/project/t2_vol4/rds-t2-cs072/BORA/CARBON/from-Arr/AIRSS/Generating-Clusters/GAP-ML-2020/Only-C1/SD-CG/HFTN-CG
REM
REM
REM
REM
REM
REM ./C.cell (11c1c37f851c82e70ff6c80c92926a4b)
REM AIRSS Version 0.9.1 bugfix July 2018 build 013d7b7c2542+ Fri, 06 Jul 2018 19:26:36 +0100
REM compiler GCC version 9.3.0
REM options -cpp -mtune=generic -march=x86-64 -g -O0
REM seed -1587879491 1983460904 454919998 1476464741 -32099237 -291162765 1689341013 -547606241 -1016461635 -1663879070 929736293 836785899 -1281995464 -1504045679 -413009563 1998405630 1390082284 -1480270113 1320065918 -1983082031 1097062573 -1822884487 -1299063294 1175261622 1008836198 -1512142231 275040483 2042239785 -840812506 1257792879 295311439 1187017386 -2018808270
REM
CELL 1.54180   50.00000   50.00000   50.00000   90.00000   90.00000   90.00000
LATT -1
SFAC C  
C      1  0.5432970000000  0.5037060000000  0.5594250000000 1.0
C      1  0.5256530000000  0.4588020000000  0.5434590000000 1.0
C      1  0.4939800000000  0.4530510000000  0.5093710000000 1.0
C      1  0.4843170000000  0.4595070000000  0.4569070000000 1.0
C      1  0.5498820000000  0.4657870000000  0.4766340000000 1.0
C      1  0.5466710000000  0.5069350000000  0.5081030000000 1.0
C      1  0.4773100000000  0.4529800000000  0.5519500000000 1.0
C      1  0.4963640000000  0.5137330000000  0.4888620000000 1.0
C      1  0.4659000000000  0.5055850000000  0.4969880000000 1.0
C      1  0.5185570000000  0.5176190000000  0.5574870000000 1.0
C      1  0.4718500000000  0.5484260000000  0.4641010000000 1.0
C      1  0.4685680000000  0.4478500000000  0.5259890000000 1.0
C      1  0.4519690000000  0.4710810000000  0.5168080000000 1.0
C      1  0.5200640000000  0.4884810000000  0.4510740000000 1.0
C      1  0.5470810000000  0.4850360000000  0.4548550000000 1.0
C      1  0.4982410000000  0.5547020000000  0.5293610000000 1.0
C      1  0.4939730000000  0.4797850000000  0.5244810000000 1.0
C      1  0.5641500000000  0.5198660000000  0.4868160000000 1.0
C      1  0.4955980000000  0.5022220000000  0.5600410000000 1.0
C      1  0.4521650000000  0.4793370000000  0.4889810000000 1.0
C      1  0.5567260000000  0.4989970000000  0.5354720000000 1.0
C      1  0.4798730000000  0.5067300000000  0.4447940000000 1.0
C      1  0.5178640000000  0.5361240000000  0.5356700000000 1.0
C      1  0.4601470000000  0.5475840000000  0.5085620000000 1.0
C      1  0.5030240000000  0.5622560000000  0.5001740000000 1.0
C      1  0.4905620000000  0.5277360000000  0.4610940000000 1.0
C      1  0.4417720000000  0.4832440000000  0.4617280000000 1.0
C      1  0.4574340000000  0.4609660000000  0.4639320000000 1.0
C      1  0.4467050000000  0.5279040000000  0.4929610000000 1.0
C      1  0.4988120000000  0.4719260000000  0.5521000000000 1.0
C      1  0.5554660000000  0.5127500000000  0.4622610000000 1.0
C      1  0.4732580000000  0.5417340000000  0.5334920000000 1.0
C      1  0.5459900000000  0.4770440000000  0.5496530000000 1.0
C      1  0.4480310000000  0.5325330000000  0.4647910000000 1.0
C      1  0.5217640000000  0.5243420000000  0.5083280000000 1.0
C      1  0.4520030000000  0.5075510000000  0.4501220000000 1.0
C      1  0.4680980000000  0.4953340000000  0.5244760000000 1.0
C      1  0.5260390000000  0.5479810000000  0.4904260000000 1.0
C      1  0.4949920000000  0.4828540000000  0.4412660000000 1.0
C      1  0.5214630000000  0.4461780000000  0.5172980000000 1.0
C      1  0.5360250000000  0.4846250000000  0.4940590000000 1.0
C      1  0.4775350000000  0.5605500000000  0.4893170000000 1.0
C      1  0.5016780000000  0.4579740000000  0.4807600000000 1.0
C      1  0.5452560000000  0.5384650000000  0.4719770000000 1.0
C      1  0.4734780000000  0.5142910000000  0.5451630000000 1.0
C      1  0.5105120000000  0.4892160000000  0.4799990000000 1.0
C      1  0.5299020000000  0.4486220000000  0.4884320000000 1.0
END
