TITL C-46976-1746-4 0.0372046867509809 125000 -717.534448135838 0 0 104 (C1) n - 1
REM
REM in /rds/project/t2_vol4/rds-t2-cs072/BORA/CARBON/from-Arr/AIRSS/Generating-Clusters/GAP-ML-2020/Only-C1/SD-CG/HFTN-CG
REM
REM
REM
REM
REM
REM ./C.cell (11c1c37f851c82e70ff6c80c92926a4b)
REM AIRSS Version 0.9.1 bugfix July 2018 build 013d7b7c2542+ Fri, 06 Jul 2018 19:26:36 +0100
REM compiler GCC version 9.3.0
REM options -cpp -mtune=generic -march=x86-64 -g -O0
REM seed 1008661975 -1521890434 981656494 271316556 2145780292 -218042383 1088351510 -1253496153 427756813 588693124 1798487040 -78171406 -163112387 -504340484 -15604253 -1925265059 -1230679141 -1188207355 1490342596 -131936166 -450007997 537678196 1608681253 -618564197 -743805990 -43567481 -739565064 1746362422 -1382473913 1986734772 216007838 -676117158 -432406249
REM
CELL 1.54180   50.00000   50.00000   50.00000   90.00000   90.00000   90.00000
LATT -1
SFAC C  
C      1  0.4182010000000  0.5118880000000  0.5352830000000 1.0
C      1  0.5531430000000  0.4610910000000  0.4611290000000 1.0
C      1  0.4515430000000  0.5045410000000  0.4187370000000 1.0
C      1  0.5175670000000  0.5126870000000  0.5392200000000 1.0
C      1  0.5131290000000  0.4985170000000  0.4705150000000 1.0
C      1  0.4295120000000  0.4747410000000  0.4504050000000 1.0
C      1  0.5576780000000  0.5606520000000  0.4723970000000 1.0
C      1  0.4972650000000  0.4749730000000  0.4776090000000 1.0
C      1  0.5108720000000  0.5194960000000  0.4489370000000 1.0
C      1  0.4219920000000  0.4850380000000  0.5425840000000 1.0
C      1  0.4459260000000  0.4587320000000  0.4689900000000 1.0
C      1  0.4720710000000  0.4363280000000  0.5345080000000 1.0
C      1  0.4713860000000  0.4836930000000  0.4684360000000 1.0
C      1  0.4729220000000  0.5289490000000  0.5150060000000 1.0
C      1  0.5050400000000  0.4843180000000  0.5774060000000 1.0
C      1  0.5571980000000  0.5658050000000  0.5181410000000 1.0
C      1  0.5794520000000  0.5462910000000  0.4824180000000 1.0
C      1  0.4419600000000  0.4492760000000  0.4971520000000 1.0
C      1  0.5463620000000  0.5001580000000  0.4316100000000 1.0
C      1  0.4806610000000  0.5642480000000  0.5432620000000 1.0
C      1  0.5201500000000  0.4899220000000  0.5187560000000 1.0
C      1  0.5169160000000  0.5108270000000  0.4948480000000 1.0
C      1  0.5164660000000  0.5709060000000  0.4742730000000 1.0
C      1  0.4774400000000  0.5122440000000  0.4092410000000 1.0
C      1  0.5514600000000  0.5091880000000  0.5678640000000 1.0
C      1  0.4340990000000  0.4834920000000  0.5678410000000 1.0
C      1  0.4975770000000  0.4723920000000  0.5267000000000 1.0
C      1  0.4193090000000  0.5194330000000  0.5066530000000 1.0
C      1  0.5698130000000  0.5018380000000  0.4908640000000 1.0
C      1  0.4544310000000  0.4627600000000  0.5690560000000 1.0
C      1  0.5085460000000  0.5386430000000  0.5718400000000 1.0
C      1  0.4811880000000  0.5396030000000  0.5603190000000 1.0
C      1  0.5597670000000  0.4831250000000  0.5626410000000 1.0
C      1  0.4622360000000  0.5608530000000  0.5208510000000 1.0
C      1  0.4678940000000  0.5718690000000  0.4937370000000 1.0
C      1  0.4524250000000  0.5027920000000  0.5777220000000 1.0
C      1  0.5384830000000  0.5294900000000  0.5287980000000 1.0
C      1  0.5475080000000  0.5543290000000  0.5442010000000 1.0
C      1  0.4065830000000  0.5121020000000  0.4814960000000 1.0
C      1  0.4749230000000  0.5710900000000  0.4489650000000 1.0
C      1  0.5231920000000  0.5593740000000  0.5585310000000 1.0
C      1  0.5145010000000  0.5801130000000  0.5128510000000 1.0
C      1  0.5398140000000  0.4159690000000  0.4873420000000 1.0
C      1  0.4511780000000  0.5307250000000  0.4318210000000 1.0
C      1  0.5567270000000  0.4244300000000  0.5280080000000 1.0
C      1  0.4686860000000  0.4383330000000  0.5044490000000 1.0
C      1  0.4193110000000  0.5241850000000  0.4597220000000 1.0
C      1  0.4872690000000  0.4290310000000  0.4592970000000 1.0
C      1  0.4994700000000  0.4949930000000  0.4114710000000 1.0
C      1  0.5359920000000  0.4116640000000  0.5416830000000 1.0
C      1  0.5592050000000  0.5207760000000  0.4470630000000 1.0
C      1  0.4680760000000  0.4598360000000  0.4266060000000 1.0
C      1  0.5601850000000  0.4099190000000  0.5038510000000 1.0
C      1  0.4872180000000  0.5180530000000  0.5381420000000 1.0
C      1  0.4650550000000  0.4434240000000  0.4498110000000 1.0
C      1  0.5870610000000  0.5025680000000  0.5152900000000 1.0
C      1  0.5589800000000  0.4757940000000  0.4850840000000 1.0
C      1  0.5787720000000  0.5489690000000  0.5103950000000 1.0
C      1  0.5179600000000  0.4562440000000  0.4301100000000 1.0
C      1  0.4500720000000  0.4480390000000  0.5455690000000 1.0
C      1  0.4361990000000  0.4642370000000  0.5245100000000 1.0
C      1  0.5138860000000  0.4349410000000  0.4486230000000 1.0
C      1  0.5771230000000  0.5201690000000  0.4696610000000 1.0
C      1  0.5763540000000  0.4741330000000  0.5395960000000 1.0
C      1  0.5624380000000  0.5291610000000  0.5493530000000 1.0
C      1  0.4889230000000  0.5244150000000  0.4907800000000 1.0
C      1  0.5825610000000  0.5277570000000  0.5282700000000 1.0
C      1  0.4800460000000  0.4693270000000  0.5031020000000 1.0
C      1  0.5212270000000  0.5103990000000  0.5700480000000 1.0
C      1  0.5120020000000  0.4238780000000  0.5008820000000 1.0
C      1  0.4996540000000  0.4449160000000  0.5432370000000 1.0
C      1  0.4459750000000  0.4784140000000  0.4269840000000 1.0
C      1  0.5395160000000  0.4678270000000  0.5072870000000 1.0
C      1  0.4762770000000  0.5390970000000  0.4206810000000 1.0
C      1  0.4955120000000  0.5789540000000  0.4916190000000 1.0
C      1  0.5175250000000  0.5498030000000  0.4512660000000 1.0
C      1  0.5153690000000  0.4598740000000  0.5666890000000 1.0
C      1  0.4862170000000  0.4227800000000  0.4870860000000 1.0
C      1  0.5209580000000  0.5090280000000  0.4231440000000 1.0
C      1  0.5998650000000  0.4810490000000  0.5277860000000 1.0
C      1  0.4511060000000  0.5100160000000  0.5048060000000 1.0
C      1  0.4323070000000  0.5340250000000  0.5489230000000 1.0
C      1  0.4580720000000  0.5621610000000  0.4683900000000 1.0
C      1  0.4777020000000  0.4900980000000  0.5414840000000 1.0
C      1  0.5391670000000  0.5730020000000  0.4944380000000 1.0
C      1  0.4645190000000  0.5113290000000  0.4773690000000 1.0
C      1  0.4933220000000  0.5574970000000  0.4341710000000 1.0
C      1  0.5356190000000  0.4381080000000  0.4679220000000 1.0
C      1  0.5420630000000  0.4608300000000  0.5601180000000 1.0
C      1  0.4478980000000  0.5336980000000  0.4608670000000 1.0
C      1  0.4759120000000  0.4837230000000  0.5725160000000 1.0
C      1  0.5203100000000  0.4522820000000  0.4903590000000 1.0
C      1  0.4947620000000  0.4674880000000  0.4176250000000 1.0
C      1  0.5540160000000  0.4545390000000  0.5317200000000 1.0
C      1  0.5426430000000  0.5220080000000  0.5011790000000 1.0
C      1  0.4535230000000  0.5286700000000  0.5672640000000 1.0
C      1  0.4228070000000  0.5475330000000  0.5078300000000 1.0
C      1  0.5135900000000  0.4229280000000  0.5308380000000 1.0
C      1  0.4576950000000  0.4848610000000  0.5185990000000 1.0
C      1  0.4140000000000  0.4968550000000  0.4585890000000 1.0
C      1  0.5429060000000  0.4718100000000  0.4369930000000 1.0
C      1  0.4355450000000  0.5556130000000  0.5300770000000 1.0
C      1  0.5066040000000  0.5732630000000  0.5396510000000 1.0
C      1  0.5464730000000  0.5467440000000  0.4501600000000 1.0
END
