TITL C-46960-1720-1 -0.177000498156802 125000 -390.39351658635 0 0 58 (C1) n - 1
REM
REM in /rds/project/t2_vol4/rds-t2-cs072/BORA/CARBON/from-Arr/AIRSS/Generating-Clusters/GAP-ML-2020/Only-C1/SD-CG/HFTN-CG
REM
REM
REM
REM
REM
REM ./C.cell (11c1c37f851c82e70ff6c80c92926a4b)
REM AIRSS Version 0.9.1 bugfix July 2018 build 013d7b7c2542+ Fri, 06 Jul 2018 19:26:36 +0100
REM compiler GCC version 9.3.0
REM options -cpp -mtune=generic -march=x86-64 -g -O0
REM seed -1556475247 -126629032 1248012582 -850205070 -1727015167 -1068428639 442224366 -1567422069 -1649618839 1360440529 1384272195 2073015100 834824264 -1045399246 -2064924433 -2099380859 -234301627 1351166283 994528376 2089479629 877282701 -282874111 -206529087 527254727 1934572071 -1053298514 1303494738 -920315802 779284533 837531108 253952476 -142713617 2022106725
REM
CELL 1.54180   50.00000   50.00000   50.00000   90.00000   90.00000   90.00000
LATT -1
SFAC C  
C      1  0.5376710000000  0.5371120000000  0.5468560000000 1.0
C      1  0.4822610000000  0.4252790000000  0.5103460000000 1.0
C      1  0.4953300000000  0.5669380000000  0.4733590000000 1.0
C      1  0.4397600000000  0.5260780000000  0.4998780000000 1.0
C      1  0.4325400000000  0.4754380000000  0.4967110000000 1.0
C      1  0.4565830000000  0.5507560000000  0.4585690000000 1.0
C      1  0.5128170000000  0.5529440000000  0.5416870000000 1.0
C      1  0.5293070000000  0.5693630000000  0.5252580000000 1.0
C      1  0.4449450000000  0.4948090000000  0.5382120000000 1.0
C      1  0.5381400000000  0.4655260000000  0.5280180000000 1.0
C      1  0.4429740000000  0.5222780000000  0.5277880000000 1.0
C      1  0.5489020000000  0.5126600000000  0.5061890000000 1.0
C      1  0.5080680000000  0.4815740000000  0.5018860000000 1.0
C      1  0.4961940000000  0.4849030000000  0.5555620000000 1.0
C      1  0.5243500000000  0.4538960000000  0.5046770000000 1.0
C      1  0.5066140000000  0.5301490000000  0.5038210000000 1.0
C      1  0.5203330000000  0.5057510000000  0.5125890000000 1.0
C      1  0.4719660000000  0.4459000000000  0.5497480000000 1.0
C      1  0.5617270000000  0.4765910000000  0.4869520000000 1.0
C      1  0.4956230000000  0.4963230000000  0.4440870000000 1.0
C      1  0.4749670000000  0.4974560000000  0.5375320000000 1.0
C      1  0.4492630000000  0.4496120000000  0.5316340000000 1.0
C      1  0.4831970000000  0.5524160000000  0.4505780000000 1.0
C      1  0.4710970000000  0.4965030000000  0.4835770000000 1.0
C      1  0.4888990000000  0.5459430000000  0.5241740000000 1.0
C      1  0.4852830000000  0.4627720000000  0.5670470000000 1.0
C      1  0.4551900000000  0.4362590000000  0.5075140000000 1.0
C      1  0.4479900000000  0.4425240000000  0.4596370000000 1.0
C      1  0.4992750000000  0.4441000000000  0.4675090000000 1.0
C      1  0.5414380000000  0.5483100000000  0.4604730000000 1.0
C      1  0.5417610000000  0.4581040000000  0.4807550000000 1.0
C      1  0.5031140000000  0.4348680000000  0.4944140000000 1.0
C      1  0.5208040000000  0.4832450000000  0.4463470000000 1.0
C      1  0.5231060000000  0.5662510000000  0.4749740000000 1.0
C      1  0.5644380000000  0.5012720000000  0.5285790000000 1.0
C      1  0.4345700000000  0.4728230000000  0.5251510000000 1.0
C      1  0.4734550000000  0.4540120000000  0.4577180000000 1.0
C      1  0.5623390000000  0.5355720000000  0.4769460000000 1.0
C      1  0.4701430000000  0.5274890000000  0.5353990000000 1.0
C      1  0.4856760000000  0.4242930000000  0.5379070000000 1.0
C      1  0.5277050000000  0.5551870000000  0.5004360000000 1.0
C      1  0.5545640000000  0.5418760000000  0.5042030000000 1.0
C      1  0.4420890000000  0.5004190000000  0.4875890000000 1.0
C      1  0.5395430000000  0.5033360000000  0.4527820000000 1.0
C      1  0.5227340000000  0.4584650000000  0.4593380000000 1.0
C      1  0.4979150000000  0.5253500000000  0.4518080000000 1.0
C      1  0.4583300000000  0.5446310000000  0.4862880000000 1.0
C      1  0.5267070000000  0.5284610000000  0.4484730000000 1.0
C      1  0.4444530000000  0.4512250000000  0.4854470000000 1.0
C      1  0.5232920000000  0.4903490000000  0.5425260000000 1.0
C      1  0.5620970000000  0.4756530000000  0.5178480000000 1.0
C      1  0.5579450000000  0.5043690000000  0.4758140000000 1.0
C      1  0.4786820000000  0.5626950000000  0.4988550000000 1.0
C      1  0.4805830000000  0.4808870000000  0.5085980000000 1.0
C      1  0.4864940000000  0.5224710000000  0.4818920000000 1.0
C      1  0.5549620000000  0.5543540000000  0.5309990000000 1.0
C      1  0.5441560000000  0.5095660000000  0.5497860000000 1.0
C      1  0.4756410000000  0.4826150000000  0.4572560000000 1.0
END
