TITL C-46972-2772-4 -42.3867397786566 125000 -516.656760172912 0 0 75 (C1) n - 1
REM
REM in /rds/project/t2_vol4/rds-t2-cs072/BORA/CARBON/from-Arr/AIRSS/Generating-Clusters/GAP-ML-2020/Only-C1/SD-CG/HFTN-CG
REM
REM
REM
REM
REM
REM ./C.cell (11c1c37f851c82e70ff6c80c92926a4b)
REM AIRSS Version 0.9.1 bugfix July 2018 build 013d7b7c2542+ Fri, 06 Jul 2018 19:26:36 +0100
REM compiler GCC version 9.3.0
REM options -cpp -mtune=generic -march=x86-64 -g -O0
REM seed 297253080 1972064851 -14793463 -1825337057 2048591717 1752712299 109971401 796351696 -195683947 132974860 2103483157 -620675545 680562216 -130328061 -1936158535 -1800989501 1956220341 943157050 1149342579 946893462 -560455969 1085382448 -766668992 1691413556 -98397582 1171936301 1736386457 2023281198 1923216019 -524396260 -831413432 -419066294 60885880
REM
CELL 1.54180   50.00000   50.00000   50.00000   90.00000   90.00000   90.00000
LATT -1
SFAC C  
C      1  0.5738240000000  0.4811590000000  0.4849350000000 1.0
C      1  0.5222500000000  0.5661960000000  0.5332710000000 1.0
C      1  0.4251230000000  0.4730740000000  0.5193630000000 1.0
C      1  0.5482680000000  0.4497850000000  0.4621800000000 1.0
C      1  0.5149620000000  0.4542220000000  0.5222260000000 1.0
C      1  0.4569870000000  0.4480520000000  0.4649250000000 1.0
C      1  0.5202570000000  0.4444270000000  0.4585210000000 1.0
C      1  0.4644250000000  0.4438270000000  0.5100180000000 1.0
C      1  0.4559090000000  0.5313390000000  0.4645810000000 1.0
C      1  0.4449090000000  0.5457280000000  0.5119900000000 1.0
C      1  0.4711040000000  0.4853970000000  0.5696060000000 1.0
C      1  0.5071020000000  0.4610790000000  0.5504280000000 1.0
C      1  0.4382020000000  0.4673520000000  0.5435430000000 1.0
C      1  0.5506180000000  0.5263180000000  0.4641100000000 1.0
C      1  0.4752840000000  0.4657110000000  0.4540680000000 1.0
C      1  0.5329030000000  0.5396670000000  0.4432270000000 1.0
C      1  0.5087860000000  0.5488210000000  0.4595500000000 1.0
C      1  0.4802450000000  0.4904450000000  0.5013260000000 1.0
C      1  0.5165750000000  0.4914870000000  0.4747990000000 1.0
C      1  0.5634500000000  0.4603760000000  0.5023240000000 1.0
C      1  0.4633660000000  0.5298380000000  0.5625430000000 1.0
C      1  0.5227700000000  0.4824570000000  0.5602030000000 1.0
C      1  0.4809730000000  0.5075180000000  0.5226440000000 1.0
C      1  0.4980180000000  0.5279640000000  0.5102860000000 1.0
C      1  0.5404960000000  0.4174010000000  0.4980570000000 1.0
C      1  0.4465770000000  0.5509280000000  0.4833320000000 1.0
C      1  0.4346010000000  0.4620600000000  0.4760490000000 1.0
C      1  0.4415480000000  0.5156090000000  0.5497870000000 1.0
C      1  0.4619400000000  0.5560050000000  0.5559480000000 1.0
C      1  0.5141350000000  0.5084520000000  0.5684680000000 1.0
C      1  0.5786330000000  0.5075680000000  0.4982610000000 1.0
C      1  0.5072730000000  0.4202100000000  0.4566200000000 1.0
C      1  0.5212700000000  0.4256700000000  0.5163110000000 1.0
C      1  0.4911770000000  0.4626760000000  0.5012970000000 1.0
C      1  0.5749780000000  0.5108950000000  0.5252450000000 1.0
C      1  0.5476980000000  0.5646430000000  0.4911930000000 1.0
C      1  0.4651960000000  0.5596170000000  0.5286850000000 1.0
C      1  0.5570620000000  0.4371710000000  0.4867480000000 1.0
C      1  0.5457770000000  0.4841240000000  0.5443920000000 1.0
C      1  0.5317940000000  0.5402630000000  0.4829380000000 1.0
C      1  0.4329180000000  0.5215170000000  0.5223650000000 1.0
C      1  0.5355600000000  0.5535490000000  0.5529630000000 1.0
C      1  0.5740130000000  0.5582460000000  0.4879100000000 1.0
C      1  0.4359950000000  0.4534570000000  0.5024220000000 1.0
C      1  0.5401310000000  0.4992840000000  0.4545840000000 1.0
C      1  0.5307890000000  0.4952180000000  0.5010050000000 1.0
C      1  0.4495910000000  0.5778800000000  0.4724010000000 1.0
C      1  0.4851600000000  0.5285550000000  0.4580890000000 1.0
C      1  0.4849700000000  0.5092970000000  0.4345100000000 1.0
C      1  0.4608220000000  0.4495420000000  0.5398520000000 1.0
C      1  0.5364420000000  0.5266910000000  0.5593890000000 1.0
C      1  0.4805600000000  0.4605020000000  0.5578550000000 1.0
C      1  0.5132220000000  0.4094870000000  0.4954710000000 1.0
C      1  0.5592360000000  0.4764540000000  0.4598520000000 1.0
C      1  0.5401320000000  0.4718450000000  0.5183220000000 1.0
C      1  0.4653560000000  0.4902900000000  0.4436750000000 1.0
C      1  0.5283580000000  0.5143690000000  0.4307690000000 1.0
C      1  0.4301630000000  0.4909460000000  0.4779950000000 1.0
C      1  0.4453620000000  0.5054630000000  0.4589270000000 1.0
C      1  0.4730810000000  0.5831400000000  0.4644050000000 1.0
C      1  0.5575550000000  0.5095470000000  0.5459570000000 1.0
C      1  0.5045930000000  0.5773550000000  0.4969180000000 1.0
C      1  0.5024930000000  0.4646180000000  0.4702670000000 1.0
C      1  0.5260160000000  0.5229660000000  0.5073620000000 1.0
C      1  0.5053150000000  0.5105920000000  0.4164870000000 1.0
C      1  0.4935830000000  0.5586790000000  0.5175850000000 1.0
C      1  0.4908120000000  0.4137680000000  0.4782680000000 1.0
C      1  0.5307340000000  0.5788500000000  0.5087600000000 1.0
C      1  0.4246650000000  0.4985000000000  0.5063770000000 1.0
C      1  0.4451480000000  0.4894480000000  0.5589150000000 1.0
C      1  0.4938820000000  0.5101460000000  0.4812480000000 1.0
C      1  0.4678090000000  0.4277130000000  0.4847370000000 1.0
C      1  0.4995370000000  0.5752760000000  0.4683720000000 1.0
C      1  0.5745680000000  0.5311180000000  0.4810660000000 1.0
C      1  0.4849660000000  0.5101590000000  0.5709250000000 1.0
END
