TITL C-49632-9671-7 0.00374530221931302 125000 -117.739352658707 0 0 19 (C1) n - 1
REM
REM in /rds/project/t2_vol4/rds-t2-cs072/BORA/CARBON/from-Arr/AIRSS/Generating-Clusters/GAP-ML-2020/Only-C1/SD-CG/HFTN-CG
REM
REM
REM
REM
REM
REM ./C.cell (11c1c37f851c82e70ff6c80c92926a4b)
REM AIRSS Version 0.9.1 bugfix July 2018 build 013d7b7c2542+ Fri, 06 Jul 2018 19:26:36 +0100
REM compiler GCC version 9.3.0
REM options -cpp -mtune=generic -march=x86-64 -g -O0
REM seed -1605887728 1376771427 869735637 -1417236624 -50282843 1479921832 561536735 2039210155 2021688174 -1060150284 -1087533470 -406923844 772856464 -1862574106 -1533416724 -1974354117 2025652059 -292394318 1825499475 -479894375 1064962500 -1657811339 1390800343 -427351056 -1787504303 1073270682 192843754 1208864226 -2078163664 1493503028 1250784016 -1462759980 -888310213
REM
CELL 1.54180   50.00000   50.00000   50.00000   90.00000   90.00000   90.00000
LATT -1
SFAC C  
C      1  0.5156860000000  0.4698530000000  0.5239450000000 1.0
C      1  0.4381260000000  0.5116250000000  0.4843780000000 1.0
C      1  0.4797910000000  0.4698260000000  0.4880250000000 1.0
C      1  0.5112390000000  0.4504280000000  0.4708610000000 1.0
C      1  0.5250050000000  0.5325740000000  0.5180290000000 1.0
C      1  0.5656320000000  0.5086250000000  0.5009790000000 1.0
C      1  0.5103700000000  0.4756270000000  0.4794520000000 1.0
C      1  0.4818840000000  0.4445570000000  0.4796790000000 1.0
C      1  0.5035570000000  0.5468080000000  0.4720100000000 1.0
C      1  0.4913290000000  0.4762810000000  0.5346750000000 1.0
C      1  0.4751380000000  0.4821070000000  0.5121600000000 1.0
C      1  0.5402220000000  0.5090690000000  0.5068980000000 1.0
C      1  0.5022070000000  0.5220370000000  0.5323010000000 1.0
C      1  0.4574260000000  0.5265540000000  0.4762480000000 1.0
C      1  0.5203710000000  0.4890960000000  0.5018400000000 1.0
C      1  0.4927160000000  0.5039820000000  0.5486720000000 1.0
C      1  0.4784860000000  0.5394010000000  0.4683230000000 1.0
C      1  0.5147810000000  0.5381700000000  0.4928180000000 1.0
C      1  0.4960340000000  0.5033810000000  0.5087090000000 1.0
END
