TITL C-49635-9481-9 -103.855681182722 125000 -654.669324512853 0 0 93 (C1) n - 1
REM
REM in /rds/project/t2_vol4/rds-t2-cs072/BORA/CARBON/from-Arr/AIRSS/Generating-Clusters/GAP-ML-2020/Only-C1/SD-CG/HFTN-CG
REM
REM
REM
REM
REM
REM ./C.cell (11c1c37f851c82e70ff6c80c92926a4b)
REM AIRSS Version 0.9.1 bugfix July 2018 build 013d7b7c2542+ Fri, 06 Jul 2018 19:26:36 +0100
REM compiler GCC version 9.3.0
REM options -cpp -mtune=generic -march=x86-64 -g -O0
REM seed -821854727 -1898354613 1927618166 -876983336 21256476 1264538039 1046064228 -1056040301 -1545470232 1701964062 -341287925 1333602525 1289529479 -2070426041 1412240777 1430463752 -134800431 1979403404 -618346766 770530960 -429234616 65793402 389199171 1168055086 -1648708446 1206580314 -1809032742 1779207808 885270409 935069126 1329587976 846733508 -22154216
REM
CELL 1.54180   50.00000   50.00000   50.00000   90.00000   90.00000   90.00000
LATT -1
SFAC C  
C      1  0.5325770000000  0.4316280000000  0.4728840000000 1.0
C      1  0.4524650000000  0.4537950000000  0.4446630000000 1.0
C      1  0.4765400000000  0.4659530000000  0.5709720000000 1.0
C      1  0.4700200000000  0.5373970000000  0.4747580000000 1.0
C      1  0.4755690000000  0.4203790000000  0.4697560000000 1.0
C      1  0.4980270000000  0.4288330000000  0.5372770000000 1.0
C      1  0.4665130000000  0.5220170000000  0.5701740000000 1.0
C      1  0.5451180000000  0.4453410000000  0.5308690000000 1.0
C      1  0.5170110000000  0.4924880000000  0.5358720000000 1.0
C      1  0.5179200000000  0.4336780000000  0.4472740000000 1.0
C      1  0.4121460000000  0.4618180000000  0.5406610000000 1.0
C      1  0.5828340000000  0.4880390000000  0.5544630000000 1.0
C      1  0.4784550000000  0.5835260000000  0.5104570000000 1.0
C      1  0.4389940000000  0.4577470000000  0.5414140000000 1.0
C      1  0.5689760000000  0.4688530000000  0.4631810000000 1.0
C      1  0.5357000000000  0.5673160000000  0.5082870000000 1.0
C      1  0.5645150000000  0.5413350000000  0.4543080000000 1.0
C      1  0.4720470000000  0.5429650000000  0.4438150000000 1.0
C      1  0.5146460000000  0.4702170000000  0.5582810000000 1.0
C      1  0.5188090000000  0.5247240000000  0.4297040000000 1.0
C      1  0.4741500000000  0.5825450000000  0.4623660000000 1.0
C      1  0.4120200000000  0.4889290000000  0.5019750000000 1.0
C      1  0.5784000000000  0.4915320000000  0.4793400000000 1.0
C      1  0.4950530000000  0.5803350000000  0.5327840000000 1.0
C      1  0.4258120000000  0.5100380000000  0.5435310000000 1.0
C      1  0.4920060000000  0.4674750000000  0.4238810000000 1.0
C      1  0.5349980000000  0.5382890000000  0.5130980000000 1.0
C      1  0.5373330000000  0.5443050000000  0.4406790000000 1.0
C      1  0.5668130000000  0.4672660000000  0.4357040000000 1.0
C      1  0.5855400000000  0.4977220000000  0.5283620000000 1.0
C      1  0.4962310000000  0.5445470000000  0.4873050000000 1.0
C      1  0.4559700000000  0.4467870000000  0.5178690000000 1.0
C      1  0.4768670000000  0.4243300000000  0.5187450000000 1.0
C      1  0.5530290000000  0.4503470000000  0.4801420000000 1.0
C      1  0.4405500000000  0.4938720000000  0.4698230000000 1.0
C      1  0.5740320000000  0.5222840000000  0.4768470000000 1.0
C      1  0.4264640000000  0.5342700000000  0.4993980000000 1.0
C      1  0.4903760000000  0.4260480000000  0.4461620000000 1.0
C      1  0.4271970000000  0.4710660000000  0.4864730000000 1.0
C      1  0.5160350000000  0.4956950000000  0.4633770000000 1.0
C      1  0.4656320000000  0.5705800000000  0.4409280000000 1.0
C      1  0.5248030000000  0.4811910000000  0.5086630000000 1.0
C      1  0.4903330000000  0.5864550000000  0.4837550000000 1.0
C      1  0.5181360000000  0.5271900000000  0.5674600000000 1.0
C      1  0.4762210000000  0.4714230000000  0.5148930000000 1.0
C      1  0.5236890000000  0.4280860000000  0.5234770000000 1.0
C      1  0.4555980000000  0.5670750000000  0.5126510000000 1.0
C      1  0.5337080000000  0.5670710000000  0.4598490000000 1.0
C      1  0.4120230000000  0.4881220000000  0.5306180000000 1.0
C      1  0.4889770000000  0.4164510000000  0.4943020000000 1.0
C      1  0.4778170000000  0.4933070000000  0.4344680000000 1.0
C      1  0.5643030000000  0.5643610000000  0.4970510000000 1.0
C      1  0.5073400000000  0.5262450000000  0.5058930000000 1.0
C      1  0.5813180000000  0.5396730000000  0.5003720000000 1.0
C      1  0.4720790000000  0.4988840000000  0.5106370000000 1.0
C      1  0.4403190000000  0.4470430000000  0.4923130000000 1.0
C      1  0.5449660000000  0.5239820000000  0.4883880000000 1.0
C      1  0.4948960000000  0.4482930000000  0.5569970000000 1.0
C      1  0.5228280000000  0.5722930000000  0.5348210000000 1.0
C      1  0.5781640000000  0.5249140000000  0.5244750000000 1.0
C      1  0.4470570000000  0.5531630000000  0.5361530000000 1.0
C      1  0.4876860000000  0.4921860000000  0.4634670000000 1.0
C      1  0.4647600000000  0.5479590000000  0.5579050000000 1.0
C      1  0.4500000000000  0.4825150000000  0.4439550000000 1.0
C      1  0.5565370000000  0.4862780000000  0.5590980000000 1.0
C      1  0.4196420000000  0.5113480000000  0.4854680000000 1.0
C      1  0.4881350000000  0.5631360000000  0.5551130000000 1.0
C      1  0.4931860000000  0.4664490000000  0.4734430000000 1.0
C      1  0.5149710000000  0.5690500000000  0.4828650000000 1.0
C      1  0.4461890000000  0.5028890000000  0.5626920000000 1.0
C      1  0.4934530000000  0.5131990000000  0.5764130000000 1.0
C      1  0.4931570000000  0.5105820000000  0.5251360000000 1.0
C      1  0.5181920000000  0.4206210000000  0.4956750000000 1.0
C      1  0.4966510000000  0.4854320000000  0.5772370000000 1.0
C      1  0.4276680000000  0.5340660000000  0.5286140000000 1.0
C      1  0.5378140000000  0.5100680000000  0.5518710000000 1.0
C      1  0.4515820000000  0.4368420000000  0.4686870000000 1.0
C      1  0.4475500000000  0.5513260000000  0.4904360000000 1.0
C      1  0.4516530000000  0.4746040000000  0.5622590000000 1.0
C      1  0.5761520000000  0.4817970000000  0.5056940000000 1.0
C      1  0.5412980000000  0.4748150000000  0.4278730000000 1.0
C      1  0.4677060000000  0.5070490000000  0.4806900000000 1.0
C      1  0.4758230000000  0.4458650000000  0.4314910000000 1.0
C      1  0.5520520000000  0.5286340000000  0.5347680000000 1.0
C      1  0.4871450000000  0.5224430000000  0.4298800000000 1.0
C      1  0.5527480000000  0.4625830000000  0.5070470000000 1.0
C      1  0.5152950000000  0.5531510000000  0.5575380000000 1.0
C      1  0.5424630000000  0.4617790000000  0.5548310000000 1.0
C      1  0.5247300000000  0.5041210000000  0.4892020000000 1.0
C      1  0.5189080000000  0.4568250000000  0.4294480000000 1.0
C      1  0.5283720000000  0.4991900000000  0.4368010000000 1.0
C      1  0.5605240000000  0.5656210000000  0.4692430000000 1.0
C      1  0.4999940000000  0.4660460000000  0.5000630000000 1.0
END
