TITL C-49645-9655-5 0.0899592645857211 125000 -364.16062683599 0 0 55 (C1) n - 1
REM
REM in /rds/project/t2_vol4/rds-t2-cs072/BORA/CARBON/from-Arr/AIRSS/Generating-Clusters/GAP-ML-2020/Only-C1/SD-CG/HFTN-CG
REM
REM
REM
REM
REM
REM ./C.cell (11c1c37f851c82e70ff6c80c92926a4b)
REM AIRSS Version 0.9.1 bugfix July 2018 build 013d7b7c2542+ Fri, 06 Jul 2018 19:26:36 +0100
REM compiler GCC version 9.3.0
REM options -cpp -mtune=generic -march=x86-64 -g -O0
REM seed -1927871728 841324670 1227017115 1573531455 1106600968 1420858990 -747336405 529182847 -1805271935 1853208370 449001028 -1059254805 1560502658 -2054782398 -425257062 -988023246 -63098300 1216657965 -53342983 2106295069 1835758964 -1757151090 366955775 775138100 -964907810 1772752772 -246556637 1914156023 -895337877 1092077421 604097836 -1454804422 -783274059
REM
CELL 1.54180   50.00000   50.00000   50.00000   90.00000   90.00000   90.00000
LATT -1
SFAC C  
C      1  0.4796550000000  0.5117230000000  0.5517100000000 1.0
C      1  0.5189240000000  0.5271290000000  0.4512330000000 1.0
C      1  0.4817100000000  0.5085940000000  0.4224680000000 1.0
C      1  0.4455220000000  0.5429540000000  0.4962500000000 1.0
C      1  0.4661190000000  0.4499440000000  0.4861200000000 1.0
C      1  0.5490950000000  0.5019770000000  0.5425290000000 1.0
C      1  0.4635470000000  0.4705030000000  0.4454840000000 1.0
C      1  0.5119300000000  0.5581090000000  0.5112630000000 1.0
C      1  0.5458960000000  0.4804430000000  0.5237370000000 1.0
C      1  0.5126120000000  0.4806610000000  0.5717430000000 1.0
C      1  0.5567520000000  0.4814700000000  0.4954810000000 1.0
C      1  0.5092110000000  0.5123040000000  0.5061160000000 1.0
C      1  0.4994190000000  0.4901590000000  0.4708520000000 1.0
C      1  0.4530530000000  0.4863540000000  0.4671350000000 1.0
C      1  0.4649290000000  0.4820610000000  0.5917110000000 1.0
C      1  0.5068330000000  0.4690240000000  0.4910780000000 1.0
C      1  0.4369020000000  0.5186110000000  0.5071290000000 1.0
C      1  0.4887770000000  0.4474690000000  0.5015530000000 1.0
C      1  0.4914600000000  0.4726760000000  0.5317560000000 1.0
C      1  0.5416810000000  0.4510430000000  0.5207830000000 1.0
C      1  0.5058900000000  0.4497840000000  0.4509360000000 1.0
C      1  0.5353490000000  0.5117310000000  0.4304780000000 1.0
C      1  0.4908550000000  0.5265380000000  0.4400610000000 1.0
C      1  0.4813630000000  0.4822950000000  0.4267120000000 1.0
C      1  0.4723540000000  0.5292670000000  0.4606460000000 1.0
C      1  0.5477830000000  0.5255000000000  0.5269910000000 1.0
C      1  0.5270790000000  0.5025950000000  0.5606040000000 1.0
C      1  0.4626460000000  0.5347420000000  0.5169280000000 1.0
C      1  0.5494540000000  0.5063910000000  0.4848710000000 1.0
C      1  0.5202280000000  0.4566430000000  0.5626820000000 1.0
C      1  0.4669300000000  0.5508430000000  0.4768340000000 1.0
C      1  0.4437770000000  0.4907020000000  0.5134690000000 1.0
C      1  0.4771370000000  0.4501780000000  0.4582660000000 1.0
C      1  0.5358400000000  0.5527220000000  0.4926260000000 1.0
C      1  0.4827870000000  0.4930000000000  0.5765450000000 1.0
C      1  0.4738660000000  0.5050700000000  0.4766300000000 1.0
C      1  0.5227530000000  0.4502510000000  0.4746470000000 1.0
C      1  0.5213730000000  0.4421080000000  0.5386580000000 1.0
C      1  0.5080300000000  0.5207810000000  0.5511840000000 1.0
C      1  0.5081740000000  0.4692600000000  0.4287940000000 1.0
C      1  0.4828070000000  0.5647740000000  0.5485820000000 1.0
C      1  0.5448840000000  0.4538670000000  0.4908290000000 1.0
C      1  0.5282620000000  0.4884780000000  0.4223450000000 1.0
C      1  0.5202190000000  0.5099750000000  0.4770310000000 1.0
C      1  0.4946320000000  0.4441390000000  0.5284940000000 1.0
C      1  0.4470250000000  0.4720160000000  0.4908830000000 1.0
C      1  0.4696830000000  0.5391900000000  0.5442690000000 1.0
C      1  0.5189940000000  0.5326780000000  0.5264790000000 1.0
C      1  0.5148020000000  0.4844350000000  0.5154750000000 1.0
C      1  0.5014980000000  0.5757360000000  0.5339240000000 1.0
C      1  0.5198130000000  0.5500340000000  0.4692250000000 1.0
C      1  0.4948550000000  0.5556540000000  0.4844440000000 1.0
C      1  0.4801850000000  0.5114530000000  0.5054930000000 1.0
C      1  0.4707430000000  0.4931630000000  0.5275550000000 1.0
C      1  0.5539020000000  0.5307960000000  0.5002780000000 1.0
END
