TITL C-49655-9625-6 -13.4126731911755 125000 -457.028649126682 0 0 66 (C1) n - 1
REM
REM in /rds/project/t2_vol4/rds-t2-cs072/BORA/CARBON/from-Arr/AIRSS/Generating-Clusters/GAP-ML-2020/Only-C1/SD-CG/HFTN-CG
REM
REM
REM
REM
REM
REM ./C.cell (11c1c37f851c82e70ff6c80c92926a4b)
REM AIRSS Version 0.9.1 bugfix July 2018 build 013d7b7c2542+ Fri, 06 Jul 2018 19:26:36 +0100
REM compiler GCC version 9.3.0
REM options -cpp -mtune=generic -march=x86-64 -g -O0
REM seed -537554164 654720073 -659829470 2066743177 -1669382019 2098730292 -925385077 -403186048 -601995275 -1182054981 -1207493912 -1226418898 1971156554 628143609 -655693320 -1842209967 1454427881 1367561782 774358258 1231178847 -1822259931 -2088126441 1168980688 -1149299240 104741212 -1384449314 338761956 674344431 -913369048 -264769885 793312571 -980067401 678702762
REM
CELL 1.54180   50.00000   50.00000   50.00000   90.00000   90.00000   90.00000
LATT -1
SFAC C  
C      1  0.4944720000000  0.4849550000000  0.4373100000000 1.0
C      1  0.4338640000000  0.4704490000000  0.4988480000000 1.0
C      1  0.4621680000000  0.4419610000000  0.5343320000000 1.0
C      1  0.5471040000000  0.4914680000000  0.4617060000000 1.0
C      1  0.5238110000000  0.5573210000000  0.5020590000000 1.0
C      1  0.4651020000000  0.4407700000000  0.4735570000000 1.0
C      1  0.5343620000000  0.5049970000000  0.5629640000000 1.0
C      1  0.5215360000000  0.5321030000000  0.5589200000000 1.0
C      1  0.4758010000000  0.5724920000000  0.4984880000000 1.0
C      1  0.4691940000000  0.5639980000000  0.4707270000000 1.0
C      1  0.4784860000000  0.4572070000000  0.5525680000000 1.0
C      1  0.4966040000000  0.5219060000000  0.4817450000000 1.0
C      1  0.5324970000000  0.4670000000000  0.4648030000000 1.0
C      1  0.5590220000000  0.5156420000000  0.5499920000000 1.0
C      1  0.4459700000000  0.4633230000000  0.4732940000000 1.0
C      1  0.4664690000000  0.4841920000000  0.5510800000000 1.0
C      1  0.5476360000000  0.5540710000000  0.5208520000000 1.0
C      1  0.5506220000000  0.4620550000000  0.5402490000000 1.0
C      1  0.4365300000000  0.5269990000000  0.4752890000000 1.0
C      1  0.5353650000000  0.5405130000000  0.4549520000000 1.0
C      1  0.4688340000000  0.5255550000000  0.4393570000000 1.0
C      1  0.5040750000000  0.5753810000000  0.4909220000000 1.0
C      1  0.5729470000000  0.5038490000000  0.5284410000000 1.0
C      1  0.4414860000000  0.4840090000000  0.5376580000000 1.0
C      1  0.4968820000000  0.5693970000000  0.4629280000000 1.0
C      1  0.5162940000000  0.4344930000000  0.5337340000000 1.0
C      1  0.4740040000000  0.4240990000000  0.5150510000000 1.0
C      1  0.5446100000000  0.5494580000000  0.4793580000000 1.0
C      1  0.5131630000000  0.4318760000000  0.4867690000000 1.0
C      1  0.4553480000000  0.5419620000000  0.4594730000000 1.0
C      1  0.5021050000000  0.4715730000000  0.5070080000000 1.0
C      1  0.4960070000000  0.5433060000000  0.5518290000000 1.0
C      1  0.4389130000000  0.5238460000000  0.5049080000000 1.0
C      1  0.4571660000000  0.5383590000000  0.5210820000000 1.0
C      1  0.5135260000000  0.4885100000000  0.5273130000000 1.0
C      1  0.5103750000000  0.5524040000000  0.4457870000000 1.0
C      1  0.5273420000000  0.4764380000000  0.5530910000000 1.0
C      1  0.4444570000000  0.4849570000000  0.4539740000000 1.0
C      1  0.4783960000000  0.4848780000000  0.5040810000000 1.0
C      1  0.4843670000000  0.4988660000000  0.5339080000000 1.0
C      1  0.4653420000000  0.5664430000000  0.5239510000000 1.0
C      1  0.5731860000000  0.5153130000000  0.5020700000000 1.0
C      1  0.5076070000000  0.5299290000000  0.5059910000000 1.0
C      1  0.4828530000000  0.5265310000000  0.5298520000000 1.0
C      1  0.5686140000000  0.4760930000000  0.5249380000000 1.0
C      1  0.5394890000000  0.4486250000000  0.4904750000000 1.0
C      1  0.5109380000000  0.5077150000000  0.4326690000000 1.0
C      1  0.4954380000000  0.5319290000000  0.4329370000000 1.0
C      1  0.5462960000000  0.5414510000000  0.5456440000000 1.0
C      1  0.4670110000000  0.4962080000000  0.4389640000000 1.0
C      1  0.4272570000000  0.5048470000000  0.4623030000000 1.0
C      1  0.5352860000000  0.5125930000000  0.4465470000000 1.0
C      1  0.5263130000000  0.5097790000000  0.5145160000000 1.0
C      1  0.5395810000000  0.4433060000000  0.5219770000000 1.0
C      1  0.4407950000000  0.4581660000000  0.5246520000000 1.0
C      1  0.5654420000000  0.4937640000000  0.4833450000000 1.0
C      1  0.4946690000000  0.4417460000000  0.4668880000000 1.0
C      1  0.5064530000000  0.4532490000000  0.5542220000000 1.0
C      1  0.5020370000000  0.4232620000000  0.5122710000000 1.0
C      1  0.5630390000000  0.5414450000000  0.4995510000000 1.0
C      1  0.4827480000000  0.5671300000000  0.5477080000000 1.0
C      1  0.4332210000000  0.4974770000000  0.5132080000000 1.0
C      1  0.4596290000000  0.4211800000000  0.4918250000000 1.0
C      1  0.4789670000000  0.5029430000000  0.4834230000000 1.0
C      1  0.5068250000000  0.4629290000000  0.4522640000000 1.0
C      1  0.5640490000000  0.4693140000000  0.4974010000000 1.0
END
