TITL C-49655-9625-5 -0.143582064176531 125000 -276.544114512725 0 0 42 (C1) n - 1
REM
REM in /rds/project/t2_vol4/rds-t2-cs072/BORA/CARBON/from-Arr/AIRSS/Generating-Clusters/GAP-ML-2020/Only-C1/SD-CG/HFTN-CG
REM
REM
REM
REM
REM
REM ./C.cell (11c1c37f851c82e70ff6c80c92926a4b)
REM AIRSS Version 0.9.1 bugfix July 2018 build 013d7b7c2542+ Fri, 06 Jul 2018 19:26:36 +0100
REM compiler GCC version 9.3.0
REM options -cpp -mtune=generic -march=x86-64 -g -O0
REM seed 1254260357 -853726039 -48964842 1236633487 2005849145 843051416 -2731265 2022674043 -346164052 -1264639532 -561390565 651184745 957117316 1748791616 342073010 -219189203 -599480334 1627677682 -2113973918 -554703184 1960205453 952015598 -820365421 1777192227 85237795 -1447820415 -705534803 -1142846117 1642794301 -1806181927 523420270 -888347282 -1150126663
REM
CELL 1.54180   50.00000   50.00000   50.00000   90.00000   90.00000   90.00000
LATT -1
SFAC C  
C      1  0.4681130000000  0.4528650000000  0.4381250000000 1.0
C      1  0.5015050000000  0.4868130000000  0.4744810000000 1.0
C      1  0.5394160000000  0.5264500000000  0.4890630000000 1.0
C      1  0.4660090000000  0.4605440000000  0.4858570000000 1.0
C      1  0.5532540000000  0.5163470000000  0.5138890000000 1.0
C      1  0.4917890000000  0.4243000000000  0.4676510000000 1.0
C      1  0.4514700000000  0.5488390000000  0.5199360000000 1.0
C      1  0.4778080000000  0.4832690000000  0.4967530000000 1.0
C      1  0.5082680000000  0.4478600000000  0.5109100000000 1.0
C      1  0.4751610000000  0.5031970000000  0.5433670000000 1.0
C      1  0.4505810000000  0.5206430000000  0.5199650000000 1.0
C      1  0.5191030000000  0.5085330000000  0.5575580000000 1.0
C      1  0.4934200000000  0.5260480000000  0.4984710000000 1.0
C      1  0.4675690000000  0.5433880000000  0.4641390000000 1.0
C      1  0.5054620000000  0.5367280000000  0.5251040000000 1.0
C      1  0.4890420000000  0.4846910000000  0.5242260000000 1.0
C      1  0.5165220000000  0.4950080000000  0.5151810000000 1.0
C      1  0.5013470000000  0.5651660000000  0.5195780000000 1.0
C      1  0.4584280000000  0.5177800000000  0.4685200000000 1.0
C      1  0.4726180000000  0.5615700000000  0.5123510000000 1.0
C      1  0.4674680000000  0.5105190000000  0.4964030000000 1.0
C      1  0.4946060000000  0.5235690000000  0.5498650000000 1.0
C      1  0.5149960000000  0.5091820000000  0.4880420000000 1.0
C      1  0.4589890000000  0.4700520000000  0.4579620000000 1.0
C      1  0.5080010000000  0.4581780000000  0.5614660000000 1.0
C      1  0.5289050000000  0.4690800000000  0.5086760000000 1.0
C      1  0.4888950000000  0.4398410000000  0.4901330000000 1.0
C      1  0.4482000000000  0.5068830000000  0.5436280000000 1.0
C      1  0.5158800000000  0.4828690000000  0.5638960000000 1.0
C      1  0.5391650000000  0.4604590000000  0.4558940000000 1.0
C      1  0.4968070000000  0.4581240000000  0.5357550000000 1.0
C      1  0.5666730000000  0.4935850000000  0.5103290000000 1.0
C      1  0.5599710000000  0.4614230000000  0.4712260000000 1.0
C      1  0.5312480000000  0.5759310000000  0.4782370000000 1.0
C      1  0.5546790000000  0.4719470000000  0.4978460000000 1.0
C      1  0.4506360000000  0.4959630000000  0.4540610000000 1.0
C      1  0.4922910000000  0.4457330000000  0.4486500000000 1.0
C      1  0.5407030000000  0.5511400000000  0.4795680000000 1.0
C      1  0.5083360000000  0.5690610000000  0.4910130000000 1.0
C      1  0.5122520000000  0.4674480000000  0.4563540000000 1.0
C      1  0.4851370000000  0.5523680000000  0.4846330000000 1.0
C      1  0.5292740000000  0.5166070000000  0.5312360000000 1.0
END
