TITL C-49630-9520-1 -63.8218626709638 125000 -445.853915076514 0 0 65 (C1) n - 1
REM
REM in /rds/project/t2_vol4/rds-t2-cs072/BORA/CARBON/from-Arr/AIRSS/Generating-Clusters/GAP-ML-2020/Only-C1/SD-CG/HFTN-CG
REM
REM
REM
REM
REM
REM ./C.cell (11c1c37f851c82e70ff6c80c92926a4b)
REM AIRSS Version 0.9.1 bugfix July 2018 build 013d7b7c2542+ Fri, 06 Jul 2018 19:26:36 +0100
REM compiler GCC version 9.3.0
REM options -cpp -mtune=generic -march=x86-64 -g -O0
REM seed -800896038 -1895670926 822400464 -1410713372 -688818449 -1589022685 -637962761 -405672167 -1036849406 -1559215287 -1399605966 113088886 -1613073004 -365737131 844474212 -2079450008 -1580161747 1781813839 -477290927 1364246149 1342984292 -2102004770 1876574504 1448348442 -1324252325 1365250542 -1661209844 -1574782920 1568837786 2089446672 -1196376193 673877055 949910384
REM
CELL 1.54180   50.00000   50.00000   50.00000   90.00000   90.00000   90.00000
LATT -1
SFAC C  
C      1  0.4470580000000  0.4590040000000  0.4975240000000 1.0
C      1  0.4410830000000  0.5148420000000  0.5313380000000 1.0
C      1  0.5528320000000  0.5420230000000  0.5307830000000 1.0
C      1  0.5252780000000  0.4428020000000  0.5286420000000 1.0
C      1  0.5360240000000  0.5610200000000  0.4958320000000 1.0
C      1  0.4340350000000  0.5324070000000  0.4818190000000 1.0
C      1  0.4819200000000  0.4884280000000  0.4363870000000 1.0
C      1  0.4250990000000  0.4768640000000  0.5032920000000 1.0
C      1  0.4967330000000  0.4874760000000  0.4782380000000 1.0
C      1  0.4799390000000  0.5365430000000  0.4857010000000 1.0
C      1  0.5619320000000  0.4525450000000  0.4995760000000 1.0
C      1  0.5065050000000  0.5612860000000  0.5408050000000 1.0
C      1  0.4897750000000  0.4700140000000  0.5213980000000 1.0
C      1  0.4870800000000  0.5003110000000  0.5249190000000 1.0
C      1  0.5752100000000  0.4747360000000  0.4893720000000 1.0
C      1  0.5045890000000  0.4569690000000  0.5432370000000 1.0
C      1  0.5053550000000  0.5345850000000  0.4659760000000 1.0
C      1  0.4632570000000  0.4567200000000  0.5216650000000 1.0
C      1  0.4922760000000  0.5483080000000  0.4409880000000 1.0
C      1  0.5595320000000  0.4757360000000  0.5430970000000 1.0
C      1  0.5296370000000  0.5598710000000  0.5250250000000 1.0
C      1  0.4672900000000  0.5121210000000  0.5468690000000 1.0
C      1  0.4571340000000  0.5409710000000  0.4676620000000 1.0
C      1  0.4779210000000  0.5575470000000  0.5339950000000 1.0
C      1  0.5183970000000  0.4321150000000  0.4754100000000 1.0
C      1  0.5224590000000  0.5594140000000  0.4705410000000 1.0
C      1  0.4504100000000  0.4703540000000  0.5434230000000 1.0
C      1  0.4655940000000  0.5501490000000  0.5102830000000 1.0
C      1  0.5146230000000  0.4405570000000  0.5014240000000 1.0
C      1  0.5114160000000  0.5215400000000  0.5769740000000 1.0
C      1  0.4147570000000  0.4867740000000  0.4791840000000 1.0
C      1  0.4751200000000  0.5385030000000  0.5560870000000 1.0
C      1  0.4348790000000  0.4998340000000  0.4440670000000 1.0
C      1  0.5037560000000  0.4483050000000  0.4545850000000 1.0
C      1  0.5522660000000  0.4527560000000  0.5270840000000 1.0
C      1  0.5433740000000  0.4951820000000  0.5585290000000 1.0
C      1  0.4655670000000  0.5373900000000  0.4404470000000 1.0
C      1  0.5436860000000  0.5030900000000  0.4747420000000 1.0
C      1  0.4800520000000  0.4672700000000  0.4585660000000 1.0
C      1  0.5740190000000  0.4981470000000  0.5307740000000 1.0
C      1  0.5302510000000  0.4914080000000  0.5047890000000 1.0
C      1  0.5590890000000  0.5434840000000  0.5016270000000 1.0
C      1  0.5454070000000  0.4416610000000  0.4769760000000 1.0
C      1  0.4609360000000  0.5084070000000  0.4351320000000 1.0
C      1  0.5172310000000  0.5066550000000  0.4612940000000 1.0
C      1  0.4684270000000  0.4849270000000  0.5604930000000 1.0
C      1  0.5074580000000  0.5697440000000  0.4485470000000 1.0
C      1  0.5221350000000  0.4647130000000  0.4409970000000 1.0
C      1  0.4872620000000  0.5095550000000  0.4967180000000 1.0
C      1  0.4319440000000  0.4881230000000  0.5288420000000 1.0
C      1  0.5605490000000  0.4815040000000  0.4652680000000 1.0
C      1  0.4962880000000  0.4748780000000  0.5639130000000 1.0
C      1  0.4199230000000  0.5128380000000  0.4672940000000 1.0
C      1  0.4530060000000  0.4611420000000  0.4691320000000 1.0
C      1  0.4411850000000  0.5344580000000  0.5103630000000 1.0
C      1  0.5643190000000  0.5196500000000  0.4885550000000 1.0
C      1  0.5468970000000  0.4600100000000  0.4544140000000 1.0
C      1  0.5095900000000  0.4703080000000  0.4987530000000 1.0
C      1  0.4309420000000  0.4743890000000  0.4569360000000 1.0
C      1  0.5115930000000  0.5110640000000  0.5145860000000 1.0
C      1  0.5110600000000  0.4912010000000  0.4365280000000 1.0
C      1  0.5168500000000  0.4953510000000  0.5702930000000 1.0
C      1  0.5786170000000  0.4992270000000  0.5035250000000 1.0
C      1  0.5031550000000  0.5429080000000  0.5637610000000 1.0
C      1  0.5580170000000  0.5178850000000  0.5450040000000 1.0
END
