TITL C-49637-9497-5 -43.0403347938092 125000 -302.422942707982 0 0 46 (C1) n - 1
REM
REM in /rds/project/t2_vol4/rds-t2-cs072/BORA/CARBON/from-Arr/AIRSS/Generating-Clusters/GAP-ML-2020/Only-C1/SD-CG/HFTN-CG
REM
REM
REM
REM
REM
REM ./C.cell (11c1c37f851c82e70ff6c80c92926a4b)
REM AIRSS Version 0.9.1 bugfix July 2018 build 013d7b7c2542+ Fri, 06 Jul 2018 19:26:36 +0100
REM compiler GCC version 9.3.0
REM options -cpp -mtune=generic -march=x86-64 -g -O0
REM seed -902142728 -496145447 -1184380841 -746623616 -1152023873 581194498 1780773862 -93823585 1299417812 -1180266785 1335220206 1970348089 1107715343 -849197910 -2052844874 -1340782718 267492892 1788837377 -811014601 979772288 -1998579640 1854921468 1985741041 -1031092837 1183482418 999716300 -289305307 -2077022781 -636171636 -1281188025 1287978430 -1826920729 -246963847
REM
CELL 1.54180   50.00000   50.00000   50.00000   90.00000   90.00000   90.00000
LATT -1
SFAC C  
C      1  0.4524550000000  0.4757190000000  0.4707430000000 1.0
C      1  0.5630640000000  0.4450250000000  0.4643850000000 1.0
C      1  0.5025620000000  0.5493910000000  0.4716490000000 1.0
C      1  0.5100920000000  0.4455320000000  0.5110740000000 1.0
C      1  0.4360850000000  0.5139630000000  0.5206680000000 1.0
C      1  0.5093800000000  0.5298600000000  0.5555830000000 1.0
C      1  0.4284530000000  0.4870520000000  0.5178110000000 1.0
C      1  0.4972030000000  0.5166210000000  0.5310890000000 1.0
C      1  0.5198620000000  0.4905810000000  0.4857730000000 1.0
C      1  0.5070310000000  0.5581310000000  0.5458260000000 1.0
C      1  0.4948260000000  0.4411390000000  0.4631930000000 1.0
C      1  0.5119060000000  0.4716280000000  0.4329600000000 1.0
C      1  0.4803850000000  0.5349810000000  0.4612140000000 1.0
C      1  0.4462890000000  0.4730350000000  0.5384490000000 1.0
C      1  0.4585000000000  0.4596320000000  0.5164380000000 1.0
C      1  0.4889820000000  0.5586680000000  0.5232070000000 1.0
C      1  0.5052120000000  0.5507210000000  0.4997830000000 1.0
C      1  0.5250680000000  0.4500440000000  0.5333700000000 1.0
C      1  0.5455180000000  0.5239140000000  0.4662190000000 1.0
C      1  0.5457480000000  0.5416000000000  0.5327260000000 1.0
C      1  0.5567510000000  0.5199670000000  0.4930450000000 1.0
C      1  0.4733320000000  0.5333840000000  0.5240920000000 1.0
C      1  0.5378950000000  0.4379980000000  0.4643450000000 1.0
C      1  0.4566080000000  0.5257190000000  0.4753830000000 1.0
C      1  0.4780330000000  0.4620860000000  0.4689020000000 1.0
C      1  0.5388140000000  0.4960780000000  0.5372220000000 1.0
C      1  0.4410660000000  0.4720130000000  0.4961510000000 1.0
C      1  0.5259640000000  0.5030420000000  0.4619000000000 1.0
C      1  0.5355460000000  0.5033750000000  0.5064340000000 1.0
C      1  0.5059680000000  0.4969140000000  0.4413700000000 1.0
C      1  0.4806350000000  0.5109480000000  0.4446950000000 1.0
C      1  0.5159280000000  0.4469680000000  0.4424490000000 1.0
C      1  0.5376290000000  0.5201460000000  0.5519680000000 1.0
C      1  0.4947220000000  0.4782810000000  0.4883070000000 1.0
C      1  0.5274560000000  0.5429770000000  0.4599900000000 1.0
C      1  0.5193900000000  0.5281320000000  0.5127200000000 1.0
C      1  0.4875120000000  0.4669480000000  0.5139140000000 1.0
C      1  0.5151450000000  0.4357170000000  0.4838480000000 1.0
C      1  0.5332890000000  0.5646950000000  0.5430960000000 1.0
C      1  0.4530350000000  0.5277110000000  0.5027780000000 1.0
C      1  0.5212580000000  0.4755230000000  0.5449750000000 1.0
C      1  0.4934980000000  0.4862730000000  0.5370970000000 1.0
C      1  0.4559270000000  0.5017900000000  0.4589960000000 1.0
C      1  0.4554230000000  0.5176060000000  0.5430130000000 1.0
C      1  0.5648230000000  0.5374040000000  0.5120200000000 1.0
C      1  0.4657370000000  0.4910700000000  0.5491300000000 1.0
END
