TITL C-49628-9610-1 -67.5926105123084 125000 -74.592132710027 0 0 12 (C1) n - 1
REM
REM in /rds/project/t2_vol4/rds-t2-cs072/BORA/CARBON/from-Arr/AIRSS/Generating-Clusters/GAP-ML-2020/Only-C1/SD-CG/HFTN-CG
REM
REM
REM
REM
REM
REM ./C.cell (11c1c37f851c82e70ff6c80c92926a4b)
REM AIRSS Version 0.9.1 bugfix July 2018 build 013d7b7c2542+ Fri, 06 Jul 2018 19:26:36 +0100
REM compiler GCC version 9.3.0
REM options -cpp -mtune=generic -march=x86-64 -g -O0
REM seed 1092839686 -1079476027 -986024131 1382450227 304094294 -1783603271 -1579276168 142002446 -1890431883 1890897878 541986379 -1132476379 995947397 1136905857 1303155437 1082987677 659838474 -1097826040 1913713877 1819533984 1506340456 -668092509 575896659 1057571860 -827428924 1777057368 1879570903 -1176645140 -933163581 -178127320 -794542418 -833959069 141461051
REM
CELL 1.54180   50.00000   50.00000   50.00000   90.00000   90.00000   90.00000
LATT -1
SFAC C  
C      1  0.5032420000000  0.4719930000000  0.5163120000000 1.0
C      1  0.5375710000000  0.4898400000000  0.4854550000000 1.0
C      1  0.4778140000000  0.5185900000000  0.4800240000000 1.0
C      1  0.5046410000000  0.5204230000000  0.5136110000000 1.0
C      1  0.4633910000000  0.4813380000000  0.4478050000000 1.0
C      1  0.4881550000000  0.5344350000000  0.4971450000000 1.0
C      1  0.4899490000000  0.5005500000000  0.5445860000000 1.0
C      1  0.4871770000000  0.4756700000000  0.5367610000000 1.0
C      1  0.5553980000000  0.4953550000000  0.4683540000000 1.0
C      1  0.5030560000000  0.5229590000000  0.5414720000000 1.0
C      1  0.4724460000000  0.4981200000000  0.4653650000000 1.0
C      1  0.5171610000000  0.4907250000000  0.5031100000000 1.0
END
