TITL C-49628-9610-5 -4.31021925932721 125000 -520.996248930528 0 0 76 (C1) n - 1
REM
REM in /rds/project/t2_vol4/rds-t2-cs072/BORA/CARBON/from-Arr/AIRSS/Generating-Clusters/GAP-ML-2020/Only-C1/SD-CG/HFTN-CG
REM
REM
REM
REM
REM
REM ./C.cell (11c1c37f851c82e70ff6c80c92926a4b)
REM AIRSS Version 0.9.1 bugfix July 2018 build 013d7b7c2542+ Fri, 06 Jul 2018 19:26:36 +0100
REM compiler GCC version 9.3.0
REM options -cpp -mtune=generic -march=x86-64 -g -O0
REM seed 453103861 -98426607 1697666010 -861817222 1141289345 -664698669 -394089618 376716450 -694047692 445727410 1417775866 -1415660659 2062438452 1233370152 1910839632 -257688609 2122779381 1435851060 1290882987 433091252 1989724945 -421936 -736935221 -862872478 -205830752 -399926725 -540702871 1062978045 1269512978 -1360846159 -1625471662 -1778605061 -714608767
REM
CELL 1.54180   50.00000   50.00000   50.00000   90.00000   90.00000   90.00000
LATT -1
SFAC C  
C      1  0.5245630000000  0.5218830000000  0.4697250000000 1.0
C      1  0.4744040000000  0.5196950000000  0.4930790000000 1.0
C      1  0.4747730000000  0.5439830000000  0.4407170000000 1.0
C      1  0.5496780000000  0.5266930000000  0.5627960000000 1.0
C      1  0.4458540000000  0.4404470000000  0.5050040000000 1.0
C      1  0.5535450000000  0.4888460000000  0.4530360000000 1.0
C      1  0.5117030000000  0.4789570000000  0.4912040000000 1.0
C      1  0.4684620000000  0.4928580000000  0.4819650000000 1.0
C      1  0.5662220000000  0.5231250000000  0.5180940000000 1.0
C      1  0.4914720000000  0.5019600000000  0.5334400000000 1.0
C      1  0.4546660000000  0.4727310000000  0.5419770000000 1.0
C      1  0.5015130000000  0.5620250000000  0.5371870000000 1.0
C      1  0.4987120000000  0.5682520000000  0.4713760000000 1.0
C      1  0.4379160000000  0.4628810000000  0.4693880000000 1.0
C      1  0.4761530000000  0.5202840000000  0.5554610000000 1.0
C      1  0.5553590000000  0.4578290000000  0.4882870000000 1.0
C      1  0.4721830000000  0.5632400000000  0.4620830000000 1.0
C      1  0.4855870000000  0.4783090000000  0.4314830000000 1.0
C      1  0.5727910000000  0.5092740000000  0.4929220000000 1.0
C      1  0.5243240000000  0.5222990000000  0.4997760000000 1.0
C      1  0.4502670000000  0.5228070000000  0.5411430000000 1.0
C      1  0.5031000000000  0.5394580000000  0.4329650000000 1.0
C      1  0.5111050000000  0.4901900000000  0.4216400000000 1.0
C      1  0.5645150000000  0.4827970000000  0.4781070000000 1.0
C      1  0.5106360000000  0.5174240000000  0.4191870000000 1.0
C      1  0.4562640000000  0.5643490000000  0.5095100000000 1.0
C      1  0.4615540000000  0.5199670000000  0.4451150000000 1.0
C      1  0.4968490000000  0.4621920000000  0.5656970000000 1.0
C      1  0.5163160000000  0.4303850000000  0.5001320000000 1.0
C      1  0.5233490000000  0.5250970000000  0.5571820000000 1.0
C      1  0.4508790000000  0.5612520000000  0.4808060000000 1.0
C      1  0.4949950000000  0.5210510000000  0.5098460000000 1.0
C      1  0.4820830000000  0.5724710000000  0.5176500000000 1.0
C      1  0.4715570000000  0.4758820000000  0.5682470000000 1.0
C      1  0.5281390000000  0.4951180000000  0.5116010000000 1.0
C      1  0.4828900000000  0.4717120000000  0.4975920000000 1.0
C      1  0.4711680000000  0.4292630000000  0.5397470000000 1.0
C      1  0.5785780000000  0.4728290000000  0.5259710000000 1.0
C      1  0.4321870000000  0.5393400000000  0.4770240000000 1.0
C      1  0.5438170000000  0.5641930000000  0.4629910000000 1.0
C      1  0.5188140000000  0.4987890000000  0.5426470000000 1.0
C      1  0.4287190000000  0.5017950000000  0.5057030000000 1.0
C      1  0.4410380000000  0.5431320000000  0.5228730000000 1.0
C      1  0.5273100000000  0.4511010000000  0.4817630000000 1.0
C      1  0.5192990000000  0.4361720000000  0.5279480000000 1.0
C      1  0.5675420000000  0.4846130000000  0.5475840000000 1.0
C      1  0.4994130000000  0.5410310000000  0.5553610000000 1.0
C      1  0.4802980000000  0.4967510000000  0.4537680000000 1.0
C      1  0.5441620000000  0.5443260000000  0.5085300000000 1.0
C      1  0.4741090000000  0.5014570000000  0.5765300000000 1.0
C      1  0.4944900000000  0.4457420000000  0.5416900000000 1.0
C      1  0.5665740000000  0.5133920000000  0.5449540000000 1.0
C      1  0.5442430000000  0.4458370000000  0.5359420000000 1.0
C      1  0.4382940000000  0.4919320000000  0.4779470000000 1.0
C      1  0.4807370000000  0.4740150000000  0.5260470000000 1.0
C      1  0.4490980000000  0.4442540000000  0.5331760000000 1.0
C      1  0.5185750000000  0.5510220000000  0.4575430000000 1.0
C      1  0.5101220000000  0.4966740000000  0.4645740000000 1.0
C      1  0.4251300000000  0.4457240000000  0.4874050000000 1.0
C      1  0.4409690000000  0.4973130000000  0.5315380000000 1.0
C      1  0.5700100000000  0.5294800000000  0.4729170000000 1.0
C      1  0.5517590000000  0.5171250000000  0.4557780000000 1.0
C      1  0.5574230000000  0.5531190000000  0.4831340000000 1.0
C      1  0.4881560000000  0.4548170000000  0.4468860000000 1.0
C      1  0.5275500000000  0.4789920000000  0.4436260000000 1.0
C      1  0.5161220000000  0.4537750000000  0.4540310000000 1.0
C      1  0.5631250000000  0.4529330000000  0.5149370000000 1.0
C      1  0.5233980000000  0.5647110000000  0.5174090000000 1.0
C      1  0.4722280000000  0.4414800000000  0.4895420000000 1.0
C      1  0.4913110000000  0.4221830000000  0.4951110000000 1.0
C      1  0.5211610000000  0.4767140000000  0.5624470000000 1.0
C      1  0.4649950000000  0.4479200000000  0.4619310000000 1.0
C      1  0.5463440000000  0.4660150000000  0.5563910000000 1.0
C      1  0.4377070000000  0.5177210000000  0.4602110000000 1.0
C      1  0.5038570000000  0.5749500000000  0.4979810000000 1.0
C      1  0.4257930000000  0.5296480000000  0.5029920000000 1.0
END
