TITL C-49657-9576-6 372.848742668284 125000 -824.296461005447 0 0 119 (C1) n - 1
REM
REM in /rds/project/t2_vol4/rds-t2-cs072/BORA/CARBON/from-Arr/AIRSS/Generating-Clusters/GAP-ML-2020/Only-C1/SD-CG/HFTN-CG
REM
REM
REM
REM
REM
REM ./C.cell (11c1c37f851c82e70ff6c80c92926a4b)
REM AIRSS Version 0.9.1 bugfix July 2018 build 013d7b7c2542+ Fri, 06 Jul 2018 19:26:36 +0100
REM compiler GCC version 9.3.0
REM options -cpp -mtune=generic -march=x86-64 -g -O0
REM seed 867122311 -1489959777 -2116439823 993863170 -1273782100 -1870325305 -600265058 331350529 -340870054 233663051 1134252648 -1554988907 1201796341 1320460395 -1268529257 -1620245230 -1092725836 2004279124 44050142 -464855143 -1038883020 -2118262827 152521408 -161653077 1849202559 -1568075689 -539177737 363844644 -953361179 850498706 -468355332 -904037826 1157857870
REM
CELL 1.54180   50.00000   50.00000   50.00000   90.00000   90.00000   90.00000
LATT -1
SFAC C  
C      1  0.4598810000000  0.5431000000000  0.4267330000000 1.0
C      1  0.4835660000000  0.5825160000000  0.5034740000000 1.0
C      1  0.4283380000000  0.5791680000000  0.4481700000000 1.0
C      1  0.4471690000000  0.5672980000000  0.4318500000000 1.0
C      1  0.4817510000000  0.5423990000000  0.4691340000000 1.0
C      1  0.4102510000000  0.5099400000000  0.4944970000000 1.0
C      1  0.5488380000000  0.4844840000000  0.5113210000000 1.0
C      1  0.4175340000000  0.5345450000000  0.5061630000000 1.0
C      1  0.5587900000000  0.5041340000000  0.4135270000000 1.0
C      1  0.4857090000000  0.4784710000000  0.5836260000000 1.0
C      1  0.4640840000000  0.4383090000000  0.5634820000000 1.0
C      1  0.4427040000000  0.4595200000000  0.4569960000000 1.0
C      1  0.5736950000000  0.5058810000000  0.5748600000000 1.0
C      1  0.5481900000000  0.5157540000000  0.4559660000000 1.0
C      1  0.5118060000000  0.4598830000000  0.5054840000000 1.0
C      1  0.5109570000000  0.4697060000000  0.5703220000000 1.0
C      1  0.4401280000000  0.4266450000000  0.5211670000000 1.0
C      1  0.4321180000000  0.5576400000000  0.5394480000000 1.0
C      1  0.5315960000000  0.5783430000000  0.5091250000000 1.0
C      1  0.5296090000000  0.5271630000000  0.5259230000000 1.0
C      1  0.5001680000000  0.4816740000000  0.5223420000000 1.0
C      1  0.4081640000000  0.4850820000000  0.5109890000000 1.0
C      1  0.5578680000000  0.5369220000000  0.5190220000000 1.0
C      1  0.5037800000000  0.4657100000000  0.4144610000000 1.0
C      1  0.4653070000000  0.4640550000000  0.5099440000000 1.0
C      1  0.5096200000000  0.5113010000000  0.4103150000000 1.0
C      1  0.5594600000000  0.5295250000000  0.5695580000000 1.0
C      1  0.5548150000000  0.4517830000000  0.5192380000000 1.0
C      1  0.5643390000000  0.4596730000000  0.5667090000000 1.0
C      1  0.5945760000000  0.5002100000000  0.5558440000000 1.0
C      1  0.4631370000000  0.4625620000000  0.5812800000000 1.0
C      1  0.4178640000000  0.5349540000000  0.5348300000000 1.0
C      1  0.4706710000000  0.4240220000000  0.4844780000000 1.0
C      1  0.5616170000000  0.4398660000000  0.4913960000000 1.0
C      1  0.4498740000000  0.5904620000000  0.4662980000000 1.0
C      1  0.4761310000000  0.4702350000000  0.5335760000000 1.0
C      1  0.5925250000000  0.5007630000000  0.5281110000000 1.0
C      1  0.5694000000000  0.5307310000000  0.4664840000000 1.0
C      1  0.5286940000000  0.5774470000000  0.5381220000000 1.0
C      1  0.4375660000000  0.4727380000000  0.5786730000000 1.0
C      1  0.5102370000000  0.5853990000000  0.4909600000000 1.0
C      1  0.4517610000000  0.5151570000000  0.4315470000000 1.0
C      1  0.5720070000000  0.5090510000000  0.5085530000000 1.0
C      1  0.4862910000000  0.4539380000000  0.4907250000000 1.0
C      1  0.5286410000000  0.4375240000000  0.4549040000000 1.0
C      1  0.4945330000000  0.5039390000000  0.5025690000000 1.0
C      1  0.4166850000000  0.4722640000000  0.4669430000000 1.0
C      1  0.5388500000000  0.5652110000000  0.4537380000000 1.0
C      1  0.4578070000000  0.4837210000000  0.4688050000000 1.0
C      1  0.4876890000000  0.4484420000000  0.4305780000000 1.0
C      1  0.5078650000000  0.4934060000000  0.4751440000000 1.0
C      1  0.4926440000000  0.5762460000000  0.4452030000000 1.0
C      1  0.5319810000000  0.4714880000000  0.4099250000000 1.0
C      1  0.4682840000000  0.5884260000000  0.4444960000000 1.0
C      1  0.4901010000000  0.4904260000000  0.4106890000000 1.0
C      1  0.5317360000000  0.5303980000000  0.5751860000000 1.0
C      1  0.4887460000000  0.4286460000000  0.5533750000000 1.0
C      1  0.4943630000000  0.4142740000000  0.4706400000000 1.0
C      1  0.4817090000000  0.5701690000000  0.5292090000000 1.0
C      1  0.4921250000000  0.5155370000000  0.5538300000000 1.0
C      1  0.5264380000000  0.4408200000000  0.5272250000000 1.0
C      1  0.5586450000000  0.4748110000000  0.4214110000000 1.0
C      1  0.5295940000000  0.4765620000000  0.4869470000000 1.0
C      1  0.4864450000000  0.5476210000000  0.4389250000000 1.0
C      1  0.5812970000000  0.5087330000000  0.4803940000000 1.0
C      1  0.4634150000000  0.5204600000000  0.5355650000000 1.0
C      1  0.4571510000000  0.5793840000000  0.4909560000000 1.0
C      1  0.5174190000000  0.4116920000000  0.4887400000000 1.0
C      1  0.5585710000000  0.4818770000000  0.5818570000000 1.0
C      1  0.5635970000000  0.4680400000000  0.4491180000000 1.0
C      1  0.4275370000000  0.4386470000000  0.4970840000000 1.0
C      1  0.5526170000000  0.5710350000000  0.5495420000000 1.0
C      1  0.4405860000000  0.4388930000000  0.5470490000000 1.0
C      1  0.5569900000000  0.5261140000000  0.4309710000000 1.0
C      1  0.4832780000000  0.5375670000000  0.5899500000000 1.0
C      1  0.5312350000000  0.4836090000000  0.5881820000000 1.0
C      1  0.5136220000000  0.4160650000000  0.5163950000000 1.0
C      1  0.4586550000000  0.5517260000000  0.5297190000000 1.0
C      1  0.5584410000000  0.5565330000000  0.4734060000000 1.0
C      1  0.5368360000000  0.5467370000000  0.4313250000000 1.0
C      1  0.4662630000000  0.5106960000000  0.5051460000000 1.0
C      1  0.5136540000000  0.5369130000000  0.5512820000000 1.0
C      1  0.5110830000000  0.4911990000000  0.5465610000000 1.0
C      1  0.4907840000000  0.5089580000000  0.5841140000000 1.0
C      1  0.5366880000000  0.4642820000000  0.4598580000000 1.0
C      1  0.4896320000000  0.5598710000000  0.5790350000000 1.0
C      1  0.4640540000000  0.4902260000000  0.4217180000000 1.0
C      1  0.4172830000000  0.5009870000000  0.4682290000000 1.0
C      1  0.4537850000000  0.4861770000000  0.4978780000000 1.0
C      1  0.5773490000000  0.4561270000000  0.4726930000000 1.0
C      1  0.4581690000000  0.5306360000000  0.4817330000000 1.0
C      1  0.5188630000000  0.5174060000000  0.4602490000000 1.0
C      1  0.4445540000000  0.5100410000000  0.4595600000000 1.0
C      1  0.4445600000000  0.5513770000000  0.4983820000000 1.0
C      1  0.4197710000000  0.4870080000000  0.5374850000000 1.0
C      1  0.5075850000000  0.5370300000000  0.4796360000000 1.0
C      1  0.4112120000000  0.4621970000000  0.4927080000000 1.0
C      1  0.5107440000000  0.5312490000000  0.4315850000000 1.0
C      1  0.4606500000000  0.4628540000000  0.4327640000000 1.0
C      1  0.5744140000000  0.4550920000000  0.5420970000000 1.0
C      1  0.5092880000000  0.5279890000000  0.5055850000000 1.0
C      1  0.5651190000000  0.5472700000000  0.5473520000000 1.0
C      1  0.4650270000000  0.4153540000000  0.5125010000000 1.0
C      1  0.4271040000000  0.4647450000000  0.5541020000000 1.0
C      1  0.4451360000000  0.4357380000000  0.4750450000000 1.0
C      1  0.4881390000000  0.4143600000000  0.5286370000000 1.0
C      1  0.5155040000000  0.5806600000000  0.4622770000000 1.0
C      1  0.5534010000000  0.5609030000000  0.5004040000000 1.0
C      1  0.5127220000000  0.4438010000000  0.5549180000000 1.0
C      1  0.5022450000000  0.4296190000000  0.4477050000000 1.0
C      1  0.5343160000000  0.4987990000000  0.5320510000000 1.0
C      1  0.5829650000000  0.4826430000000  0.4678610000000 1.0
C      1  0.5399530000000  0.4252330000000  0.4782890000000 1.0
C      1  0.5934300000000  0.4761790000000  0.5422590000000 1.0
C      1  0.5333170000000  0.4993510000000  0.4015420000000 1.0
C      1  0.5201580000000  0.5092430000000  0.5902180000000 1.0
C      1  0.4867230000000  0.4747710000000  0.4688210000000 1.0
C      1  0.4332540000000  0.5121900000000  0.5436180000000 1.0
C      1  0.5023910000000  0.5656170000000  0.5493860000000 1.0
END
