TITL C-49651-9637-4 17.4792855869765 125000 -1150.35033748709 0 0 164 (C1) n - 1
REM
REM in /rds/project/t2_vol4/rds-t2-cs072/BORA/CARBON/from-Arr/AIRSS/Generating-Clusters/GAP-ML-2020/Only-C1/SD-CG/HFTN-CG
REM
REM
REM
REM
REM
REM ./C.cell (11c1c37f851c82e70ff6c80c92926a4b)
REM AIRSS Version 0.9.1 bugfix July 2018 build 013d7b7c2542+ Fri, 06 Jul 2018 19:26:36 +0100
REM compiler GCC version 9.3.0
REM options -cpp -mtune=generic -march=x86-64 -g -O0
REM seed -1235191011 -125531305 -109142626 -488942101 1897795536 1477291612 1175521333 462876247 -510401077 -1273248752 -803420833 2040398832 1357511910 -1945028119 1701434282 908360065 1292976474 1647017645 -1402711608 99455438 -1703213552 1625126467 1262217580 1914073432 -1438020293 -365321681 -236056360 2016114319 298806551 -1626071032 -32509029 1521339038 1092837987
REM
CELL 1.54180   50.00000   50.00000   50.00000   90.00000   90.00000   90.00000
LATT -1
SFAC C  
C      1  0.5196860000000  0.5912540000000  0.4523920000000 1.0
C      1  0.4607120000000  0.6021780000000  0.4944490000000 1.0
C      1  0.5173170000000  0.5727010000000  0.5650900000000 1.0
C      1  0.4984440000000  0.5408720000000  0.3997470000000 1.0
C      1  0.5168470000000  0.5046730000000  0.5951570000000 1.0
C      1  0.4576470000000  0.4253860000000  0.4376390000000 1.0
C      1  0.4258520000000  0.5490300000000  0.5209620000000 1.0
C      1  0.5364980000000  0.4843070000000  0.5949630000000 1.0
C      1  0.6066170000000  0.4877760000000  0.4954550000000 1.0
C      1  0.4402220000000  0.4751290000000  0.5842390000000 1.0
C      1  0.5357140000000  0.4865480000000  0.4080140000000 1.0
C      1  0.4229920000000  0.4578540000000  0.4470670000000 1.0
C      1  0.5788840000000  0.5457400000000  0.4852930000000 1.0
C      1  0.5103280000000  0.3974360000000  0.5542330000000 1.0
C      1  0.5694100000000  0.4397200000000  0.4538650000000 1.0
C      1  0.5070890000000  0.6102120000000  0.4924860000000 1.0
C      1  0.4866780000000  0.4984190000000  0.5850500000000 1.0
C      1  0.5155020000000  0.4398900000000  0.4725030000000 1.0
C      1  0.4754120000000  0.5563330000000  0.4117630000000 1.0
C      1  0.5735580000000  0.5149800000000  0.5779970000000 1.0
C      1  0.5493340000000  0.4799350000000  0.4579170000000 1.0
C      1  0.4928930000000  0.5859510000000  0.5597870000000 1.0
C      1  0.5571040000000  0.5285620000000  0.5132580000000 1.0
C      1  0.5259320000000  0.3965610000000  0.4899330000000 1.0
C      1  0.4057230000000  0.5390990000000  0.4549160000000 1.0
C      1  0.4324130000000  0.5247000000000  0.4175200000000 1.0
C      1  0.5349730000000  0.5451110000000  0.5246850000000 1.0
C      1  0.4912170000000  0.5603550000000  0.5058460000000 1.0
C      1  0.4235760000000  0.4582150000000  0.5407660000000 1.0
C      1  0.4267870000000  0.4219200000000  0.4779770000000 1.0
C      1  0.4021430000000  0.5450770000000  0.5019670000000 1.0
C      1  0.4699220000000  0.4798900000000  0.4308440000000 1.0
C      1  0.3930290000000  0.5186980000000  0.5084910000000 1.0
C      1  0.5235950000000  0.4678490000000  0.4661090000000 1.0
C      1  0.5488700000000  0.5081540000000  0.4679540000000 1.0
C      1  0.4528720000000  0.4168560000000  0.4849510000000 1.0
C      1  0.5434650000000  0.5825840000000  0.4945400000000 1.0
C      1  0.5404290000000  0.5792210000000  0.4374020000000 1.0
C      1  0.4699800000000  0.5844440000000  0.5173350000000 1.0
C      1  0.5696540000000  0.4264280000000  0.5274230000000 1.0
C      1  0.4311120000000  0.5446900000000  0.5665910000000 1.0
C      1  0.5123640000000  0.4327760000000  0.5218610000000 1.0
C      1  0.4294260000000  0.5738770000000  0.4769990000000 1.0
C      1  0.5859570000000  0.5346320000000  0.5118720000000 1.0
C      1  0.5264780000000  0.4183500000000  0.5444460000000 1.0
C      1  0.4529960000000  0.4856810000000  0.4761990000000 1.0
C      1  0.5924350000000  0.5208530000000  0.5567330000000 1.0
C      1  0.5251660000000  0.5225750000000  0.4589170000000 1.0
C      1  0.4484650000000  0.5677090000000  0.5326840000000 1.0
C      1  0.5926330000000  0.4409410000000  0.5329210000000 1.0
C      1  0.4000960000000  0.4951830000000  0.5569460000000 1.0
C      1  0.6000600000000  0.4633000000000  0.5127040000000 1.0
C      1  0.5115980000000  0.5527090000000  0.5845740000000 1.0
C      1  0.5515070000000  0.4288190000000  0.5488830000000 1.0
C      1  0.4707950000000  0.4889570000000  0.5009480000000 1.0
C      1  0.5374180000000  0.5916870000000  0.5228660000000 1.0
C      1  0.5697190000000  0.4596350000000  0.4989960000000 1.0
C      1  0.4750830000000  0.5744050000000  0.4319580000000 1.0
C      1  0.5164500000000  0.5123790000000  0.5014910000000 1.0
C      1  0.4703070000000  0.4364370000000  0.5015250000000 1.0
C      1  0.5328140000000  0.4760360000000  0.5354280000000 1.0
C      1  0.5228250000000  0.5585850000000  0.5009110000000 1.0
C      1  0.5153310000000  0.5373890000000  0.4813940000000 1.0
C      1  0.5006950000000  0.4866500000000  0.4968120000000 1.0
C      1  0.4836750000000  0.4632100000000  0.5391500000000 1.0
C      1  0.5095110000000  0.4755440000000  0.4104240000000 1.0
C      1  0.4586990000000  0.5024680000000  0.5428950000000 1.0
C      1  0.4528950000000  0.5532450000000  0.4798810000000 1.0
C      1  0.4133910000000  0.4281200000000  0.5029050000000 1.0
C      1  0.4716730000000  0.5695320000000  0.5706930000000 1.0
C      1  0.4101890000000  0.5103420000000  0.4611600000000 1.0
C      1  0.4729300000000  0.4422660000000  0.4186870000000 1.0
C      1  0.4267670000000  0.4691280000000  0.4738850000000 1.0
C      1  0.5415690000000  0.5143730000000  0.4041350000000 1.0
C      1  0.5720150000000  0.4669310000000  0.5701380000000 1.0
C      1  0.4812770000000  0.5172590000000  0.4006720000000 1.0
C      1  0.4394200000000  0.5125990000000  0.4731160000000 1.0
C      1  0.5947970000000  0.4584050000000  0.5559930000000 1.0
C      1  0.5829820000000  0.5425170000000  0.5416280000000 1.0
C      1  0.5586010000000  0.4304420000000  0.4994760000000 1.0
C      1  0.5300010000000  0.4578880000000  0.5854850000000 1.0
C      1  0.4351230000000  0.5991740000000  0.4849830000000 1.0
C      1  0.5603170000000  0.5536810000000  0.5560980000000 1.0
C      1  0.4860670000000  0.5367290000000  0.5237940000000 1.0
C      1  0.5665340000000  0.5196550000000  0.4168940000000 1.0
C      1  0.6050270000000  0.5117740000000  0.5122320000000 1.0
C      1  0.4903840000000  0.5820130000000  0.4559930000000 1.0
C      1  0.4800700000000  0.5313780000000  0.4548180000000 1.0
C      1  0.5626510000000  0.4186480000000  0.4710850000000 1.0
C      1  0.4644180000000  0.4649610000000  0.5164520000000 1.0
C      1  0.5436160000000  0.5565280000000  0.4197300000000 1.0
C      1  0.4909190000000  0.4963070000000  0.4203260000000 1.0
C      1  0.5007710000000  0.4847750000000  0.4662280000000 1.0
C      1  0.5115230000000  0.3818340000000  0.5072280000000 1.0
C      1  0.6085060000000  0.4764440000000  0.5389160000000 1.0
C      1  0.5454080000000  0.5056490000000  0.4988210000000 1.0
C      1  0.4837640000000  0.6039840000000  0.4785070000000 1.0
C      1  0.4898760000000  0.5978960000000  0.5347600000000 1.0
C      1  0.5512750000000  0.4804970000000  0.5131510000000 1.0
C      1  0.5544900000000  0.4456820000000  0.4290480000000 1.0
C      1  0.5563800000000  0.4756930000000  0.4260890000000 1.0
C      1  0.5970600000000  0.4843110000000  0.4690970000000 1.0
C      1  0.4435130000000  0.5706700000000  0.5625300000000 1.0
C      1  0.5639950000000  0.5710000000000  0.4516570000000 1.0
C      1  0.5274650000000  0.4259550000000  0.4977460000000 1.0
C      1  0.5282220000000  0.4334540000000  0.4256100000000 1.0
C      1  0.5640490000000  0.4894010000000  0.5857860000000 1.0
C      1  0.4666100000000  0.4741870000000  0.5918460000000 1.0
C      1  0.4651770000000  0.5155300000000  0.5158610000000 1.0
C      1  0.4970110000000  0.3910700000000  0.5285660000000 1.0
C      1  0.4696030000000  0.4187660000000  0.4617580000000 1.0
C      1  0.5662180000000  0.5703420000000  0.4797640000000 1.0
C      1  0.5265340000000  0.5392250000000  0.4037030000000 1.0
C      1  0.5148030000000  0.4997870000000  0.5442780000000 1.0
C      1  0.5286300000000  0.6011330000000  0.4772500000000 1.0
C      1  0.6071840000000  0.5039480000000  0.5393890000000 1.0
C      1  0.4049320000000  0.4734560000000  0.4923290000000 1.0
C      1  0.4859750000000  0.5537380000000  0.4748190000000 1.0
C      1  0.4575110000000  0.5323270000000  0.4061390000000 1.0
C      1  0.4691460000000  0.4325370000000  0.5469950000000 1.0
C      1  0.4281940000000  0.5433530000000  0.4378010000000 1.0
C      1  0.3986920000000  0.5152170000000  0.5381710000000 1.0
C      1  0.5082210000000  0.4407830000000  0.5901490000000 1.0
C      1  0.4688320000000  0.5466180000000  0.5452180000000 1.0
C      1  0.5404120000000  0.4012390000000  0.4644010000000 1.0
C      1  0.5678080000000  0.5444210000000  0.4350340000000 1.0
C      1  0.4073930000000  0.4544280000000  0.5134530000000 1.0
C      1  0.4446350000000  0.5307360000000  0.4999010000000 1.0
C      1  0.4760520000000  0.4263610000000  0.5745680000000 1.0
C      1  0.4860110000000  0.4906530000000  0.5532290000000 1.0
C      1  0.5753750000000  0.5274100000000  0.4611990000000 1.0
C      1  0.4801130000000  0.4481730000000  0.5928860000000 1.0
C      1  0.4439650000000  0.4775980000000  0.5327970000000 1.0
C      1  0.5089600000000  0.4626100000000  0.5224640000000 1.0
C      1  0.5462920000000  0.4558710000000  0.5604280000000 1.0
C      1  0.4512980000000  0.5340590000000  0.4562630000000 1.0
C      1  0.4846370000000  0.4423050000000  0.4739370000000 1.0
C      1  0.4219450000000  0.5008430000000  0.4299880000000 1.0
C      1  0.5032110000000  0.4170510000000  0.5731860000000 1.0
C      1  0.4058150000000  0.5562700000000  0.4767570000000 1.0
C      1  0.5128550000000  0.5240920000000  0.5286780000000 1.0
C      1  0.4554110000000  0.4639890000000  0.4129670000000 1.0
C      1  0.5244180000000  0.4192930000000  0.4497600000000 1.0
C      1  0.4311480000000  0.4313740000000  0.4494540000000 1.0
C      1  0.4848160000000  0.4205930000000  0.5238600000000 1.0
C      1  0.5387550000000  0.5699870000000  0.5447390000000 1.0
C      1  0.4542550000000  0.5257800000000  0.5626400000000 1.0
C      1  0.5919720000000  0.5045120000000  0.4505380000000 1.0
C      1  0.5033440000000  0.4479820000000  0.4161970000000 1.0
C      1  0.5542720000000  0.5357740000000  0.5780800000000 1.0
C      1  0.4385050000000  0.4316940000000  0.5421860000000 1.0
C      1  0.4302170000000  0.4739960000000  0.4249280000000 1.0
C      1  0.5284510000000  0.5310170000000  0.5900310000000 1.0
C      1  0.4146420000000  0.5378940000000  0.5449710000000 1.0
C      1  0.4261540000000  0.4157040000000  0.5244680000000 1.0
C      1  0.5128370000000  0.6057660000000  0.5202020000000 1.0
C      1  0.4726820000000  0.5239340000000  0.5852010000000 1.0
C      1  0.5741170000000  0.4652400000000  0.4692300000000 1.0
C      1  0.3957510000000  0.4996750000000  0.4872640000000 1.0
C      1  0.4837950000000  0.5495870000000  0.5879860000000 1.0
C      1  0.4746990000000  0.4716860000000  0.4599010000000 1.0
C      1  0.4177060000000  0.4751470000000  0.5660800000000 1.0
C      1  0.5785930000000  0.4963910000000  0.4265050000000 1.0
C      1  0.5005430000000  0.5101810000000  0.4490580000000 1.0
END
