TITL C-49632-9671-5 -157.251244021203 125000 -388.826374726608 0 0 57 (C1) n - 1
REM
REM in /rds/project/t2_vol4/rds-t2-cs072/BORA/CARBON/from-Arr/AIRSS/Generating-Clusters/GAP-ML-2020/Only-C1/SD-CG/HFTN-CG
REM
REM
REM
REM
REM
REM ./C.cell (11c1c37f851c82e70ff6c80c92926a4b)
REM AIRSS Version 0.9.1 bugfix July 2018 build 013d7b7c2542+ Fri, 06 Jul 2018 19:26:36 +0100
REM compiler GCC version 9.3.0
REM options -cpp -mtune=generic -march=x86-64 -g -O0
REM seed 1212310257 -1882640912 -1087415073 -866059020 1395610076 266078910 -1278728428 1125635044 185485007 -1466632904 109074719 -1685086034 450607328 -425984731 -1787525974 1953887341 -2054696752 1991237035 1249401544 -1124551237 1604172529 229504957 1529930295 1028715846 1479969173 338015194 -1962458854 1918529555 -611042983 -117983010 1799796924 -1702889452 1020015974
REM
CELL 1.54180   50.00000   50.00000   50.00000   90.00000   90.00000   90.00000
LATT -1
SFAC C  
C      1  0.4346230000000  0.5178680000000  0.4808710000000 1.0
C      1  0.4494250000000  0.4662810000000  0.5074460000000 1.0
C      1  0.4571170000000  0.4642070000000  0.4539210000000 1.0
C      1  0.5153160000000  0.4618510000000  0.5382190000000 1.0
C      1  0.4937610000000  0.5400910000000  0.5711110000000 1.0
C      1  0.5463580000000  0.5491880000000  0.5212020000000 1.0
C      1  0.4803240000000  0.4480360000000  0.4461130000000 1.0
C      1  0.4541180000000  0.5371870000000  0.5267220000000 1.0
C      1  0.4603900000000  0.4904620000000  0.4409970000000 1.0
C      1  0.5164620000000  0.4463150000000  0.5141260000000 1.0
C      1  0.4976430000000  0.5000340000000  0.4864030000000 1.0
C      1  0.5185660000000  0.5671580000000  0.4567230000000 1.0
C      1  0.4862250000000  0.4635540000000  0.5438900000000 1.0
C      1  0.5244120000000  0.4537230000000  0.4853370000000 1.0
C      1  0.4959970000000  0.5590470000000  0.5018310000000 1.0
C      1  0.5264190000000  0.5577100000000  0.5023230000000 1.0
C      1  0.4887950000000  0.5510080000000  0.4740990000000 1.0
C      1  0.4972970000000  0.5441420000000  0.5431440000000 1.0
C      1  0.5558970000000  0.4730100000000  0.4506070000000 1.0
C      1  0.4907150000000  0.4260190000000  0.4591640000000 1.0
C      1  0.5358720000000  0.5541600000000  0.4742760000000 1.0
C      1  0.4836890000000  0.5009100000000  0.5792490000000 1.0
C      1  0.5668810000000  0.5317120000000  0.5101730000000 1.0
C      1  0.5467490000000  0.5301800000000  0.5461210000000 1.0
C      1  0.5148740000000  0.4278750000000  0.4720830000000 1.0
C      1  0.5088100000000  0.5188800000000  0.5329300000000 1.0
C      1  0.5027510000000  0.5025910000000  0.5121710000000 1.0
C      1  0.5588570000000  0.4873790000000  0.4963970000000 1.0
C      1  0.4708980000000  0.4513700000000  0.5222720000000 1.0
C      1  0.4907000000000  0.4343610000000  0.5099760000000 1.0
C      1  0.4784830000000  0.5545100000000  0.5238120000000 1.0
C      1  0.4880760000000  0.4936140000000  0.4346300000000 1.0
C      1  0.4508460000000  0.4953830000000  0.5473200000000 1.0
C      1  0.5091160000000  0.5144960000000  0.5777100000000 1.0
C      1  0.4523810000000  0.5232590000000  0.5521480000000 1.0
C      1  0.5053810000000  0.5148180000000  0.4423440000000 1.0
C      1  0.4726820000000  0.4819720000000  0.5605080000000 1.0
C      1  0.5573130000000  0.4880830000000  0.5258190000000 1.0
C      1  0.5262330000000  0.5085580000000  0.5548540000000 1.0
C      1  0.4925080000000  0.4186770000000  0.4862600000000 1.0
C      1  0.4410690000000  0.5081690000000  0.4538880000000 1.0
C      1  0.4423610000000  0.4909220000000  0.5209550000000 1.0
C      1  0.5352700000000  0.4813170000000  0.5437060000000 1.0
C      1  0.5508540000000  0.4667700000000  0.4779870000000 1.0
C      1  0.4408980000000  0.5178980000000  0.5085100000000 1.0
C      1  0.5340570000000  0.5137550000000  0.4436650000000 1.0
C      1  0.5669460000000  0.5143770000000  0.5329910000000 1.0
C      1  0.4427000000000  0.4677790000000  0.4788420000000 1.0
C      1  0.4935350000000  0.5234000000000  0.4676740000000 1.0
C      1  0.4693450000000  0.5266010000000  0.5746630000000 1.0
C      1  0.4933870000000  0.5686730000000  0.4510310000000 1.0
C      1  0.5502320000000  0.4911590000000  0.4333620000000 1.0
C      1  0.4276610000000  0.4918710000000  0.4725200000000 1.0
C      1  0.5461360000000  0.5286940000000  0.4662290000000 1.0
C      1  0.5036210000000  0.4733550000000  0.4746600000000 1.0
C      1  0.5599560000000  0.5155250000000  0.4876890000000 1.0
C      1  0.4990100000000  0.4700530000000  0.4463270000000 1.0
END
