TITL C-49651-9637-8 144.453692292352 125000 -236.12280482222 0 0 36 (C1) n - 1
REM
REM in /rds/project/t2_vol4/rds-t2-cs072/BORA/CARBON/from-Arr/AIRSS/Generating-Clusters/GAP-ML-2020/Only-C1/SD-CG/HFTN-CG
REM
REM
REM
REM
REM
REM ./C.cell (11c1c37f851c82e70ff6c80c92926a4b)
REM AIRSS Version 0.9.1 bugfix July 2018 build 013d7b7c2542+ Fri, 06 Jul 2018 19:26:36 +0100
REM compiler GCC version 9.3.0
REM options -cpp -mtune=generic -march=x86-64 -g -O0
REM seed 1826160739 -722834196 18276602 479902654 -465970866 -1141364563 758809148 1383789721 -694026227 1719886507 1639072061 838009880 1451824499 -300448774 621558236 -290496596 -1519072417 661463691 1749082863 -1002040200 1129046476 -799248659 -1990211991 -1451309747 -1131307658 688536701 -1338915149 101215555 991075873 1873549323 92520648 407188504 -245084713
REM
CELL 1.54180   50.00000   50.00000   50.00000   90.00000   90.00000   90.00000
LATT -1
SFAC C  
C      1  0.4976320000000  0.4971430000000  0.5214890000000 1.0
C      1  0.5247530000000  0.4615580000000  0.4659500000000 1.0
C      1  0.5089860000000  0.4472200000000  0.5123330000000 1.0
C      1  0.4477690000000  0.5370680000000  0.5194920000000 1.0
C      1  0.4894140000000  0.4506800000000  0.5341140000000 1.0
C      1  0.5049500000000  0.4886540000000  0.5657800000000 1.0
C      1  0.4640020000000  0.4851860000000  0.4511570000000 1.0
C      1  0.5097500000000  0.4736790000000  0.4434820000000 1.0
C      1  0.5089520000000  0.5399250000000  0.4801090000000 1.0
C      1  0.5604170000000  0.5436430000000  0.4884780000000 1.0
C      1  0.5555610000000  0.5204250000000  0.5037130000000 1.0
C      1  0.5195860000000  0.5311040000000  0.5365920000000 1.0
C      1  0.4972070000000  0.5146410000000  0.4701830000000 1.0
C      1  0.5407990000000  0.5163920000000  0.5280380000000 1.0
C      1  0.4812910000000  0.5077230000000  0.4971640000000 1.0
C      1  0.4908670000000  0.5495550000000  0.5004690000000 1.0
C      1  0.4511400000000  0.5380040000000  0.5452670000000 1.0
C      1  0.4604340000000  0.4685610000000  0.4750960000000 1.0
C      1  0.5066190000000  0.4468740000000  0.4832790000000 1.0
C      1  0.4662350000000  0.4822860000000  0.4978270000000 1.0
C      1  0.5356480000000  0.5446760000000  0.4797030000000 1.0
C      1  0.5386980000000  0.4866300000000  0.4713090000000 1.0
C      1  0.4809170000000  0.4494820000000  0.4683780000000 1.0
C      1  0.5275860000000  0.4619130000000  0.5304010000000 1.0
C      1  0.5294830000000  0.4886610000000  0.5193890000000 1.0
C      1  0.5169940000000  0.4985070000000  0.4561740000000 1.0
C      1  0.5091390000000  0.4652830000000  0.5531770000000 1.0
C      1  0.4645160000000  0.5356370000000  0.4961800000000 1.0
C      1  0.4795470000000  0.4725160000000  0.5206010000000 1.0
C      1  0.4985780000000  0.5481880000000  0.5276660000000 1.0
C      1  0.4546090000000  0.5304940000000  0.4691000000000 1.0
C      1  0.5477580000000  0.4938600000000  0.4958560000000 1.0
C      1  0.4836930000000  0.4655280000000  0.4427390000000 1.0
C      1  0.4782440000000  0.5338280000000  0.5450220000000 1.0
C      1  0.4982590000000  0.5114240000000  0.5487970000000 1.0
C      1  0.4699680000000  0.5130510000000  0.4554920000000 1.0
END
