TITL C-49646-9559-3 -396.030934954197 125000 -571.165330684154 0 0 83 (C1) n - 1
REM
REM in /rds/project/t2_vol4/rds-t2-cs072/BORA/CARBON/from-Arr/AIRSS/Generating-Clusters/GAP-ML-2020/Only-C1/SD-CG/HFTN-CG
REM
REM
REM
REM
REM
REM ./C.cell (11c1c37f851c82e70ff6c80c92926a4b)
REM AIRSS Version 0.9.1 bugfix July 2018 build 013d7b7c2542+ Fri, 06 Jul 2018 19:26:36 +0100
REM compiler GCC version 9.3.0
REM options -cpp -mtune=generic -march=x86-64 -g -O0
REM seed 910502568 -1488420025 1363846152 -1634680306 -648240194 1387499157 -1623254463 819391188 436262525 -1152912362 844874587 -2047029484 421066906 -1507943353 -378173316 -1382072863 -898823130 907904354 -1696196747 -1310587948 1376903533 -685234712 1765597177 -1465964177 -35463433 -2107183882 1268278304 395559422 -362899965 143020597 1850441790 1734574520 -1863931350
REM
CELL 1.54180   50.00000   50.00000   50.00000   90.00000   90.00000   90.00000
LATT -1
SFAC C  
C      1  0.4762190000000  0.5671190000000  0.5228780000000 1.0
C      1  0.5068780000000  0.4968400000000  0.4678400000000 1.0
C      1  0.5680140000000  0.4715440000000  0.5128760000000 1.0
C      1  0.5373570000000  0.5441610000000  0.4444380000000 1.0
C      1  0.5376840000000  0.4481340000000  0.5408480000000 1.0
C      1  0.4891340000000  0.4217370000000  0.5256040000000 1.0
C      1  0.4607110000000  0.5667950000000  0.4708460000000 1.0
C      1  0.5314620000000  0.5673040000000  0.4609870000000 1.0
C      1  0.5117490000000  0.5355360000000  0.4339340000000 1.0
C      1  0.4232950000000  0.5324420000000  0.4829300000000 1.0
C      1  0.5561700000000  0.4972010000000  0.4456970000000 1.0
C      1  0.4672100000000  0.4799250000000  0.4484760000000 1.0
C      1  0.5027640000000  0.4315240000000  0.4562290000000 1.0
C      1  0.5144220000000  0.5176840000000  0.4864240000000 1.0
C      1  0.4145390000000  0.5084540000000  0.4952220000000 1.0
C      1  0.4928450000000  0.5336280000000  0.4899820000000 1.0
C      1  0.4793040000000  0.4850440000000  0.4778120000000 1.0
C      1  0.4765740000000  0.4268070000000  0.4676530000000 1.0
C      1  0.5206900000000  0.4522200000000  0.4511400000000 1.0
C      1  0.4407220000000  0.4745190000000  0.5266770000000 1.0
C      1  0.5549360000000  0.5019820000000  0.5467390000000 1.0
C      1  0.4858320000000  0.5805700000000  0.4784540000000 1.0
C      1  0.5678170000000  0.4533830000000  0.4737360000000 1.0
C      1  0.5559400000000  0.4828370000000  0.4726680000000 1.0
C      1  0.4326400000000  0.4820120000000  0.4984840000000 1.0
C      1  0.4396660000000  0.5577700000000  0.4883090000000 1.0
C      1  0.4722020000000  0.4527720000000  0.5547940000000 1.0
C      1  0.5412310000000  0.5682510000000  0.4871980000000 1.0
C      1  0.4567890000000  0.5253620000000  0.4446980000000 1.0
C      1  0.5333950000000  0.4388230000000  0.5126170000000 1.0
C      1  0.4827190000000  0.4771120000000  0.5649410000000 1.0
C      1  0.4937550000000  0.4346780000000  0.5501800000000 1.0
C      1  0.4507430000000  0.4979730000000  0.5386750000000 1.0
C      1  0.5046270000000  0.4929340000000  0.5437600000000 1.0
C      1  0.5578790000000  0.5442100000000  0.5209440000000 1.0
C      1  0.5062110000000  0.5212350000000  0.5330780000000 1.0
C      1  0.4475840000000  0.5625440000000  0.5145000000000 1.0
C      1  0.4715150000000  0.5274130000000  0.5697810000000 1.0
C      1  0.5175260000000  0.4470640000000  0.5597870000000 1.0
C      1  0.5514870000000  0.4743690000000  0.5358910000000 1.0
C      1  0.4415270000000  0.5406500000000  0.5323770000000 1.0
C      1  0.4653830000000  0.5003650000000  0.5635520000000 1.0
C      1  0.5676930000000  0.4993200000000  0.4955360000000 1.0
C      1  0.5259070000000  0.5108330000000  0.5122930000000 1.0
C      1  0.5016440000000  0.5090960000000  0.4392980000000 1.0
C      1  0.4442340000000  0.4140790000000  0.5014150000000 1.0
C      1  0.4419460000000  0.5166720000000  0.4673490000000 1.0
C      1  0.5216090000000  0.5394290000000  0.5527400000000 1.0
C      1  0.5682340000000  0.5267680000000  0.4784380000000 1.0
C      1  0.4930440000000  0.5563690000000  0.4390280000000 1.0
C      1  0.5671210000000  0.4416050000000  0.4495280000000 1.0
C      1  0.4769980000000  0.5638030000000  0.5515940000000 1.0
C      1  0.5154510000000  0.4644550000000  0.5007910000000 1.0
C      1  0.5043080000000  0.5748340000000  0.4575860000000 1.0
C      1  0.4956280000000  0.5798810000000  0.5054510000000 1.0
C      1  0.4952500000000  0.5457010000000  0.5652090000000 1.0
C      1  0.4833230000000  0.5325600000000  0.5169420000000 1.0
C      1  0.4576440000000  0.5172640000000  0.5178240000000 1.0
C      1  0.4368210000000  0.4592140000000  0.4772240000000 1.0
C      1  0.4431960000000  0.4690800000000  0.4523600000000 1.0
C      1  0.5249470000000  0.4734450000000  0.4726920000000 1.0
C      1  0.4740170000000  0.5046200000000  0.4358780000000 1.0
C      1  0.5109460000000  0.4708550000000  0.5757900000000 1.0
C      1  0.4560150000000  0.5017100000000  0.4898340000000 1.0
C      1  0.4521880000000  0.4501510000000  0.5354280000000 1.0
C      1  0.5217930000000  0.4955880000000  0.5693030000000 1.0
C      1  0.5390670000000  0.5166370000000  0.5645000000000 1.0
C      1  0.5501960000000  0.4793730000000  0.4260230000000 1.0
C      1  0.5217970000000  0.4832320000000  0.5215930000000 1.0
C      1  0.5564290000000  0.5152970000000  0.5205760000000 1.0
C      1  0.5347320000000  0.5574460000000  0.5320450000000 1.0
C      1  0.5618730000000  0.5498960000000  0.4936630000000 1.0
C      1  0.4869990000000  0.4641090000000  0.4968660000000 1.0
C      1  0.4548760000000  0.5460750000000  0.5564820000000 1.0
C      1  0.5454200000000  0.4536370000000  0.4358450000000 1.0
C      1  0.4992120000000  0.4177380000000  0.4809080000000 1.0
C      1  0.4604000000000  0.4268390000000  0.5195650000000 1.0
C      1  0.5232930000000  0.5723990000000  0.5101190000000 1.0
C      1  0.5576300000000  0.5251570000000  0.4520090000000 1.0
C      1  0.4512710000000  0.4338210000000  0.4819050000000 1.0
C      1  0.5606180000000  0.4473390000000  0.5006820000000 1.0
C      1  0.4665310000000  0.5515490000000  0.4471830000000 1.0
C      1  0.5105560000000  0.4191940000000  0.5068500000000 1.0
END
