TITL C-49640-9538-2 -83.7406806261346 125000 -167.922610647231 0 0 26 (C1) n - 1
REM
REM in /rds/project/t2_vol4/rds-t2-cs072/BORA/CARBON/from-Arr/AIRSS/Generating-Clusters/GAP-ML-2020/Only-C1/SD-CG/HFTN-CG
REM
REM
REM
REM
REM
REM ./C.cell (11c1c37f851c82e70ff6c80c92926a4b)
REM AIRSS Version 0.9.1 bugfix July 2018 build 013d7b7c2542+ Fri, 06 Jul 2018 19:26:36 +0100
REM compiler GCC version 9.3.0
REM options -cpp -mtune=generic -march=x86-64 -g -O0
REM seed -1067159184 -1185308818 844591724 -193413208 -1907298264 1096504236 1686805409 -1384092716 1110027151 1022463513 -888177516 395679245 -16254951 -2014991768 997029410 -711444627 1550404260 -2059295677 -362580895 1304263696 -216807807 -1866181627 -1509579318 -518545069 -325507174 -365576395 -1161510515 306678845 1476132337 562360982 -1187242983 1380027017 694914657
REM
CELL 1.54180   50.00000   50.00000   50.00000   90.00000   90.00000   90.00000
LATT -1
SFAC C  
C      1  0.4809420000000  0.4147920000000  0.5026400000000 1.0
C      1  0.4862880000000  0.4916650000000  0.4750470000000 1.0
C      1  0.5365680000000  0.5224860000000  0.5278030000000 1.0
C      1  0.5124200000000  0.5015990000000  0.5084510000000 1.0
C      1  0.4769660000000  0.4971840000000  0.4498020000000 1.0
C      1  0.4932800000000  0.5485450000000  0.4690290000000 1.0
C      1  0.5494610000000  0.5101510000000  0.4833300000000 1.0
C      1  0.5319350000000  0.5294660000000  0.4981740000000 1.0
C      1  0.5540280000000  0.4887850000000  0.4997980000000 1.0
C      1  0.5080790000000  0.5374830000000  0.4870830000000 1.0
C      1  0.4940200000000  0.4368190000000  0.5039150000000 1.0
C      1  0.5409130000000  0.4926810000000  0.5254670000000 1.0
C      1  0.5084380000000  0.4594780000000  0.5061890000000 1.0
C      1  0.4691730000000  0.4999030000000  0.4976130000000 1.0
C      1  0.4246040000000  0.5091950000000  0.4759540000000 1.0
C      1  0.4952040000000  0.4865420000000  0.5441340000000 1.0
C      1  0.5006230000000  0.5095930000000  0.5600620000000 1.0
C      1  0.5109110000000  0.4798250000000  0.4848310000000 1.0
C      1  0.4737730000000  0.5439740000000  0.4515900000000 1.0
C      1  0.5384260000000  0.4857660000000  0.4766780000000 1.0
C      1  0.4425150000000  0.5019760000000  0.4920830000000 1.0
C      1  0.5182540000000  0.4733110000000  0.5316310000000 1.0
C      1  0.4836660000000  0.5036800000000  0.5216120000000 1.0
C      1  0.5152940000000  0.5283060000000  0.5447040000000 1.0
C      1  0.4656870000000  0.5199280000000  0.4435200000000 1.0
C      1  0.4885300000000  0.5268670000000  0.5388620000000 1.0
END
