TITL C-49655-9625-3 -0.0643079624648969 125000 -325.692945762817 0 0 48 (C1) n - 1
REM
REM in /rds/project/t2_vol4/rds-t2-cs072/BORA/CARBON/from-Arr/AIRSS/Generating-Clusters/GAP-ML-2020/Only-C1/SD-CG/HFTN-CG
REM
REM
REM
REM
REM
REM ./C.cell (11c1c37f851c82e70ff6c80c92926a4b)
REM AIRSS Version 0.9.1 bugfix July 2018 build 013d7b7c2542+ Fri, 06 Jul 2018 19:26:36 +0100
REM compiler GCC version 9.3.0
REM options -cpp -mtune=generic -march=x86-64 -g -O0
REM seed -458838391 -1340837973 1386435243 1688041898 -326593901 893141247 1435962680 -1326382773 1698811373 -52340058 -838072163 646343829 -1546165345 2123054997 796051124 -1683758071 405286424 -219105286 -594775717 1123530917 2035860340 -1081432242 -380463386 -1812051122 1780379556 -1857530329 -298097826 -1771995640 1943414100 1908483137 2030394323 537202943 206284051
REM
CELL 1.54180   50.00000   50.00000   50.00000   90.00000   90.00000   90.00000
LATT -1
SFAC C  
C      1  0.5048250000000  0.4448060000000  0.5154300000000 1.0
C      1  0.5146330000000  0.5162240000000  0.4413030000000 1.0
C      1  0.5056560000000  0.4250590000000  0.4742680000000 1.0
C      1  0.5065590000000  0.5126460000000  0.4904260000000 1.0
C      1  0.4525350000000  0.5181060000000  0.4752000000000 1.0
C      1  0.4735500000000  0.4819980000000  0.4675910000000 1.0
C      1  0.4528310000000  0.4781500000000  0.5352860000000 1.0
C      1  0.4631060000000  0.5439160000000  0.4827530000000 1.0
C      1  0.4896300000000  0.5273860000000  0.4473960000000 1.0
C      1  0.4944440000000  0.5566260000000  0.5499000000000 1.0
C      1  0.5394820000000  0.4759050000000  0.5406570000000 1.0
C      1  0.4703390000000  0.5085730000000  0.4541560000000 1.0
C      1  0.4942280000000  0.4224940000000  0.5008470000000 1.0
C      1  0.5323000000000  0.5558960000000  0.4906590000000 1.0
C      1  0.4710140000000  0.5455860000000  0.5342550000000 1.0
C      1  0.5232310000000  0.4477970000000  0.4719830000000 1.0
C      1  0.4736040000000  0.4936210000000  0.5469000000000 1.0
C      1  0.4667980000000  0.4297680000000  0.4917700000000 1.0
C      1  0.4983750000000  0.4865400000000  0.4885540000000 1.0
C      1  0.4791970000000  0.4329110000000  0.4643710000000 1.0
C      1  0.5333700000000  0.5533910000000  0.5191590000000 1.0
C      1  0.4833880000000  0.4590360000000  0.4536490000000 1.0
C      1  0.4964780000000  0.4768620000000  0.5526690000000 1.0
C      1  0.5422780000000  0.4782710000000  0.5141120000000 1.0
C      1  0.4867070000000  0.5494630000000  0.4657040000000 1.0
C      1  0.4494020000000  0.4905960000000  0.4848880000000 1.0
C      1  0.5130230000000  0.4642170000000  0.4499000000000 1.0
C      1  0.5369980000000  0.5282720000000  0.4528070000000 1.0
C      1  0.5067670000000  0.5143700000000  0.5171160000000 1.0
C      1  0.5242140000000  0.4890850000000  0.4463210000000 1.0
C      1  0.5370170000000  0.5252570000000  0.5284010000000 1.0
C      1  0.4928440000000  0.5719360000000  0.5058720000000 1.0
C      1  0.4621610000000  0.4505240000000  0.5347950000000 1.0
C      1  0.5470130000000  0.5003740000000  0.4611540000000 1.0
C      1  0.5520070000000  0.5054250000000  0.5112010000000 1.0
C      1  0.5028640000000  0.5312870000000  0.5591570000000 1.0
C      1  0.5194650000000  0.4647190000000  0.4977010000000 1.0
C      1  0.4836170000000  0.5186160000000  0.5368590000000 1.0
C      1  0.5221250000000  0.4897070000000  0.5554610000000 1.0
C      1  0.4680230000000  0.5571700000000  0.5083650000000 1.0
C      1  0.5483130000000  0.5397300000000  0.4754050000000 1.0
C      1  0.5102800000000  0.5670620000000  0.5292120000000 1.0
C      1  0.4516140000000  0.4467000000000  0.5077590000000 1.0
C      1  0.5060030000000  0.5640040000000  0.4817280000000 1.0
C      1  0.4424930000000  0.4760680000000  0.5077750000000 1.0
C      1  0.4907410000000  0.4525980000000  0.5384450000000 1.0
C      1  0.5572510000000  0.5130350000000  0.4852130000000 1.0
C      1  0.5272050000000  0.5182140000000  0.5554680000000 1.0
END
