TITL C-49633-9572-4 164.459857923679 125000 -254.415434709732 0 0 38 (C1) n - 1
REM
REM in /rds/project/t2_vol4/rds-t2-cs072/BORA/CARBON/from-Arr/AIRSS/Generating-Clusters/GAP-ML-2020/Only-C1/SD-CG/HFTN-CG
REM
REM
REM
REM
REM
REM ./C.cell (11c1c37f851c82e70ff6c80c92926a4b)
REM AIRSS Version 0.9.1 bugfix July 2018 build 013d7b7c2542+ Fri, 06 Jul 2018 19:26:36 +0100
REM compiler GCC version 9.3.0
REM options -cpp -mtune=generic -march=x86-64 -g -O0
REM seed -1312494789 -917823086 -120918994 1476929394 1281997258 -149466319 1927220323 -333981931 1866203757 1248951692 1023737177 -667660917 -1405651101 1811148922 2106948294 -1969584329 1586378218 217349368 495403677 1718518197 880828929 -1026117944 -1803167055 -1592598290 -852245598 1330911484 -1608919309 1623241907 677731784 1663615193 -777050945 1389695416 323078296
REM
CELL 1.54180   50.00000   50.00000   50.00000   90.00000   90.00000   90.00000
LATT -1
SFAC C  
C      1  0.5261160000000  0.5318220000000  0.5315540000000 1.0
C      1  0.5126360000000  0.4647000000000  0.4743170000000 1.0
C      1  0.4859620000000  0.5422970000000  0.5103090000000 1.0
C      1  0.4337550000000  0.5144220000000  0.4899330000000 1.0
C      1  0.4487120000000  0.4684380000000  0.4841910000000 1.0
C      1  0.5086170000000  0.5355720000000  0.4612100000000 1.0
C      1  0.4420040000000  0.5320790000000  0.5102660000000 1.0
C      1  0.5092590000000  0.4925290000000  0.5499860000000 1.0
C      1  0.5191050000000  0.4924830000000  0.4672930000000 1.0
C      1  0.4911940000000  0.4718590000000  0.5408070000000 1.0
C      1  0.5350890000000  0.4495160000000  0.4783910000000 1.0
C      1  0.5480270000000  0.4641640000000  0.4984740000000 1.0
C      1  0.5518070000000  0.5303680000000  0.4814680000000 1.0
C      1  0.4533380000000  0.5174160000000  0.5323250000000 1.0
C      1  0.4997630000000  0.5106560000000  0.4558480000000 1.0
C      1  0.5482470000000  0.4960580000000  0.4630460000000 1.0
C      1  0.4467390000000  0.4896090000000  0.5269650000000 1.0
C      1  0.4844920000000  0.4957570000000  0.4956720000000 1.0
C      1  0.5599260000000  0.5195280000000  0.4573400000000 1.0
C      1  0.4734840000000  0.5028110000000  0.4651190000000 1.0
C      1  0.5580300000000  0.5118750000000  0.5033940000000 1.0
C      1  0.4647820000000  0.4684940000000  0.5300320000000 1.0
C      1  0.4363260000000  0.4883210000000  0.4997400000000 1.0
C      1  0.4795790000000  0.5278910000000  0.5350540000000 1.0
C      1  0.4596500000000  0.4776590000000  0.4600480000000 1.0
C      1  0.5275230000000  0.5438280000000  0.4812410000000 1.0
C      1  0.5359770000000  0.4651260000000  0.5240080000000 1.0
C      1  0.4634270000000  0.5425980000000  0.4936400000000 1.0
C      1  0.4935090000000  0.4634180000000  0.4961110000000 1.0
C      1  0.5596640000000  0.4874410000000  0.4897690000000 1.0
C      1  0.5474780000000  0.5132270000000  0.5292440000000 1.0
C      1  0.5128810000000  0.5034500000000  0.4962500000000 1.0
C      1  0.5135130000000  0.5365500000000  0.5051230000000 1.0
C      1  0.5039630000000  0.5198520000000  0.5464130000000 1.0
C      1  0.4545330000000  0.5243190000000  0.4720150000000 1.0
C      1  0.5078270000000  0.4596300000000  0.5217120000000 1.0
C      1  0.4665030000000  0.4554570000000  0.5025460000000 1.0
C      1  0.5365640000000  0.4887800000000  0.5391450000000 1.0
END
