TITL C-49629-9549-3 0.00338001489431767 125000 -247.233157352036 0 0 37 (C1) n - 1
REM
REM in /rds/project/t2_vol4/rds-t2-cs072/BORA/CARBON/from-Arr/AIRSS/Generating-Clusters/GAP-ML-2020/Only-C1/SD-CG/HFTN-CG
REM
REM
REM
REM
REM
REM ./C.cell (11c1c37f851c82e70ff6c80c92926a4b)
REM AIRSS Version 0.9.1 bugfix July 2018 build 013d7b7c2542+ Fri, 06 Jul 2018 19:26:36 +0100
REM compiler GCC version 9.3.0
REM options -cpp -mtune=generic -march=x86-64 -g -O0
REM seed -1732482813 -2084140461 -293935706 -727268085 1293005239 -85735436 -1218250742 1797760716 -1399866301 -108861261 1069184951 -588299655 1843387539 736951019 186042565 -1119310465 1653313870 -1079171606 -968983562 191876355 1647732083 -1564845913 545487296 -585173848 -225390429 456768842 977537837 1814725969 1402823206 -2115753808 1577248471 -1807747005 1684979116
REM
CELL 1.54180   50.00000   50.00000   50.00000   90.00000   90.00000   90.00000
LATT -1
SFAC C  
C      1  0.5004630000000  0.5115090000000  0.4368930000000 1.0
C      1  0.5401990000000  0.5163080000000  0.5256590000000 1.0
C      1  0.5460580000000  0.4892520000000  0.5188140000000 1.0
C      1  0.5168590000000  0.4936740000000  0.4519880000000 1.0
C      1  0.5355590000000  0.4445060000000  0.5166010000000 1.0
C      1  0.4355800000000  0.4920320000000  0.5240420000000 1.0
C      1  0.5395250000000  0.4544240000000  0.4888320000000 1.0
C      1  0.5044460000000  0.4672950000000  0.4557210000000 1.0
C      1  0.4948590000000  0.5539980000000  0.5014440000000 1.0
C      1  0.5054050000000  0.5436020000000  0.5498060000000 1.0
C      1  0.5411230000000  0.5352740000000  0.5038130000000 1.0
C      1  0.4341270000000  0.4897400000000  0.4982090000000 1.0
C      1  0.4727700000000  0.5110460000000  0.4898510000000 1.0
C      1  0.4730500000000  0.5054230000000  0.4343540000000 1.0
C      1  0.5459930000000  0.4816820000000  0.4911850000000 1.0
C      1  0.5221300000000  0.5201040000000  0.5476390000000 1.0
C      1  0.5222410000000  0.5561000000000  0.5050100000000 1.0
C      1  0.5368560000000  0.5015040000000  0.4716240000000 1.0
C      1  0.4798280000000  0.5308910000000  0.4426110000000 1.0
C      1  0.4701740000000  0.5485940000000  0.4600070000000 1.0
C      1  0.4600500000000  0.4994480000000  0.5354060000000 1.0
C      1  0.4771730000000  0.5095390000000  0.5560730000000 1.0
C      1  0.5137340000000  0.4291500000000  0.5169910000000 1.0
C      1  0.4615700000000  0.4861520000000  0.4523800000000 1.0
C      1  0.4758080000000  0.5392890000000  0.4861370000000 1.0
C      1  0.4776720000000  0.4643620000000  0.4486880000000 1.0
C      1  0.5050930000000  0.4987830000000  0.5550640000000 1.0
C      1  0.5131030000000  0.4515830000000  0.4774350000000 1.0
C      1  0.5449950000000  0.5268570000000  0.4782960000000 1.0
C      1  0.5369680000000  0.4670460000000  0.5348240000000 1.0
C      1  0.4800580000000  0.4963130000000  0.5143510000000 1.0
C      1  0.5050590000000  0.5588050000000  0.5265680000000 1.0
C      1  0.4926630000000  0.4710780000000  0.5197320000000 1.0
C      1  0.4808260000000  0.5365110000000  0.5608640000000 1.0
C      1  0.4969140000000  0.4476400000000  0.5026180000000 1.0
C      1  0.4512650000000  0.4964780000000  0.4768920000000 1.0
C      1  0.5098040000000  0.4740100000000  0.5435790000000 1.0
END
