TITL C-49637-9497-3 734.769996641036 125000 -947.195809641641 0 0 133 (C1) n - 1
REM
REM in /rds/project/t2_vol4/rds-t2-cs072/BORA/CARBON/from-Arr/AIRSS/Generating-Clusters/GAP-ML-2020/Only-C1/SD-CG/HFTN-CG
REM
REM
REM
REM
REM
REM ./C.cell (11c1c37f851c82e70ff6c80c92926a4b)
REM AIRSS Version 0.9.1 bugfix July 2018 build 013d7b7c2542+ Fri, 06 Jul 2018 19:26:36 +0100
REM compiler GCC version 9.3.0
REM options -cpp -mtune=generic -march=x86-64 -g -O0
REM seed 980675719 -2110624675 1214518025 1371859838 -1773170504 6618771 1795366074 1271136029 779062724 33147212 1417334599 -1207258619 429150195 90238311 -2058515977 -2089368495 40813085 1523765597 -844238327 -885737649 -350955324 -903043356 -108295620 -1746527043 454079102 1313826185 -707962164 1350456860 1962698631 -1326690459 -1909861985 -1666515504 -1670850743
REM
CELL 1.54180   50.00000   50.00000   50.00000   90.00000   90.00000   90.00000
LATT -1
SFAC C  
C      1  0.4801820000000  0.5351140000000  0.5916060000000 1.0
C      1  0.5342630000000  0.5190650000000  0.5973490000000 1.0
C      1  0.5032170000000  0.4125430000000  0.5360170000000 1.0
C      1  0.5389480000000  0.4978230000000  0.4924690000000 1.0
C      1  0.5398470000000  0.4693260000000  0.4925240000000 1.0
C      1  0.5566730000000  0.5649770000000  0.5461900000000 1.0
C      1  0.5199240000000  0.5410670000000  0.4256620000000 1.0
C      1  0.5476500000000  0.5057960000000  0.4647240000000 1.0
C      1  0.4108460000000  0.5328330000000  0.5257170000000 1.0
C      1  0.5188620000000  0.5085330000000  0.4756180000000 1.0
C      1  0.5227440000000  0.5418820000000  0.5024260000000 1.0
C      1  0.4878680000000  0.4661360000000  0.5867200000000 1.0
C      1  0.5088390000000  0.5613250000000  0.5798720000000 1.0
C      1  0.4318950000000  0.5362860000000  0.4356010000000 1.0
C      1  0.4912210000000  0.5850680000000  0.5111770000000 1.0
C      1  0.5612010000000  0.4810740000000  0.5768600000000 1.0
C      1  0.4365400000000  0.4433530000000  0.5175830000000 1.0
C      1  0.4844330000000  0.4755750000000  0.5326710000000 1.0
C      1  0.4267680000000  0.5517510000000  0.4816380000000 1.0
C      1  0.5081460000000  0.4278370000000  0.5605240000000 1.0
C      1  0.5022140000000  0.4938590000000  0.4571060000000 1.0
C      1  0.4116600000000  0.4829770000000  0.5256190000000 1.0
C      1  0.5382920000000  0.4626520000000  0.5821170000000 1.0
C      1  0.5314960000000  0.4137480000000  0.4705190000000 1.0
C      1  0.4300670000000  0.4894290000000  0.4134020000000 1.0
C      1  0.5903070000000  0.4996440000000  0.5056470000000 1.0
C      1  0.5296610000000  0.4844750000000  0.5423610000000 1.0
C      1  0.5844510000000  0.5261000000000  0.5471030000000 1.0
C      1  0.4752310000000  0.4790430000000  0.5044100000000 1.0
C      1  0.5780450000000  0.4784070000000  0.5523820000000 1.0
C      1  0.4369080000000  0.5350690000000  0.5392290000000 1.0
C      1  0.4705960000000  0.4621530000000  0.4172860000000 1.0
C      1  0.4190750000000  0.4633910000000  0.5051940000000 1.0
C      1  0.5545200000000  0.4559350000000  0.4663780000000 1.0
C      1  0.5777770000000  0.5106570000000  0.4359970000000 1.0
C      1  0.5716720000000  0.5783400000000  0.4655100000000 1.0
C      1  0.4991170000000  0.5221880000000  0.5422330000000 1.0
C      1  0.5563770000000  0.5038610000000  0.4158360000000 1.0
C      1  0.5851230000000  0.5240760000000  0.4899700000000 1.0
C      1  0.4175100000000  0.4752160000000  0.4351110000000 1.0
C      1  0.5595280000000  0.5539060000000  0.4581350000000 1.0
C      1  0.5358220000000  0.5722200000000  0.5036370000000 1.0
C      1  0.5035660000000  0.4921030000000  0.4050210000000 1.0
C      1  0.5126900000000  0.5782960000000  0.4618630000000 1.0
C      1  0.5806970000000  0.4693170000000  0.4663350000000 1.0
C      1  0.4842770000000  0.5092360000000  0.6007070000000 1.0
C      1  0.5269560000000  0.4060410000000  0.5205330000000 1.0
C      1  0.5375500000000  0.5181080000000  0.5136340000000 1.0
C      1  0.5349730000000  0.5784570000000  0.5320580000000 1.0
C      1  0.5561650000000  0.4343690000000  0.5471480000000 1.0
C      1  0.5705460000000  0.5256960000000  0.4622170000000 1.0
C      1  0.5756900000000  0.4538080000000  0.5390690000000 1.0
C      1  0.5555150000000  0.5518570000000  0.5718280000000 1.0
C      1  0.4594680000000  0.5037710000000  0.5006400000000 1.0
C      1  0.4548430000000  0.4229010000000  0.5059900000000 1.0
C      1  0.5892920000000  0.4733770000000  0.4937020000000 1.0
C      1  0.5206230000000  0.4006970000000  0.4935160000000 1.0
C      1  0.4861910000000  0.4436510000000  0.5700420000000 1.0
C      1  0.4012470000000  0.4829210000000  0.4582480000000 1.0
C      1  0.4757960000000  0.5002870000000  0.3970060000000 1.0
C      1  0.3912840000000  0.5153920000000  0.4926820000000 1.0
C      1  0.4446590000000  0.4977650000000  0.5729790000000 1.0
C      1  0.5392140000000  0.4643440000000  0.4411470000000 1.0
C      1  0.4557460000000  0.4796180000000  0.4017340000000 1.0
C      1  0.5062180000000  0.5843070000000  0.5366200000000 1.0
C      1  0.3985710000000  0.5071580000000  0.5196720000000 1.0
C      1  0.4682840000000  0.4888240000000  0.5889380000000 1.0
C      1  0.4520720000000  0.5632610000000  0.5350400000000 1.0
C      1  0.5120320000000  0.5840510000000  0.4899170000000 1.0
C      1  0.4991340000000  0.4642910000000  0.4142710000000 1.0
C      1  0.4347940000000  0.5181740000000  0.4131210000000 1.0
C      1  0.5144740000000  0.5373690000000  0.4737780000000 1.0
C      1  0.5792310000000  0.5480930000000  0.5041450000000 1.0
C      1  0.4289050000000  0.5296030000000  0.4634160000000 1.0
C      1  0.4516430000000  0.5561790000000  0.4348460000000 1.0
C      1  0.4801820000000  0.4103890000000  0.5161630000000 1.0
C      1  0.5632230000000  0.5682970000000  0.4902170000000 1.0
C      1  0.4915220000000  0.4657990000000  0.4590520000000 1.0
C      1  0.5122530000000  0.4495580000000  0.4384020000000 1.0
C      1  0.4702020000000  0.5487050000000  0.4143010000000 1.0
C      1  0.5668830000000  0.4279390000000  0.5020470000000 1.0
C      1  0.4931230000000  0.5760390000000  0.5607700000000 1.0
C      1  0.4406210000000  0.5015020000000  0.4757370000000 1.0
C      1  0.5609300000000  0.4757130000000  0.4233430000000 1.0
C      1  0.4580140000000  0.4963510000000  0.4524960000000 1.0
C      1  0.4621310000000  0.5763230000000  0.5100750000000 1.0
C      1  0.5267070000000  0.5111470000000  0.4175820000000 1.0
C      1  0.4804980000000  0.5123990000000  0.4521860000000 1.0
C      1  0.4662660000000  0.5640370000000  0.4593590000000 1.0
C      1  0.5520060000000  0.4180200000000  0.5244920000000 1.0
C      1  0.5095370000000  0.4227550000000  0.4531590000000 1.0
C      1  0.4062580000000  0.5416890000000  0.4987900000000 1.0
C      1  0.4984280000000  0.5375830000000  0.5693330000000 1.0
C      1  0.4640820000000  0.4675530000000  0.4461040000000 1.0
C      1  0.5585690000000  0.5075080000000  0.5866430000000 1.0
C      1  0.4358080000000  0.4573940000000  0.4532260000000 1.0
C      1  0.5354100000000  0.4383240000000  0.5666120000000 1.0
C      1  0.5160240000000  0.4593600000000  0.5024000000000 1.0
C      1  0.4609750000000  0.5245490000000  0.4015940000000 1.0
C      1  0.4579790000000  0.5456440000000  0.5786750000000 1.0
C      1  0.4780710000000  0.5023650000000  0.5433340000000 1.0
C      1  0.5816810000000  0.4510010000000  0.5109770000000 1.0
C      1  0.5146410000000  0.4743350000000  0.5939210000000 1.0
C      1  0.4833220000000  0.5356860000000  0.4699270000000 1.0
C      1  0.4656110000000  0.5669650000000  0.5593300000000 1.0
C      1  0.5264000000000  0.5107250000000  0.5383890000000 1.0
C      1  0.4235940000000  0.4745770000000  0.4769270000000 1.0
C      1  0.5769260000000  0.5495350000000  0.5318720000000 1.0
C      1  0.5827980000000  0.4823440000000  0.4410940000000 1.0
C      1  0.4387490000000  0.4295580000000  0.4577170000000 1.0
C      1  0.4928590000000  0.4011220000000  0.4919020000000 1.0
C      1  0.5553480000000  0.4276850000000  0.4759740000000 1.0
C      1  0.4406730000000  0.5266650000000  0.5685530000000 1.0
C      1  0.4701190000000  0.4534440000000  0.5491230000000 1.0
C      1  0.5716630000000  0.5283260000000  0.5721890000000 1.0
C      1  0.4958110000000  0.5568510000000  0.4231820000000 1.0
C      1  0.4915520000000  0.4636480000000  0.4879380000000 1.0
C      1  0.5325670000000  0.5472670000000  0.5876150000000 1.0
C      1  0.5877320000000  0.5007230000000  0.5351090000000 1.0
C      1  0.4433470000000  0.4560610000000  0.5424940000000 1.0
C      1  0.5302330000000  0.5535870000000  0.4516400000000 1.0
C      1  0.4964750000000  0.5352510000000  0.5159810000000 1.0
C      1  0.4903910000000  0.5750200000000  0.4456810000000 1.0
C      1  0.5123980000000  0.5014470000000  0.6019690000000 1.0
C      1  0.4569820000000  0.4203790000000  0.4757460000000 1.0
C      1  0.4846570000000  0.4127470000000  0.4679020000000 1.0
C      1  0.3838000000000  0.5003710000000  0.4710870000000 1.0
C      1  0.4497070000000  0.5693180000000  0.4844970000000 1.0
C      1  0.5128520000000  0.4689150000000  0.5286770000000 1.0
C      1  0.4780960000000  0.5254890000000  0.4970150000000 1.0
C      1  0.5301110000000  0.4940000000000  0.4434090000000 1.0
C      1  0.4513230000000  0.5079980000000  0.5302410000000 1.0
C      1  0.4340170000000  0.4839860000000  0.5458320000000 1.0
END
