TITL C-49635-9481-3 27.9203123811686 125000 -366.094643057065 0 0 54 (C1) n - 1
REM
REM in /rds/project/t2_vol4/rds-t2-cs072/BORA/CARBON/from-Arr/AIRSS/Generating-Clusters/GAP-ML-2020/Only-C1/SD-CG/HFTN-CG
REM
REM
REM
REM
REM
REM ./C.cell (11c1c37f851c82e70ff6c80c92926a4b)
REM AIRSS Version 0.9.1 bugfix July 2018 build 013d7b7c2542+ Fri, 06 Jul 2018 19:26:36 +0100
REM compiler GCC version 9.3.0
REM options -cpp -mtune=generic -march=x86-64 -g -O0
REM seed 81574549 -1146764718 -491717549 -902033099 -1123096792 -1373831870 -1043486723 2111857027 383816464 2077162512 -1256770248 355106127 936600266 448067920 1368801667 -1731555005 -380565764 673535544 -231261531 333621503 1054036855 -773576186 1933615098 -1768426168 697467342 624665590 -531678385 -383647418 -499167346 -1859537683 45069281 1497873939 1403617266
REM
CELL 1.54180   50.00000   50.00000   50.00000   90.00000   90.00000   90.00000
LATT -1
SFAC C  
C      1  0.5049520000000  0.4897780000000  0.4757660000000 1.0
C      1  0.5049790000000  0.4803570000000  0.5514030000000 1.0
C      1  0.4929660000000  0.5218730000000  0.4985560000000 1.0
C      1  0.5433990000000  0.5001650000000  0.4564790000000 1.0
C      1  0.5212060000000  0.5557150000000  0.5230860000000 1.0
C      1  0.4602360000000  0.4729650000000  0.4783750000000 1.0
C      1  0.4542360000000  0.5298470000000  0.5596160000000 1.0
C      1  0.5113040000000  0.5355300000000  0.4553930000000 1.0
C      1  0.4405360000000  0.5330740000000  0.5129380000000 1.0
C      1  0.4729930000000  0.5626290000000  0.5293700000000 1.0
C      1  0.5516440000000  0.5219850000000  0.4728780000000 1.0
C      1  0.5581060000000  0.4887970000000  0.5286580000000 1.0
C      1  0.5290350000000  0.4337920000000  0.5058800000000 1.0
C      1  0.5032560000000  0.4619800000000  0.4403990000000 1.0
C      1  0.4509100000000  0.5456000000000  0.5377340000000 1.0
C      1  0.5517740000000  0.4492140000000  0.5089250000000 1.0
C      1  0.5725280000000  0.4898560000000  0.5032740000000 1.0
C      1  0.5614320000000  0.5153030000000  0.4977270000000 1.0
C      1  0.4695980000000  0.4942170000000  0.4386140000000 1.0
C      1  0.4789290000000  0.4483010000000  0.4430470000000 1.0
C      1  0.4748570000000  0.4996200000000  0.4797170000000 1.0
C      1  0.4930570000000  0.5020370000000  0.5649790000000 1.0
C      1  0.4681860000000  0.4721700000000  0.5238050000000 1.0
C      1  0.4713320000000  0.5663020000000  0.5016590000000 1.0
C      1  0.5452220000000  0.4730450000000  0.4665240000000 1.0
C      1  0.5221520000000  0.4579930000000  0.5468360000000 1.0
C      1  0.4619580000000  0.5405830000000  0.4644120000000 1.0
C      1  0.4634220000000  0.5044420000000  0.5585680000000 1.0
C      1  0.4978180000000  0.5565420000000  0.5402570000000 1.0
C      1  0.5150190000000  0.5066100000000  0.4500980000000 1.0
C      1  0.4884750000000  0.5513050000000  0.4617140000000 1.0
C      1  0.4648190000000  0.4560890000000  0.5001930000000 1.0
C      1  0.5316420000000  0.5424370000000  0.4740950000000 1.0
C      1  0.4623990000000  0.5135500000000  0.4573980000000 1.0
C      1  0.4367390000000  0.5059100000000  0.5163220000000 1.0
C      1  0.4494080000000  0.4900180000000  0.5355820000000 1.0
C      1  0.4522240000000  0.5478550000000  0.4906450000000 1.0
C      1  0.5131610000000  0.4346950000000  0.5317960000000 1.0
C      1  0.5173370000000  0.4617770000000  0.4664540000000 1.0
C      1  0.5298870000000  0.5313600000000  0.5355990000000 1.0
C      1  0.4860660000000  0.5161610000000  0.5252670000000 1.0
C      1  0.4903340000000  0.4226170000000  0.5245460000000 1.0
C      1  0.5202950000000  0.5599030000000  0.4949460000000 1.0
C      1  0.5132510000000  0.4994570000000  0.5028420000000 1.0
C      1  0.4943170000000  0.5671290000000  0.4848140000000 1.0
C      1  0.5392400000000  0.5106100000000  0.5186590000000 1.0
C      1  0.5037210000000  0.5277590000000  0.5491940000000 1.0
C      1  0.4849100000000  0.4358610000000  0.4990070000000 1.0
C      1  0.5480430000000  0.4631440000000  0.5337920000000 1.0
C      1  0.4944470000000  0.4868700000000  0.5248710000000 1.0
C      1  0.4978490000000  0.4900020000000  0.4326870000000 1.0
C      1  0.5108200000000  0.4393530000000  0.4853760000000 1.0
C      1  0.5619340000000  0.4675010000000  0.4885450000000 1.0
C      1  0.4616410000000  0.4683120000000  0.4506840000000 1.0
END
