TITL C-49630-9520-9 0.0264836306446343 125000 -143.227716668656 0 0 22 (C1) n - 1
REM
REM in /rds/project/t2_vol4/rds-t2-cs072/BORA/CARBON/from-Arr/AIRSS/Generating-Clusters/GAP-ML-2020/Only-C1/SD-CG/HFTN-CG
REM
REM
REM
REM
REM
REM ./C.cell (11c1c37f851c82e70ff6c80c92926a4b)
REM AIRSS Version 0.9.1 bugfix July 2018 build 013d7b7c2542+ Fri, 06 Jul 2018 19:26:36 +0100
REM compiler GCC version 9.3.0
REM options -cpp -mtune=generic -march=x86-64 -g -O0
REM seed -2027921506 383576223 -1862340719 595029848 -1204251613 -1424868177 -1163749318 -823471312 1354372195 -1861878689 -1992081552 -1747784001 945700650 1008966196 -1919992432 419884195 -1915718359 1128479765 -1649951179 -1659584603 1558299292 220812512 -1957450696 1404729171 -927109749 -1359167404 1051235995 -235510831 -2125980339 -150347213 1225137837 248005677 -1736727508
REM
CELL 1.54180   50.00000   50.00000   50.00000   90.00000   90.00000   90.00000
LATT -1
SFAC C  
C      1  0.4794020000000  0.5188440000000  0.4525610000000 1.0
C      1  0.5277530000000  0.4929510000000  0.5173170000000 1.0
C      1  0.5433550000000  0.4672540000000  0.4762140000000 1.0
C      1  0.4838630000000  0.5024380000000  0.5350110000000 1.0
C      1  0.5056090000000  0.5095270000000  0.5181760000000 1.0
C      1  0.5454270000000  0.5239480000000  0.4786630000000 1.0
C      1  0.4513420000000  0.5126640000000  0.4825680000000 1.0
C      1  0.4754490000000  0.5274630000000  0.4805540000000 1.0
C      1  0.4977080000000  0.4724140000000  0.5758240000000 1.0
C      1  0.5197210000000  0.4919290000000  0.4388530000000 1.0
C      1  0.4998940000000  0.5257100000000  0.4937990000000 1.0
C      1  0.5072150000000  0.5148300000000  0.4487350000000 1.0
C      1  0.5442150000000  0.4871200000000  0.4963030000000 1.0
C      1  0.4550570000000  0.5054450000000  0.4536480000000 1.0
C      1  0.4556030000000  0.5001310000000  0.5292570000000 1.0
C      1  0.4815860000000  0.4866800000000  0.5591790000000 1.0
C      1  0.5188880000000  0.5271640000000  0.4726630000000 1.0
C      1  0.5159990000000  0.4584990000000  0.5862010000000 1.0
C      1  0.4527840000000  0.4879930000000  0.5553210000000 1.0
C      1  0.5639750000000  0.5089640000000  0.4894600000000 1.0
C      1  0.4419490000000  0.5020610000000  0.5058390000000 1.0
C      1  0.5332080000000  0.4759700000000  0.4538550000000 1.0
END
