TITL C-49635-9481-1 95.1490506524167 125000 -1078.85049773293 0 0 153 (C1) n - 1
REM
REM in /rds/project/t2_vol4/rds-t2-cs072/BORA/CARBON/from-Arr/AIRSS/Generating-Clusters/GAP-ML-2020/Only-C1/SD-CG/HFTN-CG
REM
REM
REM
REM
REM
REM ./C.cell (11c1c37f851c82e70ff6c80c92926a4b)
REM AIRSS Version 0.9.1 bugfix July 2018 build 013d7b7c2542+ Fri, 06 Jul 2018 19:26:36 +0100
REM compiler GCC version 9.3.0
REM options -cpp -mtune=generic -march=x86-64 -g -O0
REM seed 157516868 392400265 1851203871 1030663135 -301878189 1849126210 502958260 -1992317833 -553518104 -1434596437 338722971 98861365 -443890217 2040627224 2020346169 1137335572 -1840198164 636237493 -301695712 -970822509 319076669 -455955484 -1731507509 -2052327618 1341918456 -1927636861 -1344708766 -1328929702 173231313 -656374066 -86014102 -147827871 554483136
REM
CELL 1.54180   50.00000   50.00000   50.00000   90.00000   90.00000   90.00000
LATT -1
SFAC C  
C      1  0.4740990000000  0.5267130000000  0.4127570000000 1.0
C      1  0.5099700000000  0.5866450000000  0.4353730000000 1.0
C      1  0.5185150000000  0.4833910000000  0.4965470000000 1.0
C      1  0.5352410000000  0.5843680000000  0.5475880000000 1.0
C      1  0.5309690000000  0.5260820000000  0.4052350000000 1.0
C      1  0.4728800000000  0.5589450000000  0.4524260000000 1.0
C      1  0.4231960000000  0.4422840000000  0.5110680000000 1.0
C      1  0.5017660000000  0.4785720000000  0.4296580000000 1.0
C      1  0.4564580000000  0.5890500000000  0.4798580000000 1.0
C      1  0.4901940000000  0.5110960000000  0.3940580000000 1.0
C      1  0.3979720000000  0.5015040000000  0.5405620000000 1.0
C      1  0.5503320000000  0.4947810000000  0.4342730000000 1.0
C      1  0.4923970000000  0.4855620000000  0.3884750000000 1.0
C      1  0.5443240000000  0.4179080000000  0.5354550000000 1.0
C      1  0.5370450000000  0.5636640000000  0.5681300000000 1.0
C      1  0.5259500000000  0.4375260000000  0.5825190000000 1.0
C      1  0.4539130000000  0.4832150000000  0.4174140000000 1.0
C      1  0.4245490000000  0.5373200000000  0.5522540000000 1.0
C      1  0.4663610000000  0.4282570000000  0.4686040000000 1.0
C      1  0.4349510000000  0.5138540000000  0.4875920000000 1.0
C      1  0.4058360000000  0.4845090000000  0.4685830000000 1.0
C      1  0.5763200000000  0.5707210000000  0.4846290000000 1.0
C      1  0.5813930000000  0.4454370000000  0.5087970000000 1.0
C      1  0.5061960000000  0.5864690000000  0.5515800000000 1.0
C      1  0.5664180000000  0.5409800000000  0.4379190000000 1.0
C      1  0.5534030000000  0.5180110000000  0.4798070000000 1.0
C      1  0.4616150000000  0.5403040000000  0.5708970000000 1.0
C      1  0.5715240000000  0.4581650000000  0.4323640000000 1.0
C      1  0.5476240000000  0.4911930000000  0.4888080000000 1.0
C      1  0.5286930000000  0.3938530000000  0.4861990000000 1.0
C      1  0.5302360000000  0.5982240000000  0.5024300000000 1.0
C      1  0.5783720000000  0.5375030000000  0.5517430000000 1.0
C      1  0.4852790000000  0.5482340000000  0.5044140000000 1.0
C      1  0.4575030000000  0.4116190000000  0.4931330000000 1.0
C      1  0.5440260000000  0.4599820000000  0.5919860000000 1.0
C      1  0.4269010000000  0.5494090000000  0.4586870000000 1.0
C      1  0.5912130000000  0.4992630000000  0.4569910000000 1.0
C      1  0.5555960000000  0.5673650000000  0.4398020000000 1.0
C      1  0.4623420000000  0.5862420000000  0.5268060000000 1.0
C      1  0.4900230000000  0.5071080000000  0.5367330000000 1.0
C      1  0.5657670000000  0.4491070000000  0.4596170000000 1.0
C      1  0.5848250000000  0.5097080000000  0.5537060000000 1.0
C      1  0.4416320000000  0.4208950000000  0.5162150000000 1.0
C      1  0.5511050000000  0.5183090000000  0.5857730000000 1.0
C      1  0.5319960000000  0.4321660000000  0.4305470000000 1.0
C      1  0.5909720000000  0.5465930000000  0.4799160000000 1.0
C      1  0.5786050000000  0.4854200000000  0.4356290000000 1.0
C      1  0.4990920000000  0.4126390000000  0.5209700000000 1.0
C      1  0.4443560000000  0.4672350000000  0.4407280000000 1.0
C      1  0.4920350000000  0.5617930000000  0.4779390000000 1.0
C      1  0.5517280000000  0.5219020000000  0.4235600000000 1.0
C      1  0.4985640000000  0.5155100000000  0.5954220000000 1.0
C      1  0.5586910000000  0.4882130000000  0.5190180000000 1.0
C      1  0.4990030000000  0.4104510000000  0.5502110000000 1.0
C      1  0.5020640000000  0.6004840000000  0.5060410000000 1.0
C      1  0.4931530000000  0.4468200000000  0.5176900000000 1.0
C      1  0.4623400000000  0.4758820000000  0.4892590000000 1.0
C      1  0.4586590000000  0.4411510000000  0.4427270000000 1.0
C      1  0.5132480000000  0.4721310000000  0.4680530000000 1.0
C      1  0.4490730000000  0.5118680000000  0.4171560000000 1.0
C      1  0.4038290000000  0.4558930000000  0.5282920000000 1.0
C      1  0.4536150000000  0.4538380000000  0.5823030000000 1.0
C      1  0.4799650000000  0.4625290000000  0.5373680000000 1.0
C      1  0.4169120000000  0.4882010000000  0.4953060000000 1.0
C      1  0.4038370000000  0.5297180000000  0.5356680000000 1.0
C      1  0.5267630000000  0.5081090000000  0.5982330000000 1.0
C      1  0.4808540000000  0.4432560000000  0.4239920000000 1.0
C      1  0.5963500000000  0.5334760000000  0.5045970000000 1.0
C      1  0.4932240000000  0.4892390000000  0.4548720000000 1.0
C      1  0.5672040000000  0.4720750000000  0.5832690000000 1.0
C      1  0.5643160000000  0.4389940000000  0.5291900000000 1.0
C      1  0.4901790000000  0.5395090000000  0.5773350000000 1.0
C      1  0.5077670000000  0.5649640000000  0.5723370000000 1.0
C      1  0.4163190000000  0.4744660000000  0.4453540000000 1.0
C      1  0.4494950000000  0.4227450000000  0.5449970000000 1.0
C      1  0.4734230000000  0.4171760000000  0.5609480000000 1.0
C      1  0.3987080000000  0.4826660000000  0.5187900000000 1.0
C      1  0.5450500000000  0.4636610000000  0.5302960000000 1.0
C      1  0.5314460000000  0.5716180000000  0.4242210000000 1.0
C      1  0.5712020000000  0.5726710000000  0.5130660000000 1.0
C      1  0.5484270000000  0.5882350000000  0.5224910000000 1.0
C      1  0.4887090000000  0.5964400000000  0.5304500000000 1.0
C      1  0.4100430000000  0.4866650000000  0.5632140000000 1.0
C      1  0.5988790000000  0.5047340000000  0.5046960000000 1.0
C      1  0.4606750000000  0.5117450000000  0.5311670000000 1.0
C      1  0.5051730000000  0.5070370000000  0.5097570000000 1.0
C      1  0.4558110000000  0.4812670000000  0.5900190000000 1.0
C      1  0.4847760000000  0.5196940000000  0.4926900000000 1.0
C      1  0.5861290000000  0.4958800000000  0.5282550000000 1.0
C      1  0.4383410000000  0.4672310000000  0.5045260000000 1.0
C      1  0.5357840000000  0.5970140000000  0.4745970000000 1.0
C      1  0.4527820000000  0.5397060000000  0.5410870000000 1.0
C      1  0.5007280000000  0.5315880000000  0.5499370000000 1.0
C      1  0.5030920000000  0.4269770000000  0.4324840000000 1.0
C      1  0.4888430000000  0.5927650000000  0.4806020000000 1.0
C      1  0.5078590000000  0.5469140000000  0.5261630000000 1.0
C      1  0.4049810000000  0.5464130000000  0.5116250000000 1.0
C      1  0.4643330000000  0.5584890000000  0.5230490000000 1.0
C      1  0.5585380000000  0.5818680000000  0.4648460000000 1.0
C      1  0.5297060000000  0.4803990000000  0.4174300000000 1.0
C      1  0.4377600000000  0.4471030000000  0.5582670000000 1.0
C      1  0.5138980000000  0.5407950000000  0.4691930000000 1.0
C      1  0.5712070000000  0.4985060000000  0.5767340000000 1.0
C      1  0.4731800000000  0.5293070000000  0.4473060000000 1.0
C      1  0.4210230000000  0.5661500000000  0.5029280000000 1.0
C      1  0.5008470000000  0.3966070000000  0.4779060000000 1.0
C      1  0.4614750000000  0.4844870000000  0.4606950000000 1.0
C      1  0.5004630000000  0.4701730000000  0.6050600000000 1.0
C      1  0.5838220000000  0.5494550000000  0.5259040000000 1.0
C      1  0.5268810000000  0.4798640000000  0.6041920000000 1.0
C      1  0.4437310000000  0.5852650000000  0.5045990000000 1.0
C      1  0.4604160000000  0.5065400000000  0.5013160000000 1.0
C      1  0.4471520000000  0.5696190000000  0.4604410000000 1.0
C      1  0.4368690000000  0.5274850000000  0.5765050000000 1.0
C      1  0.4107390000000  0.5015710000000  0.4458880000000 1.0
C      1  0.5187490000000  0.5514570000000  0.4075020000000 1.0
C      1  0.5342360000000  0.5357280000000  0.4880420000000 1.0
C      1  0.4946110000000  0.4188390000000  0.4599330000000 1.0
C      1  0.5109890000000  0.5983960000000  0.4606520000000 1.0
C      1  0.5263450000000  0.4822050000000  0.5458010000000 1.0
C      1  0.5562300000000  0.5426630000000  0.5709080000000 1.0
C      1  0.4797630000000  0.4705930000000  0.4103190000000 1.0
C      1  0.4363090000000  0.4979990000000  0.5745780000000 1.0
C      1  0.5267670000000  0.5276580000000  0.5152880000000 1.0
C      1  0.5451600000000  0.4545520000000  0.4189580000000 1.0
C      1  0.5060740000000  0.4441690000000  0.4752710000000 1.0
C      1  0.5847940000000  0.4572780000000  0.4842690000000 1.0
C      1  0.5390710000000  0.5060910000000  0.5329530000000 1.0
C      1  0.5454410000000  0.3983990000000  0.4649710000000 1.0
C      1  0.4105970000000  0.4583370000000  0.5554440000000 1.0
C      1  0.4508100000000  0.4676540000000  0.5353440000000 1.0
C      1  0.5274760000000  0.4118130000000  0.5110670000000 1.0
C      1  0.5257740000000  0.4195660000000  0.5588270000000 1.0
C      1  0.4900790000000  0.5525130000000  0.4101250000000 1.0
C      1  0.5435330000000  0.4759250000000  0.4630850000000 1.0
C      1  0.5275100000000  0.4375890000000  0.4944390000000 1.0
C      1  0.4747670000000  0.4349440000000  0.5833540000000 1.0
C      1  0.4293140000000  0.5221660000000  0.4396740000000 1.0
C      1  0.4447830000000  0.4932180000000  0.5454040000000 1.0
C      1  0.4805370000000  0.4512280000000  0.4906410000000 1.0
C      1  0.5962880000000  0.4859950000000  0.4817570000000 1.0
C      1  0.5219540000000  0.4589150000000  0.5129840000000 1.0
C      1  0.5494960000000  0.4230020000000  0.4525820000000 1.0
C      1  0.4486110000000  0.5121470000000  0.4595160000000 1.0
C      1  0.4951390000000  0.5182820000000  0.4632120000000 1.0
C      1  0.4818280000000  0.4911950000000  0.6000870000000 1.0
C      1  0.4830250000000  0.3996790000000  0.4997970000000 1.0
C      1  0.4997370000000  0.4438660000000  0.5935590000000 1.0
C      1  0.5185130000000  0.5011690000000  0.3977650000000 1.0
C      1  0.5801560000000  0.5278080000000  0.4604000000000 1.0
C      1  0.4975760000000  0.4817370000000  0.5475950000000 1.0
C      1  0.4198290000000  0.5408310000000  0.4851800000000 1.0
C      1  0.4860970000000  0.5719980000000  0.4299310000000 1.0
END
