TITL C-49657-9576-5 -87.8703131233645 125000 -698.673615798922 0 0 100 (C1) n - 1
REM
REM in /rds/project/t2_vol4/rds-t2-cs072/BORA/CARBON/from-Arr/AIRSS/Generating-Clusters/GAP-ML-2020/Only-C1/SD-CG/HFTN-CG
REM
REM
REM
REM
REM
REM ./C.cell (11c1c37f851c82e70ff6c80c92926a4b)
REM AIRSS Version 0.9.1 bugfix July 2018 build 013d7b7c2542+ Fri, 06 Jul 2018 19:26:36 +0100
REM compiler GCC version 9.3.0
REM options -cpp -mtune=generic -march=x86-64 -g -O0
REM seed 1881649773 -76473824 803207047 -2023305892 1995149488 -1939210395 131080733 1534268260 -137709316 -458980163 -1210592924 689711435 -1528991066 352403272 1924985972 -1372969224 1748044734 -538837713 -1708288394 -129795194 1646572258 531944981 -414348549 2019949057 787379821 759845601 -1084850049 880096199 -133899568 175751830 380032351 565501407 1902003238
REM
CELL 1.54180   50.00000   50.00000   50.00000   90.00000   90.00000   90.00000
LATT -1
SFAC C  
C      1  0.4780070000000  0.5055060000000  0.4194170000000 1.0
C      1  0.5313110000000  0.4140750000000  0.4855900000000 1.0
C      1  0.4887980000000  0.4034630000000  0.4777000000000 1.0
C      1  0.5239060000000  0.5318690000000  0.4573400000000 1.0
C      1  0.5446870000000  0.4911690000000  0.4680490000000 1.0
C      1  0.4700660000000  0.5207670000000  0.5176390000000 1.0
C      1  0.4211070000000  0.5146230000000  0.5355320000000 1.0
C      1  0.5695820000000  0.5459770000000  0.5357720000000 1.0
C      1  0.5507930000000  0.4330830000000  0.4948050000000 1.0
C      1  0.5007480000000  0.4775540000000  0.5609870000000 1.0
C      1  0.5532740000000  0.4778390000000  0.5583500000000 1.0
C      1  0.5196650000000  0.5600370000000  0.4497020000000 1.0
C      1  0.5313500000000  0.4349970000000  0.5433770000000 1.0
C      1  0.4592990000000  0.5736850000000  0.5611260000000 1.0
C      1  0.5524220000000  0.5139200000000  0.4242880000000 1.0
C      1  0.5604440000000  0.4495680000000  0.4734850000000 1.0
C      1  0.4960020000000  0.4958110000000  0.4770310000000 1.0
C      1  0.4760330000000  0.5607420000000  0.5801380000000 1.0
C      1  0.5416270000000  0.4438500000000  0.4505790000000 1.0
C      1  0.4628520000000  0.4268030000000  0.5286680000000 1.0
C      1  0.4227160000000  0.4934080000000  0.4919220000000 1.0
C      1  0.4986780000000  0.5466100000000  0.5825720000000 1.0
C      1  0.5041800000000  0.4856690000000  0.5264720000000 1.0
C      1  0.4782010000000  0.4915380000000  0.5136840000000 1.0
C      1  0.4326320000000  0.5396710000000  0.5454630000000 1.0
C      1  0.5259860000000  0.5533520000000  0.5723840000000 1.0
C      1  0.4888090000000  0.5730360000000  0.4870790000000 1.0
C      1  0.5800880000000  0.4983770000000  0.4950020000000 1.0
C      1  0.5642420000000  0.5261030000000  0.5553610000000 1.0
C      1  0.4488040000000  0.5001210000000  0.4786670000000 1.0
C      1  0.4560220000000  0.5291740000000  0.4913440000000 1.0
C      1  0.4263690000000  0.4534370000000  0.5175280000000 1.0
C      1  0.4310290000000  0.4523420000000  0.4698240000000 1.0
C      1  0.4424650000000  0.4314100000000  0.5100430000000 1.0
C      1  0.4777550000000  0.5460240000000  0.4775250000000 1.0
C      1  0.4849440000000  0.5821180000000  0.5134430000000 1.0
C      1  0.4264050000000  0.5404240000000  0.4623580000000 1.0
C      1  0.5272040000000  0.5096680000000  0.5832350000000 1.0
C      1  0.5154300000000  0.5139680000000  0.5252940000000 1.0
C      1  0.5693290000000  0.4993090000000  0.5466630000000 1.0
C      1  0.4755420000000  0.4512770000000  0.4823590000000 1.0
C      1  0.4591920000000  0.5264530000000  0.5448060000000 1.0
C      1  0.5001530000000  0.5631100000000  0.5337880000000 1.0
C      1  0.5129390000000  0.4572900000000  0.4557950000000 1.0
C      1  0.5470630000000  0.4892840000000  0.4373570000000 1.0
C      1  0.4153970000000  0.5154970000000  0.5072410000000 1.0
C      1  0.5011770000000  0.5242370000000  0.4776450000000 1.0
C      1  0.5501720000000  0.5637400000000  0.4573930000000 1.0
C      1  0.4944780000000  0.5332440000000  0.5296360000000 1.0
C      1  0.4371020000000  0.4645560000000  0.5425530000000 1.0
C      1  0.5262370000000  0.4193470000000  0.4580240000000 1.0
C      1  0.5409480000000  0.4476140000000  0.5179480000000 1.0
C      1  0.4327330000000  0.5634810000000  0.5575190000000 1.0
C      1  0.4469710000000  0.5383080000000  0.4431020000000 1.0
C      1  0.5564770000000  0.5708280000000  0.5051710000000 1.0
C      1  0.5051210000000  0.4078000000000  0.4995100000000 1.0
C      1  0.4606750000000  0.4470920000000  0.5486260000000 1.0
C      1  0.4714550000000  0.5512650000000  0.4488800000000 1.0
C      1  0.4874680000000  0.4507450000000  0.5592780000000 1.0
C      1  0.4968320000000  0.4156600000000  0.4549630000000 1.0
C      1  0.4912010000000  0.4223700000000  0.5224660000000 1.0
C      1  0.4187000000000  0.4660860000000  0.4921360000000 1.0
C      1  0.5505510000000  0.5679340000000  0.5336440000000 1.0
C      1  0.5700740000000  0.5317320000000  0.4339180000000 1.0
C      1  0.4859340000000  0.4441560000000  0.4547600000000 1.0
C      1  0.5133980000000  0.5765070000000  0.4739690000000 1.0
C      1  0.4579800000000  0.5044410000000  0.5634720000000 1.0
C      1  0.5251340000000  0.5194590000000  0.4307070000000 1.0
C      1  0.4725510000000  0.4826270000000  0.4873250000000 1.0
C      1  0.5679500000000  0.4769780000000  0.4787320000000 1.0
C      1  0.4849910000000  0.4771820000000  0.4218500000000 1.0
C      1  0.4997630000000  0.5177420000000  0.5861810000000 1.0
C      1  0.5215910000000  0.5222510000000  0.4993320000000 1.0
C      1  0.5041470000000  0.4312770000000  0.5467440000000 1.0
C      1  0.5725850000000  0.5280460000000  0.4852060000000 1.0
C      1  0.4526410000000  0.5121450000000  0.4318450000000 1.0
C      1  0.5160650000000  0.4645360000000  0.5066680000000 1.0
C      1  0.4269520000000  0.5378080000000  0.4890860000000 1.0
C      1  0.5183020000000  0.4776960000000  0.4776790000000 1.0
C      1  0.4955790000000  0.4442430000000  0.5018320000000 1.0
C      1  0.4352660000000  0.4921640000000  0.5504280000000 1.0
C      1  0.5437680000000  0.5312910000000  0.5746750000000 1.0
C      1  0.4419850000000  0.4657000000000  0.4471300000000 1.0
C      1  0.4943890000000  0.5506240000000  0.4328370000000 1.0
C      1  0.5509330000000  0.4533190000000  0.5455970000000 1.0
C      1  0.5389320000000  0.4640880000000  0.4275600000000 1.0
C      1  0.4766130000000  0.5799440000000  0.5392090000000 1.0
C      1  0.5743230000000  0.5476510000000  0.5066550000000 1.0
C      1  0.4499090000000  0.4356130000000  0.4829760000000 1.0
C      1  0.5418500000000  0.5764050000000  0.4815660000000 1.0
C      1  0.5108470000000  0.4660020000000  0.4268620000000 1.0
C      1  0.5813010000000  0.4983070000000  0.5218780000000 1.0
C      1  0.4680580000000  0.4589100000000  0.4363170000000 1.0
C      1  0.4416090000000  0.4936800000000  0.4501260000000 1.0
C      1  0.5264300000000  0.5678440000000  0.5482470000000 1.0
C      1  0.5435650000000  0.5191390000000  0.4787620000000 1.0
C      1  0.4988800000000  0.5254450000000  0.4203630000000 1.0
C      1  0.5288460000000  0.4842500000000  0.5721160000000 1.0
C      1  0.5719040000000  0.5445990000000  0.4574490000000 1.0
C      1  0.4831120000000  0.4978870000000  0.5746610000000 1.0
END
