TITL C-49637-9497-1 39.4673932711822 125000 -106.519203247065 0 0 17 (C1) n - 1
REM
REM in /rds/project/t2_vol4/rds-t2-cs072/BORA/CARBON/from-Arr/AIRSS/Generating-Clusters/GAP-ML-2020/Only-C1/SD-CG/HFTN-CG
REM
REM
REM
REM
REM
REM ./C.cell (11c1c37f851c82e70ff6c80c92926a4b)
REM AIRSS Version 0.9.1 bugfix July 2018 build 013d7b7c2542+ Fri, 06 Jul 2018 19:26:36 +0100
REM compiler GCC version 9.3.0
REM options -cpp -mtune=generic -march=x86-64 -g -O0
REM seed 2075050129 1061571281 -831293563 1772714679 -1879079353 -854932917 -1645456795 923216979 1696901099 -884785698 505396923 -879389089 830967646 -835436368 808632026 1332850555 1198387669 636247221 -1287307740 -1365815866 -1606636837 1771132854 1505114079 1288687203 2048054948 -1642939372 -133483030 -738388837 -1522973533 -1149717393 1386432454 904653968 1076792628
REM
CELL 1.54180   50.00000   50.00000   50.00000   90.00000   90.00000   90.00000
LATT -1
SFAC C  
C      1  0.5254580000000  0.4502610000000  0.5068750000000 1.0
C      1  0.5224110000000  0.4399480000000  0.5302930000000 1.0
C      1  0.5053050000000  0.5376650000000  0.4770240000000 1.0
C      1  0.4742090000000  0.5315140000000  0.5081830000000 1.0
C      1  0.5169580000000  0.5030490000000  0.4424520000000 1.0
C      1  0.5428010000000  0.5134440000000  0.4983270000000 1.0
C      1  0.4989560000000  0.5200290000000  0.5197840000000 1.0
C      1  0.5385670000000  0.4902370000000  0.4880910000000 1.0
C      1  0.5284340000000  0.4667570000000  0.4861620000000 1.0
C      1  0.5086610000000  0.5245530000000  0.4535000000000 1.0
C      1  0.4991150000000  0.4956690000000  0.5327550000000 1.0
C      1  0.4878380000000  0.4749030000000  0.5422970000000 1.0
C      1  0.4810870000000  0.5491070000000  0.4864140000000 1.0
C      1  0.4511710000000  0.5171970000000  0.5099420000000 1.0
C      1  0.4499830000000  0.4659570000000  0.5098980000000 1.0
C      1  0.4494810000000  0.4914620000000  0.5068870000000 1.0
C      1  0.5195660000000  0.5282500000000  0.5011150000000 1.0
END
