TITL C-51997-1271-6 -0.0694742606878551 125000 -533.983904747774 0 0 77 (C1) n - 1
REM
REM in /rds/project/t2_vol4/rds-t2-cs072/BORA/CARBON/from-Arr/AIRSS/Generating-Clusters/GAP-ML-2020/Only-C1/SD-CG/HFTN-CG
REM
REM
REM
REM
REM
REM ./C.cell (11c1c37f851c82e70ff6c80c92926a4b)
REM AIRSS Version 0.9.1 bugfix July 2018 build 013d7b7c2542+ Fri, 06 Jul 2018 19:26:36 +0100
REM compiler GCC version 9.3.0
REM options -cpp -mtune=generic -march=x86-64 -g -O0
REM seed -751051352 690465337 2116756413 -468645819 594255074 767429669 -1107793242 -1137762392 262543109 81625691 -2057511913 219467743 1058585426 -1196666835 -1635994080 -1404439194 -1052385383 165903980 -1667885292 -544107916 1294271283 1416452800 56975993 646138278 -1176355801 220828552 1083416817 1894868533 -319897829 -278225010 -1536146026 -1493137967 1958110195
REM
CELL 1.54180   50.00000   50.00000   50.00000   90.00000   90.00000   90.00000
LATT -1
SFAC C  
C      1  0.5218110000000  0.4788250000000  0.4202660000000 1.0
C      1  0.4978100000000  0.5715340000000  0.4828990000000 1.0
C      1  0.5075320000000  0.5239870000000  0.4949980000000 1.0
C      1  0.4571070000000  0.4528280000000  0.5192810000000 1.0
C      1  0.5376760000000  0.4364950000000  0.5168880000000 1.0
C      1  0.5741080000000  0.4944140000000  0.5152080000000 1.0
C      1  0.4976380000000  0.4429660000000  0.5440820000000 1.0
C      1  0.5010090000000  0.4921350000000  0.5341360000000 1.0
C      1  0.5141680000000  0.5187300000000  0.5395680000000 1.0
C      1  0.5087200000000  0.4540160000000  0.4279050000000 1.0
C      1  0.4738450000000  0.5630620000000  0.4940760000000 1.0
C      1  0.4958470000000  0.4318290000000  0.4971780000000 1.0
C      1  0.4803780000000  0.4597630000000  0.4246630000000 1.0
C      1  0.5444120000000  0.4865060000000  0.4345830000000 1.0
C      1  0.4127660000000  0.4822140000000  0.4902300000000 1.0
C      1  0.5527600000000  0.4748850000000  0.4592540000000 1.0
C      1  0.5531730000000  0.5019710000000  0.4742440000000 1.0
C      1  0.4981980000000  0.4816310000000  0.4625110000000 1.0
C      1  0.5043240000000  0.5247280000000  0.4282240000000 1.0
C      1  0.4692780000000  0.4412110000000  0.5432990000000 1.0
C      1  0.5040110000000  0.5390780000000  0.5212840000000 1.0
C      1  0.4665660000000  0.5191060000000  0.5141100000000 1.0
C      1  0.5725500000000  0.5136680000000  0.4925420000000 1.0
C      1  0.4589600000000  0.5255790000000  0.4493260000000 1.0
C      1  0.4562150000000  0.4994900000000  0.4370420000000 1.0
C      1  0.5388950000000  0.4678560000000  0.5560180000000 1.0
C      1  0.5014220000000  0.4993970000000  0.4163300000000 1.0
C      1  0.5298130000000  0.5056170000000  0.4987420000000 1.0
C      1  0.4328230000000  0.5455660000000  0.5258380000000 1.0
C      1  0.5623460000000  0.5421490000000  0.4958180000000 1.0
C      1  0.4679590000000  0.4921500000000  0.5654250000000 1.0
C      1  0.4934800000000  0.5693030000000  0.5614590000000 1.0
C      1  0.4676330000000  0.5713680000000  0.5584940000000 1.0
C      1  0.4973200000000  0.4297850000000  0.4685590000000 1.0
C      1  0.5183440000000  0.5602050000000  0.5551330000000 1.0
C      1  0.5102700000000  0.4311430000000  0.5211550000000 1.0
C      1  0.5005750000000  0.5596440000000  0.4572310000000 1.0
C      1  0.5225060000000  0.5716010000000  0.4977170000000 1.0
C      1  0.5422710000000  0.5578080000000  0.4810100000000 1.0
C      1  0.5302530000000  0.5319480000000  0.4383360000000 1.0
C      1  0.5478600000000  0.5121330000000  0.4462010000000 1.0
C      1  0.5285810000000  0.5537430000000  0.4558970000000 1.0
C      1  0.4547950000000  0.5570910000000  0.5382260000000 1.0
C      1  0.5179640000000  0.4399490000000  0.4516150000000 1.0
C      1  0.4378290000000  0.5229530000000  0.5061380000000 1.0
C      1  0.4713130000000  0.4986970000000  0.5359450000000 1.0
C      1  0.5241370000000  0.5327470000000  0.5628990000000 1.0
C      1  0.5499250000000  0.5439410000000  0.5206350000000 1.0
C      1  0.4442410000000  0.5338410000000  0.4739610000000 1.0
C      1  0.4844900000000  0.5389270000000  0.4428870000000 1.0
C      1  0.4431670000000  0.4765400000000  0.4494600000000 1.0
C      1  0.5329320000000  0.5107060000000  0.5783870000000 1.0
C      1  0.4466030000000  0.4790400000000  0.5282860000000 1.0
C      1  0.4517110000000  0.5589170000000  0.4800650000000 1.0
C      1  0.4280090000000  0.4945730000000  0.5102490000000 1.0
C      1  0.5256910000000  0.5599760000000  0.5242320000000 1.0
C      1  0.5084340000000  0.4687250000000  0.5542800000000 1.0
C      1  0.4827480000000  0.5098940000000  0.4919900000000 1.0
C      1  0.4886710000000  0.4806830000000  0.4881490000000 1.0
C      1  0.4720810000000  0.4519890000000  0.4945500000000 1.0
C      1  0.4760890000000  0.5470780000000  0.5184590000000 1.0
C      1  0.5630110000000  0.5041920000000  0.5395340000000 1.0
C      1  0.4466750000000  0.4742120000000  0.5599670000000 1.0
C      1  0.4206850000000  0.4761330000000  0.4665890000000 1.0
C      1  0.5409290000000  0.5172070000000  0.5264920000000 1.0
C      1  0.5512550000000  0.4546570000000  0.5345600000000 1.0
C      1  0.4611900000000  0.4533360000000  0.4444470000000 1.0
C      1  0.5098740000000  0.4866580000000  0.5070450000000 1.0
C      1  0.4940560000000  0.4835570000000  0.5769000000000 1.0
C      1  0.5649700000000  0.4674670000000  0.5119170000000 1.0
C      1  0.5502720000000  0.4486330000000  0.4934760000000 1.0
C      1  0.5506250000000  0.4925910000000  0.5628290000000 1.0
C      1  0.4521550000000  0.4479200000000  0.5643530000000 1.0
C      1  0.5417750000000  0.4503850000000  0.4664450000000 1.0
C      1  0.5120090000000  0.4971980000000  0.5918330000000 1.0
C      1  0.4702410000000  0.4396620000000  0.4663250000000 1.0
C      1  0.4762330000000  0.4878610000000  0.4197160000000 1.0
END
