TITL C-52005-1277-9 0.144353964792457 125000 -548.59731629895 0 0 80 (C1) n - 1
REM
REM in /rds/project/t2_vol4/rds-t2-cs072/BORA/CARBON/from-Arr/AIRSS/Generating-Clusters/GAP-ML-2020/Only-C1/SD-CG/HFTN-CG
REM
REM
REM
REM
REM
REM ./C.cell (11c1c37f851c82e70ff6c80c92926a4b)
REM AIRSS Version 0.9.1 bugfix July 2018 build 013d7b7c2542+ Fri, 06 Jul 2018 19:26:36 +0100
REM compiler GCC version 9.3.0
REM options -cpp -mtune=generic -march=x86-64 -g -O0
REM seed -148167494 -1094724072 -1661629444 93878096 -1303217195 1951153317 -2053761231 -1791245789 -1465429705 443765562 -2121006982 -2028405647 2024569283 1404386781 1542512882 1419944431 613717819 -37867392 876033080 -478902255 -1456751819 -1457760252 19251419 479577460 -1890140621 457940645 -700068702 1445230794 -1167372769 182796271 -1788029714 1706044593 -196223997
REM
CELL 1.54180   50.00000   50.00000   50.00000   90.00000   90.00000   90.00000
LATT -1
SFAC C  
C      1  0.4827890000000  0.4601790000000  0.5587400000000 1.0
C      1  0.5142610000000  0.4526150000000  0.4489510000000 1.0
C      1  0.5417760000000  0.5566460000000  0.4925700000000 1.0
C      1  0.4848010000000  0.5111840000000  0.5256910000000 1.0
C      1  0.4874930000000  0.4591380000000  0.4386970000000 1.0
C      1  0.5345190000000  0.4692710000000  0.4400710000000 1.0
C      1  0.5008250000000  0.5031570000000  0.4223800000000 1.0
C      1  0.4678960000000  0.4516170000000  0.4599090000000 1.0
C      1  0.4828630000000  0.5379140000000  0.5628310000000 1.0
C      1  0.5512870000000  0.5341670000000  0.4468750000000 1.0
C      1  0.4193740000000  0.5246880000000  0.5197160000000 1.0
C      1  0.5519150000000  0.4947610000000  0.5664890000000 1.0
C      1  0.4518750000000  0.4991070000000  0.5555430000000 1.0
C      1  0.5803270000000  0.4998590000000  0.4940910000000 1.0
C      1  0.5720880000000  0.5212860000000  0.5364960000000 1.0
C      1  0.4524890000000  0.4479810000000  0.5071070000000 1.0
C      1  0.5321370000000  0.4457620000000  0.5023180000000 1.0
C      1  0.5659360000000  0.4716790000000  0.5275830000000 1.0
C      1  0.4563670000000  0.5146000000000  0.4948110000000 1.0
C      1  0.4929040000000  0.4247400000000  0.5316530000000 1.0
C      1  0.4143890000000  0.5072350000000  0.4993270000000 1.0
C      1  0.4852990000000  0.5431110000000  0.4561570000000 1.0
C      1  0.4974140000000  0.4929320000000  0.5796550000000 1.0
C      1  0.5172030000000  0.5717030000000  0.4828200000000 1.0
C      1  0.5090860000000  0.4667240000000  0.5722140000000 1.0
C      1  0.4635770000000  0.5247640000000  0.5446620000000 1.0
C      1  0.4374870000000  0.5451070000000  0.4745810000000 1.0
C      1  0.4766170000000  0.4665760000000  0.5067100000000 1.0
C      1  0.4698650000000  0.4374530000000  0.5481390000000 1.0
C      1  0.4485120000000  0.4505540000000  0.5349630000000 1.0
C      1  0.4981430000000  0.4971780000000  0.4786560000000 1.0
C      1  0.5278260000000  0.4942210000000  0.4262890000000 1.0
C      1  0.4935860000000  0.4209370000000  0.4821670000000 1.0
C      1  0.5252780000000  0.5350120000000  0.5636240000000 1.0
C      1  0.4425140000000  0.4671630000000  0.4662530000000 1.0
C      1  0.5504810000000  0.5068080000000  0.4395110000000 1.0
C      1  0.5568370000000  0.4600680000000  0.5022280000000 1.0
C      1  0.5169820000000  0.4446290000000  0.5300680000000 1.0
C      1  0.4319080000000  0.5157690000000  0.4760090000000 1.0
C      1  0.5768590000000  0.5414590000000  0.5165620000000 1.0
C      1  0.5284020000000  0.5498010000000  0.4386790000000 1.0
C      1  0.4638160000000  0.4923240000000  0.5130060000000 1.0
C      1  0.4956760000000  0.5340990000000  0.5082480000000 1.0
C      1  0.4447650000000  0.5566340000000  0.5009010000000 1.0
C      1  0.5675150000000  0.4776820000000  0.4806340000000 1.0
C      1  0.5122590000000  0.4453660000000  0.4792000000000 1.0
C      1  0.5786850000000  0.5277330000000  0.4894150000000 1.0
C      1  0.4463990000000  0.5337840000000  0.5191800000000 1.0
C      1  0.4547160000000  0.4927020000000  0.4336160000000 1.0
C      1  0.4609450000000  0.5585310000000  0.4638160000000 1.0
C      1  0.5237420000000  0.5290660000000  0.5023310000000 1.0
C      1  0.5291720000000  0.5028920000000  0.5146600000000 1.0
C      1  0.4963480000000  0.4669580000000  0.5295280000000 1.0
C      1  0.5293480000000  0.4555420000000  0.5557990000000 1.0
C      1  0.4422290000000  0.4813390000000  0.5334810000000 1.0
C      1  0.5150060000000  0.5467880000000  0.4146580000000 1.0
C      1  0.4708490000000  0.4846630000000  0.5701710000000 1.0
C      1  0.4965570000000  0.5594930000000  0.5243380000000 1.0
C      1  0.5571330000000  0.4819410000000  0.4540020000000 1.0
C      1  0.4330610000000  0.4628300000000  0.4922170000000 1.0
C      1  0.5528400000000  0.4705180000000  0.5527790000000 1.0
C      1  0.5101090000000  0.5605710000000  0.4585810000000 1.0
C      1  0.5234650000000  0.5042370000000  0.4873120000000 1.0
C      1  0.4897030000000  0.4678650000000  0.4817380000000 1.0
C      1  0.5045170000000  0.5533440000000  0.5506810000000 1.0
C      1  0.4677360000000  0.5710540000000  0.4892510000000 1.0
C      1  0.5516140000000  0.5208760000000  0.5586040000000 1.0
C      1  0.4905780000000  0.4125260000000  0.5081280000000 1.0
C      1  0.4718360000000  0.4243090000000  0.4657000000000 1.0
C      1  0.5076880000000  0.4941820000000  0.5310430000000 1.0
C      1  0.5605420000000  0.5411960000000  0.4722500000000 1.0
C      1  0.4231270000000  0.4820180000000  0.5100170000000 1.0
C      1  0.5025430000000  0.5204640000000  0.5760420000000 1.0
C      1  0.4961560000000  0.5313000000000  0.4281650000000 1.0
C      1  0.4942220000000  0.5745140000000  0.5005450000000 1.0
C      1  0.4823380000000  0.5220240000000  0.4822410000000 1.0
C      1  0.5780740000000  0.4968470000000  0.5225110000000 1.0
C      1  0.5637160000000  0.5647100000000  0.5107630000000 1.0
C      1  0.4385970000000  0.4935680000000  0.4554680000000 1.0
C      1  0.4801900000000  0.4839540000000  0.4271840000000 1.0
END
