TITL C-52005-1277-3 -0.0758824680913781 125000 -95.6770686807133 0 0 15 (Cs) n - 1
REM
REM in /rds/project/t2_vol4/rds-t2-cs072/BORA/CARBON/from-Arr/AIRSS/Generating-Clusters/GAP-ML-2020/Only-C1/SD-CG/HFTN-CG
REM
REM
REM
REM
REM
REM ./C.cell (11c1c37f851c82e70ff6c80c92926a4b)
REM AIRSS Version 0.9.1 bugfix July 2018 build 013d7b7c2542+ Fri, 06 Jul 2018 19:26:36 +0100
REM compiler GCC version 9.3.0
REM options -cpp -mtune=generic -march=x86-64 -g -O0
REM seed -1667297234 -1947415915 -724438534 -2092853334 1167340007 1149163333 1237425091 776614503 205962950 1023343649 -582535334 -1278594739 -800008685 -123474085 -1174630068 -1866297222 1118843811 1329680731 1686135927 66534911 1304395134 -1898860401 -921246580 -121922599 608812841 1867488601 1378056832 851780582 -767830494 1354578823 -69159292 -536421889 1188844058
REM
CELL 1.54180   50.00000   50.00000   50.00000   90.00000   90.00000   90.00000
LATT -1
SFAC C  
C      1  0.5048270000000  0.5392310000000  0.5007620000000 1.0
C      1  0.5130380000000  0.4863620000000  0.5280600000000 1.0
C      1  0.4700720000000  0.4627110000000  0.4511690000000 1.0
C      1  0.5614760000000  0.4878710000000  0.4727190000000 1.0
C      1  0.4849310000000  0.4786250000000  0.5214330000000 1.0
C      1  0.4819460000000  0.4632890000000  0.4731880000000 1.0
C      1  0.5217360000000  0.4742660000000  0.5032330000000 1.0
C      1  0.4905360000000  0.5510670000000  0.4805200000000 1.0
C      1  0.5049830000000  0.5137930000000  0.5312690000000 1.0
C      1  0.4944860000000  0.4667650000000  0.4968080000000 1.0
C      1  0.4768870000000  0.5315400000000  0.4941740000000 1.0
C      1  0.4579870000000  0.5210110000000  0.5102370000000 1.0
C      1  0.4764300000000  0.5059340000000  0.5245370000000 1.0
C      1  0.5429000000000  0.4800680000000  0.4875590000000 1.0
C      1  0.5177670000000  0.5374660000000  0.5243310000000 1.0
END
