TITL C-52009-1192-12 -312.862412117784 125000 -691.543521130759 0 0 97 (C1) n - 1
REM
REM in /rds/project/t2_vol4/rds-t2-cs072/BORA/CARBON/from-Arr/AIRSS/Generating-Clusters/GAP-ML-2020/Only-C1/SD-CG/HFTN-CG
REM
REM
REM
REM
REM
REM ./C.cell (11c1c37f851c82e70ff6c80c92926a4b)
REM AIRSS Version 0.9.1 bugfix July 2018 build 013d7b7c2542+ Fri, 06 Jul 2018 19:26:36 +0100
REM compiler GCC version 9.3.0
REM options -cpp -mtune=generic -march=x86-64 -g -O0
REM seed -2054640270 -2064319877 1025806026 -1559840221 -841003038 99173909 897591429 -807384492 -1374989589 1568750164 1945564587 1454713490 424282648 -516664694 967672703 2002590376 837931441 1591518861 1453104042 -316438116 -1376083278 -1653027047 -1167911722 885798083 -1659916566 540946669 -1369319981 772550074 -410770670 -578043826 -1585726779 667324105 1597319244
REM
CELL 1.54180   50.00000   50.00000   50.00000   90.00000   90.00000   90.00000
LATT -1
SFAC C  
C      1  0.5275110000000  0.4786190000000  0.4297310000000 1.0
C      1  0.5182940000000  0.5156030000000  0.5784240000000 1.0
C      1  0.4244440000000  0.5266070000000  0.5110080000000 1.0
C      1  0.5303770000000  0.5098300000000  0.4949230000000 1.0
C      1  0.5551210000000  0.4484390000000  0.4637060000000 1.0
C      1  0.4349690000000  0.5217030000000  0.4390000000000 1.0
C      1  0.5015530000000  0.4737320000000  0.4862840000000 1.0
C      1  0.5000150000000  0.4674250000000  0.4278650000000 1.0
C      1  0.5384480000000  0.5486310000000  0.4611920000000 1.0
C      1  0.4715050000000  0.5847220000000  0.5064980000000 1.0
C      1  0.4704000000000  0.5010030000000  0.5739690000000 1.0
C      1  0.4410100000000  0.5291520000000  0.5535920000000 1.0
C      1  0.4334350000000  0.5365360000000  0.4634040000000 1.0
C      1  0.4997540000000  0.4689360000000  0.5825240000000 1.0
C      1  0.5113490000000  0.4761900000000  0.5275210000000 1.0
C      1  0.5522400000000  0.4343980000000  0.4886450000000 1.0
C      1  0.5146890000000  0.4462980000000  0.5726110000000 1.0
C      1  0.4995000000000  0.5145710000000  0.4577730000000 1.0
C      1  0.5230830000000  0.5747620000000  0.4592890000000 1.0
C      1  0.4895550000000  0.5332810000000  0.5050830000000 1.0
C      1  0.5355380000000  0.4529570000000  0.4433010000000 1.0
C      1  0.4211130000000  0.5195340000000  0.4836300000000 1.0
C      1  0.5587280000000  0.5468630000000  0.5118520000000 1.0
C      1  0.4986150000000  0.4080820000000  0.5251630000000 1.0
C      1  0.5516320000000  0.5409740000000  0.5395090000000 1.0
C      1  0.4922170000000  0.4267190000000  0.4583430000000 1.0
C      1  0.4768800000000  0.5750670000000  0.4616980000000 1.0
C      1  0.5159480000000  0.4963260000000  0.4750050000000 1.0
C      1  0.4890670000000  0.4336230000000  0.5646170000000 1.0
C      1  0.5595720000000  0.5148790000000  0.5506610000000 1.0
C      1  0.5200020000000  0.5034350000000  0.5209080000000 1.0
C      1  0.4851180000000  0.5804610000000  0.5313730000000 1.0
C      1  0.4624400000000  0.4791240000000  0.5536060000000 1.0
C      1  0.4458110000000  0.4338690000000  0.5156920000000 1.0
C      1  0.5401170000000  0.4488210000000  0.5595760000000 1.0
C      1  0.5269190000000  0.5897310000000  0.5077270000000 1.0
C      1  0.4992250000000  0.5703390000000  0.4440310000000 1.0
C      1  0.5782870000000  0.4938930000000  0.4528190000000 1.0
C      1  0.4819070000000  0.4865760000000  0.5275440000000 1.0
C      1  0.5842110000000  0.5338580000000  0.4765460000000 1.0
C      1  0.4868970000000  0.5905250000000  0.4833030000000 1.0
C      1  0.5265580000000  0.4155530000000  0.5220250000000 1.0
C      1  0.4747510000000  0.4577670000000  0.5712120000000 1.0
C      1  0.4864870000000  0.4079100000000  0.4996650000000 1.0
C      1  0.4704500000000  0.5658580000000  0.5500890000000 1.0
C      1  0.5198870000000  0.5303480000000  0.4414330000000 1.0
C      1  0.4334200000000  0.4605120000000  0.5133530000000 1.0
C      1  0.5115760000000  0.5509970000000  0.5046570000000 1.0
C      1  0.4349730000000  0.5530740000000  0.5159670000000 1.0
C      1  0.4790330000000  0.5264870000000  0.4785620000000 1.0
C      1  0.5001020000000  0.5479850000000  0.4266650000000 1.0
C      1  0.5609480000000  0.4456320000000  0.5144960000000 1.0
C      1  0.4625990000000  0.5269500000000  0.5720350000000 1.0
C      1  0.4744100000000  0.4799500000000  0.4288660000000 1.0
C      1  0.4930520000000  0.5137280000000  0.5240650000000 1.0
C      1  0.4495040000000  0.4728320000000  0.4417980000000 1.0
C      1  0.5675870000000  0.4872470000000  0.5410330000000 1.0
C      1  0.4973080000000  0.4966330000000  0.5826370000000 1.0
C      1  0.4454440000000  0.4535950000000  0.4627470000000 1.0
C      1  0.4521530000000  0.4192950000000  0.5383490000000 1.0
C      1  0.4826810000000  0.5479490000000  0.5687580000000 1.0
C      1  0.4617590000000  0.4214570000000  0.4941980000000 1.0
C      1  0.5627370000000  0.5131810000000  0.4395590000000 1.0
C      1  0.5899450000000  0.5058640000000  0.4773660000000 1.0
C      1  0.5742380000000  0.4717320000000  0.5176270000000 1.0
C      1  0.5826520000000  0.5486860000000  0.4994800000000 1.0
C      1  0.5727320000000  0.4697640000000  0.4671800000000 1.0
C      1  0.4206860000000  0.4922860000000  0.4734370000000 1.0
C      1  0.5159000000000  0.5908250000000  0.4828000000000 1.0
C      1  0.4764980000000  0.4827970000000  0.4979520000000 1.0
C      1  0.4291110000000  0.4668000000000  0.4847430000000 1.0
C      1  0.5082250000000  0.4425470000000  0.4405440000000 1.0
C      1  0.4644140000000  0.5023990000000  0.4837380000000 1.0
C      1  0.4796640000000  0.4164950000000  0.5447750000000 1.0
C      1  0.5280080000000  0.5550250000000  0.5490870000000 1.0
C      1  0.4493890000000  0.5313070000000  0.4167050000000 1.0
C      1  0.4307550000000  0.5094750000000  0.5341550000000 1.0
C      1  0.5656390000000  0.5381170000000  0.4545710000000 1.0
C      1  0.4766300000000  0.5315540000000  0.4205490000000 1.0
C      1  0.5453200000000  0.4337640000000  0.5351600000000 1.0
C      1  0.4502020000000  0.5672850000000  0.4975840000000 1.0
C      1  0.5057100000000  0.4128060000000  0.4795950000000 1.0
C      1  0.5356420000000  0.5394930000000  0.4924840000000 1.0
C      1  0.4450890000000  0.5545370000000  0.5421880000000 1.0
C      1  0.4315250000000  0.4942880000000  0.4469720000000 1.0
C      1  0.5424490000000  0.5025860000000  0.5705660000000 1.0
C      1  0.5824790000000  0.4815710000000  0.4921870000000 1.0
C      1  0.5148440000000  0.4598430000000  0.5061610000000 1.0
C      1  0.4577070000000  0.5536680000000  0.4720490000000 1.0
C      1  0.5309480000000  0.4166230000000  0.4936350000000 1.0
C      1  0.5368640000000  0.5065970000000  0.4300960000000 1.0
C      1  0.4837270000000  0.5065420000000  0.4325000000000 1.0
C      1  0.4641610000000  0.4325560000000  0.4681790000000 1.0
C      1  0.5109910000000  0.5421320000000  0.5689160000000 1.0
C      1  0.5144540000000  0.5726480000000  0.5280240000000 1.0
C      1  0.5511150000000  0.4753320000000  0.5614820000000 1.0
C      1  0.4373690000000  0.4810230000000  0.5353960000000 1.0
END
