TITL C-52006-1288-5 0.0841531421294232 125000 -185.492363504465 0 0 28 (C1) n - 1
REM
REM in /rds/project/t2_vol4/rds-t2-cs072/BORA/CARBON/from-Arr/AIRSS/Generating-Clusters/GAP-ML-2020/Only-C1/SD-CG/HFTN-CG
REM
REM
REM
REM
REM
REM ./C.cell (11c1c37f851c82e70ff6c80c92926a4b)
REM AIRSS Version 0.9.1 bugfix July 2018 build 013d7b7c2542+ Fri, 06 Jul 2018 19:26:36 +0100
REM compiler GCC version 9.3.0
REM options -cpp -mtune=generic -march=x86-64 -g -O0
REM seed -1364495332 -1301892908 188949140 76467369 2060671711 2004667040 -1155308459 -1328063316 247811164 -1182085775 1646110220 -699148514 -389372464 1103388881 -648817234 -1060425778 1232291164 1464310063 1706236545 427959200 -138431927 638070870 1997765675 -1516443654 724055578 -936282112 821267393 994954224 505034720 -292614964 1276128040 948012492 963975894
REM
CELL 1.54180   50.00000   50.00000   50.00000   90.00000   90.00000   90.00000
LATT -1
SFAC C  
C      1  0.5096450000000  0.5135510000000  0.4562500000000 1.0
C      1  0.5065630000000  0.5335820000000  0.5018750000000 1.0
C      1  0.4700350000000  0.5360700000000  0.4338150000000 1.0
C      1  0.5170600000000  0.5288290000000  0.5285260000000 1.0
C      1  0.5489950000000  0.4934580000000  0.5136550000000 1.0
C      1  0.5483080000000  0.5281800000000  0.4788130000000 1.0
C      1  0.5463200000000  0.4785880000000  0.4891740000000 1.0
C      1  0.5051870000000  0.4898970000000  0.5691160000000 1.0
C      1  0.5131790000000  0.4429640000000  0.4760250000000 1.0
C      1  0.4677050000000  0.4987970000000  0.4673890000000 1.0
C      1  0.5286270000000  0.4933230000000  0.5585570000000 1.0
C      1  0.4682310000000  0.4463210000000  0.4986500000000 1.0
C      1  0.4860370000000  0.4514750000000  0.4775960000000 1.0
C      1  0.4562020000000  0.4916680000000  0.5170210000000 1.0
C      1  0.4710580000000  0.5331380000000  0.5319300000000 1.0
C      1  0.4946830000000  0.5328090000000  0.5475780000000 1.0
C      1  0.4854320000000  0.5077320000000  0.5605650000000 1.0
C      1  0.4774510000000  0.5313210000000  0.5036770000000 1.0
C      1  0.4576840000000  0.4638830000000  0.5135900000000 1.0
C      1  0.4811940000000  0.5194300000000  0.4502850000000 1.0
C      1  0.5355040000000  0.5071460000000  0.5346200000000 1.0
C      1  0.5283850000000  0.4673460000000  0.4708870000000 1.0
C      1  0.4629130000000  0.5081820000000  0.4934810000000 1.0
C      1  0.5104590000000  0.4850400000000  0.4568230000000 1.0
C      1  0.5205840000000  0.5288190000000  0.4774530000000 1.0
C      1  0.4619400000000  0.5076470000000  0.5415400000000 1.0
C      1  0.5569390000000  0.5052870000000  0.4891110000000 1.0
C      1  0.4836810000000  0.4755180000000  0.4619980000000 1.0
END
