TITL C-52001-1183-4 5.82060885299035 125000 -747.264480859972 0 0 107 (C1) n - 1
REM
REM in /rds/project/t2_vol4/rds-t2-cs072/BORA/CARBON/from-Arr/AIRSS/Generating-Clusters/GAP-ML-2020/Only-C1/SD-CG/HFTN-CG
REM
REM
REM
REM
REM
REM ./C.cell (11c1c37f851c82e70ff6c80c92926a4b)
REM AIRSS Version 0.9.1 bugfix July 2018 build 013d7b7c2542+ Fri, 06 Jul 2018 19:26:36 +0100
REM compiler GCC version 9.3.0
REM options -cpp -mtune=generic -march=x86-64 -g -O0
REM seed 1057467501 1192072180 989694523 -1741760661 114969399 -1222671096 -1536269 2063591747 247626653 -220745710 112157936 -331864379 706122035 -1216074227 1297913975 105540869 704620880 -1970671854 -684372276 -552651257 -74930349 337539422 -587976219 -910988223 -782673187 -292537679 1098491472 388459008 1186189858 -1248448385 -2066080346 2056180749 1539423009
REM
CELL 1.54180   50.00000   50.00000   50.00000   90.00000   90.00000   90.00000
LATT -1
SFAC C  
C      1  0.5363670000000  0.4107080000000  0.5385630000000 1.0
C      1  0.3940100000000  0.5208660000000  0.5355130000000 1.0
C      1  0.4583540000000  0.4299670000000  0.4802580000000 1.0
C      1  0.4804850000000  0.4468990000000  0.5299550000000 1.0
C      1  0.5518120000000  0.4075730000000  0.5137800000000 1.0
C      1  0.5251460000000  0.5054250000000  0.5030800000000 1.0
C      1  0.4179970000000  0.5271320000000  0.5475030000000 1.0
C      1  0.4011890000000  0.5066280000000  0.5123120000000 1.0
C      1  0.4992630000000  0.4701140000000  0.4801530000000 1.0
C      1  0.5180730000000  0.4938320000000  0.4137970000000 1.0
C      1  0.4702370000000  0.4322590000000  0.4521700000000 1.0
C      1  0.5085750000000  0.5200430000000  0.5391610000000 1.0
C      1  0.5008070000000  0.5320590000000  0.5674410000000 1.0
C      1  0.4647570000000  0.5204850000000  0.4242240000000 1.0
C      1  0.5713880000000  0.5451890000000  0.5548940000000 1.0
C      1  0.5861770000000  0.5316560000000  0.5326640000000 1.0
C      1  0.5028320000000  0.4821870000000  0.5780780000000 1.0
C      1  0.4267260000000  0.4665550000000  0.4940140000000 1.0
C      1  0.4715200000000  0.5329240000000  0.5678800000000 1.0
C      1  0.5395220000000  0.4518830000000  0.5574100000000 1.0
C      1  0.5097320000000  0.4182650000000  0.5354090000000 1.0
C      1  0.4987110000000  0.4305220000000  0.5101650000000 1.0
C      1  0.4142380000000  0.4809950000000  0.5156920000000 1.0
C      1  0.5047620000000  0.5760860000000  0.4517600000000 1.0
C      1  0.5868820000000  0.5034210000000  0.5432700000000 1.0
C      1  0.5140300000000  0.4900790000000  0.5277200000000 1.0
C      1  0.5635800000000  0.4666930000000  0.4812840000000 1.0
C      1  0.5557270000000  0.4511960000000  0.4581400000000 1.0
C      1  0.5131460000000  0.5310440000000  0.4414020000000 1.0
C      1  0.4752290000000  0.4831750000000  0.5667730000000 1.0
C      1  0.5162820000000  0.5582770000000  0.5582370000000 1.0
C      1  0.5318320000000  0.5027350000000  0.4750940000000 1.0
C      1  0.5755940000000  0.4914010000000  0.4704470000000 1.0
C      1  0.5280120000000  0.4675320000000  0.4202100000000 1.0
C      1  0.4290110000000  0.5489950000000  0.4675930000000 1.0
C      1  0.4948440000000  0.5068540000000  0.4481490000000 1.0
C      1  0.4182560000000  0.5218800000000  0.4656140000000 1.0
C      1  0.4647770000000  0.5758110000000  0.4800170000000 1.0
C      1  0.5450460000000  0.5683400000000  0.5207390000000 1.0
C      1  0.5600860000000  0.4326730000000  0.5056810000000 1.0
C      1  0.5781800000000  0.5192380000000  0.4784820000000 1.0
C      1  0.4436310000000  0.4795030000000  0.4126990000000 1.0
C      1  0.4319480000000  0.5039710000000  0.5571210000000 1.0
C      1  0.5032630000000  0.5742230000000  0.5386550000000 1.0
C      1  0.4573710000000  0.4611010000000  0.5692600000000 1.0
C      1  0.4968160000000  0.4370900000000  0.5535010000000 1.0
C      1  0.4058430000000  0.5250100000000  0.4914460000000 1.0
C      1  0.5470060000000  0.5541340000000  0.4725830000000 1.0
C      1  0.5243280000000  0.5332610000000  0.4699640000000 1.0
C      1  0.4958640000000  0.5542830000000  0.4367660000000 1.0
C      1  0.5152920000000  0.5878040000000  0.4901840000000 1.0
C      1  0.5673290000000  0.4914370000000  0.4422650000000 1.0
C      1  0.5323390000000  0.5168130000000  0.4234360000000 1.0
C      1  0.5677740000000  0.5217190000000  0.5755850000000 1.0
C      1  0.4417120000000  0.4424980000000  0.4999060000000 1.0
C      1  0.5528330000000  0.4678110000000  0.4353290000000 1.0
C      1  0.4811130000000  0.4496470000000  0.4309560000000 1.0
C      1  0.5654620000000  0.4907410000000  0.5290090000000 1.0
C      1  0.4303450000000  0.4993160000000  0.4542500000000 1.0
C      1  0.4820810000000  0.5126330000000  0.4741330000000 1.0
C      1  0.4398770000000  0.4565600000000  0.5486370000000 1.0
C      1  0.5424740000000  0.4264340000000  0.4622010000000 1.0
C      1  0.4577770000000  0.5726860000000  0.5079190000000 1.0
C      1  0.4516660000000  0.4421460000000  0.5268940000000 1.0
C      1  0.5378080000000  0.5253160000000  0.5419080000000 1.0
C      1  0.4417600000000  0.4801670000000  0.4731660000000 1.0
C      1  0.5026320000000  0.5269350000000  0.4911970000000 1.0
C      1  0.4598460000000  0.5526090000000  0.5510090000000 1.0
C      1  0.5148820000000  0.4528310000000  0.4961170000000 1.0
C      1  0.5126890000000  0.4866240000000  0.4622050000000 1.0
C      1  0.5416570000000  0.5127670000000  0.5695420000000 1.0
C      1  0.4901790000000  0.5864770000000  0.4744040000000 1.0
C      1  0.5098400000000  0.4460060000000  0.4290550000000 1.0
C      1  0.4870440000000  0.4983360000000  0.4207350000000 1.0
C      1  0.5725950000000  0.5316620000000  0.5056470000000 1.0
C      1  0.5898320000000  0.5054810000000  0.5704050000000 1.0
C      1  0.5450720000000  0.4585000000000  0.5051510000000 1.0
C      1  0.5210590000000  0.5823860000000  0.5172110000000 1.0
C      1  0.5130940000000  0.4563220000000  0.5690100000000 1.0
C      1  0.4579010000000  0.5075600000000  0.5682520000000 1.0
C      1  0.4336580000000  0.5503720000000  0.5414740000000 1.0
C      1  0.4907630000000  0.5338050000000  0.5176590000000 1.0
C      1  0.5488340000000  0.4258560000000  0.5586760000000 1.0
C      1  0.5580210000000  0.5170160000000  0.4356970000000 1.0
C      1  0.5522820000000  0.4138600000000  0.4860440000000 1.0
C      1  0.5427180000000  0.4725850000000  0.5325990000000 1.0
C      1  0.4830720000000  0.4164590000000  0.4879910000000 1.0
C      1  0.5444560000000  0.5541050000000  0.5466810000000 1.0
C      1  0.4698310000000  0.4733350000000  0.4189300000000 1.0
C      1  0.5511010000000  0.5136030000000  0.5178020000000 1.0
C      1  0.5296540000000  0.5771370000000  0.4671560000000 1.0
C      1  0.5656900000000  0.5346740000000  0.4579990000000 1.0
C      1  0.4239710000000  0.4790000000000  0.5430010000000 1.0
C      1  0.4683830000000  0.5468580000000  0.4368660000000 1.0
C      1  0.4417890000000  0.5028050000000  0.4278530000000 1.0
C      1  0.4699440000000  0.4919100000000  0.5135510000000 1.0
C      1  0.4865200000000  0.4778140000000  0.5318740000000 1.0
C      1  0.4933860000000  0.4169720000000  0.4608880000000 1.0
C      1  0.4174590000000  0.5517680000000  0.4942660000000 1.0
C      1  0.5584490000000  0.5562610000000  0.4993680000000 1.0
C      1  0.5173320000000  0.4246780000000  0.4474570000000 1.0
C      1  0.4662850000000  0.5187620000000  0.5153470000000 1.0
C      1  0.4772750000000  0.5641220000000  0.5297090000000 1.0
C      1  0.4530300000000  0.5596500000000  0.4584830000000 1.0
C      1  0.4725920000000  0.4855940000000  0.4847650000000 1.0
C      1  0.5157810000000  0.5081370000000  0.5801440000000 1.0
C      1  0.4324980000000  0.5624690000000  0.5152790000000 1.0
END
