TITL C-52011-1670-4 30.6451636479218 125000 -522.341858604956 0 0 77 (C1) n - 1
REM
REM in /rds/project/t2_vol4/rds-t2-cs072/BORA/CARBON/from-Arr/AIRSS/Generating-Clusters/GAP-ML-2020/Only-C1/SD-CG/HFTN-CG
REM
REM
REM
REM
REM
REM ./C.cell (11c1c37f851c82e70ff6c80c92926a4b)
REM AIRSS Version 0.9.1 bugfix July 2018 build 013d7b7c2542+ Fri, 06 Jul 2018 19:26:36 +0100
REM compiler GCC version 9.3.0
REM options -cpp -mtune=generic -march=x86-64 -g -O0
REM seed -267806281 -250260636 369447957 1124922831 819277409 1623333746 893712159 -2023464141 946996456 1806199304 -84209283 604862647 -1412111729 1382506315 1646330307 -274918201 873393855 674685706 -127856531 -1190972715 -1209851315 1332026136 -1257432218 -1467255165 1185277889 2133207195 -251750048 -2080134606 -919381582 917880995 1338151322 811897292 -1063239882
REM
CELL 1.54180   50.00000   50.00000   50.00000   90.00000   90.00000   90.00000
LATT -1
SFAC C  
C      1  0.4232480000000  0.4669430000000  0.5264020000000 1.0
C      1  0.5813960000000  0.5200040000000  0.5018360000000 1.0
C      1  0.4718810000000  0.5428100000000  0.5406100000000 1.0
C      1  0.4572060000000  0.5428170000000  0.4286070000000 1.0
C      1  0.4437250000000  0.4756200000000  0.4566410000000 1.0
C      1  0.4963590000000  0.4256800000000  0.4991810000000 1.0
C      1  0.5075350000000  0.4737000000000  0.5784090000000 1.0
C      1  0.4821030000000  0.5468510000000  0.5129700000000 1.0
C      1  0.5261600000000  0.5189150000000  0.5866420000000 1.0
C      1  0.4898660000000  0.5756420000000  0.4777980000000 1.0
C      1  0.4852100000000  0.4645330000000  0.4380870000000 1.0
C      1  0.4825210000000  0.4319400000000  0.5234870000000 1.0
C      1  0.5566070000000  0.4530140000000  0.5316320000000 1.0
C      1  0.4578390000000  0.5421670000000  0.4953040000000 1.0
C      1  0.4253860000000  0.4944460000000  0.5342180000000 1.0
C      1  0.4355630000000  0.4606220000000  0.4793450000000 1.0
C      1  0.4636910000000  0.5623440000000  0.4739430000000 1.0
C      1  0.4625830000000  0.5182960000000  0.4413730000000 1.0
C      1  0.4945750000000  0.4549320000000  0.4647690000000 1.0
C      1  0.4330850000000  0.5444840000000  0.5138790000000 1.0
C      1  0.5144910000000  0.5323620000000  0.5659660000000 1.0
C      1  0.4476650000000  0.5036130000000  0.4619340000000 1.0
C      1  0.4717440000000  0.5550810000000  0.4473590000000 1.0
C      1  0.5452510000000  0.4821570000000  0.5576360000000 1.0
C      1  0.5276570000000  0.5481690000000  0.5445350000000 1.0
C      1  0.5571560000000  0.4813230000000  0.4446660000000 1.0
C      1  0.5239070000000  0.4326110000000  0.4920160000000 1.0
C      1  0.5382110000000  0.4997660000000  0.4893900000000 1.0
C      1  0.5239580000000  0.5435400000000  0.4631310000000 1.0
C      1  0.4877010000000  0.5229910000000  0.5554960000000 1.0
C      1  0.4995880000000  0.4877350000000  0.4277540000000 1.0
C      1  0.4204990000000  0.4743030000000  0.4982480000000 1.0
C      1  0.5219580000000  0.4432000000000  0.4655320000000 1.0
C      1  0.5431430000000  0.4599360000000  0.4589800000000 1.0
C      1  0.4903320000000  0.5114820000000  0.4402590000000 1.0
C      1  0.5842780000000  0.5096520000000  0.4743930000000 1.0
C      1  0.5467690000000  0.5305770000000  0.4479770000000 1.0
C      1  0.5299130000000  0.5341830000000  0.5176570000000 1.0
C      1  0.5030730000000  0.5231870000000  0.5113080000000 1.0
C      1  0.5727320000000  0.5045220000000  0.5234970000000 1.0
C      1  0.4703260000000  0.4864080000000  0.5043180000000 1.0
C      1  0.5510080000000  0.4721990000000  0.4845580000000 1.0
C      1  0.4522420000000  0.4387870000000  0.4884360000000 1.0
C      1  0.5442040000000  0.5080380000000  0.5169950000000 1.0
C      1  0.5445570000000  0.5046420000000  0.4329620000000 1.0
C      1  0.5399080000000  0.4535640000000  0.5554490000000 1.0
C      1  0.5009920000000  0.5621920000000  0.4547750000000 1.0
C      1  0.4529010000000  0.5096730000000  0.4907320000000 1.0
C      1  0.5153030000000  0.4679520000000  0.5152040000000 1.0
C      1  0.5732580000000  0.4855100000000  0.4680440000000 1.0
C      1  0.5237200000000  0.4951710000000  0.4178640000000 1.0
C      1  0.5042180000000  0.5218260000000  0.4636140000000 1.0
C      1  0.4538000000000  0.4332140000000  0.5169860000000 1.0
C      1  0.4242630000000  0.5034570000000  0.5042460000000 1.0
C      1  0.4958520000000  0.4786760000000  0.4912820000000 1.0
C      1  0.5404970000000  0.4527580000000  0.5067980000000 1.0
C      1  0.4129620000000  0.5296160000000  0.5028770000000 1.0
C      1  0.5006370000000  0.5049170000000  0.5344050000000 1.0
C      1  0.4979520000000  0.5718010000000  0.5035380000000 1.0
C      1  0.5667050000000  0.5430230000000  0.4893970000000 1.0
C      1  0.5260960000000  0.5732980000000  0.5086980000000 1.0
C      1  0.4413760000000  0.5102490000000  0.5506750000000 1.0
C      1  0.5090450000000  0.5049150000000  0.4866550000000 1.0
C      1  0.5706500000000  0.5327120000000  0.4627050000000 1.0
C      1  0.5385400000000  0.5508040000000  0.4926190000000 1.0
C      1  0.5320630000000  0.5736010000000  0.5363030000000 1.0
C      1  0.4785390000000  0.4343000000000  0.4786310000000 1.0
C      1  0.5290830000000  0.4920110000000  0.5815030000000 1.0
C      1  0.4787830000000  0.4840920000000  0.5336930000000 1.0
C      1  0.4672180000000  0.5006870000000  0.5571200000000 1.0
C      1  0.5259310000000  0.4910460000000  0.5322250000000 1.0
C      1  0.5689090000000  0.4805930000000  0.5382870000000 1.0
C      1  0.4577480000000  0.4627930000000  0.4366740000000 1.0
C      1  0.4442720000000  0.5374960000000  0.5402750000000 1.0
C      1  0.5112620000000  0.4535740000000  0.5601510000000 1.0
C      1  0.4334980000000  0.4423240000000  0.5327450000000 1.0
C      1  0.4951160000000  0.4559290000000  0.5356920000000 1.0
END
