TITL C-52000-1261-7 -0.03725773394318 125000 -308.499980655434 0 0 47 (C1) n - 1
REM
REM in /rds/project/t2_vol4/rds-t2-cs072/BORA/CARBON/from-Arr/AIRSS/Generating-Clusters/GAP-ML-2020/Only-C1/SD-CG/HFTN-CG
REM
REM
REM
REM
REM
REM ./C.cell (11c1c37f851c82e70ff6c80c92926a4b)
REM AIRSS Version 0.9.1 bugfix July 2018 build 013d7b7c2542+ Fri, 06 Jul 2018 19:26:36 +0100
REM compiler GCC version 9.3.0
REM options -cpp -mtune=generic -march=x86-64 -g -O0
REM seed 1077515105 -346607133 -65646790 -1828097546 2035902066 1312512947 -1111979205 -1542086678 1059098393 1849654373 -377896093 -1733309001 -978082343 1242063876 1338967625 1388886793 365912465 -881454885 1670494780 1286802154 1668015473 -1894797647 443044388 453043226 271048540 2021794979 466862265 -1695766037 -1386158570 -271597845 -969105919 2120136735 950519176
REM
CELL 1.54180   50.00000   50.00000   50.00000   90.00000   90.00000   90.00000
LATT -1
SFAC C  
C      1  0.4641660000000  0.5491720000000  0.5273780000000 1.0
C      1  0.4444360000000  0.5365010000000  0.5097990000000 1.0
C      1  0.4927300000000  0.4547960000000  0.5342340000000 1.0
C      1  0.5764230000000  0.4801150000000  0.5035650000000 1.0
C      1  0.5280740000000  0.4704140000000  0.4479050000000 1.0
C      1  0.4951690000000  0.4903570000000  0.4709990000000 1.0
C      1  0.4532900000000  0.4592990000000  0.5085020000000 1.0
C      1  0.4916540000000  0.4439050000000  0.4834140000000 1.0
C      1  0.5134200000000  0.5083770000000  0.4926460000000 1.0
C      1  0.5098930000000  0.4714790000000  0.5519690000000 1.0
C      1  0.4885520000000  0.5507610000000  0.5123140000000 1.0
C      1  0.5096690000000  0.5250960000000  0.5433800000000 1.0
C      1  0.4971550000000  0.5478940000000  0.4608970000000 1.0
C      1  0.5555450000000  0.5253070000000  0.5010070000000 1.0
C      1  0.4652360000000  0.4554990000000  0.4827380000000 1.0
C      1  0.5118010000000  0.4630570000000  0.4714410000000 1.0
C      1  0.5519290000000  0.5005270000000  0.5407330000000 1.0
C      1  0.4985700000000  0.5233740000000  0.5147840000000 1.0
C      1  0.4420100000000  0.5397940000000  0.4837490000000 1.0
C      1  0.5367680000000  0.5231310000000  0.4779380000000 1.0
C      1  0.5213650000000  0.4983650000000  0.4384250000000 1.0
C      1  0.4384000000000  0.4838290000000  0.5124210000000 1.0
C      1  0.4923750000000  0.4793700000000  0.5167830000000 1.0
C      1  0.5218050000000  0.5484190000000  0.4725100000000 1.0
C      1  0.5442020000000  0.5398900000000  0.5211890000000 1.0
C      1  0.4541020000000  0.5241960000000  0.4637810000000 1.0
C      1  0.4457480000000  0.4971240000000  0.4683500000000 1.0
C      1  0.4991980000000  0.4943440000000  0.5636550000000 1.0
C      1  0.5541230000000  0.4799980000000  0.4584320000000 1.0
C      1  0.4798020000000  0.5284670000000  0.4500890000000 1.0
C      1  0.5582870000000  0.4704150000000  0.4855960000000 1.0
C      1  0.4989380000000  0.5581350000000  0.4871420000000 1.0
C      1  0.4674460000000  0.4796610000000  0.4681560000000 1.0
C      1  0.4775630000000  0.5035770000000  0.5176980000000 1.0
C      1  0.5205530000000  0.4847250000000  0.5102800000000 1.0
C      1  0.4634410000000  0.5255920000000  0.5461420000000 1.0
C      1  0.4502140000000  0.5094860000000  0.5243880000000 1.0
C      1  0.5326940000000  0.4804720000000  0.5369600000000 1.0
C      1  0.5317930000000  0.4647230000000  0.4930700000000 1.0
C      1  0.4273260000000  0.4914790000000  0.4883710000000 1.0
C      1  0.4691110000000  0.4423280000000  0.5257090000000 1.0
C      1  0.4870990000000  0.5186570000000  0.5604540000000 1.0
C      1  0.4933410000000  0.4353260000000  0.5106820000000 1.0
C      1  0.5440490000000  0.5074240000000  0.4545470000000 1.0
C      1  0.5378920000000  0.5264530000000  0.5445540000000 1.0
C      1  0.4967100000000  0.5062370000000  0.4465810000000 1.0
C      1  0.5659340000000  0.5024530000000  0.5146410000000 1.0
END
