TITL C-52025-1478-13 0.105443482223052 125000 -645.69703116261 0 0 94 (C1) n - 1
REM
REM in /rds/project/t2_vol4/rds-t2-cs072/BORA/CARBON/from-Arr/AIRSS/Generating-Clusters/GAP-ML-2020/Only-C1/SD-CG/HFTN-CG
REM
REM
REM
REM
REM
REM ./C.cell (11c1c37f851c82e70ff6c80c92926a4b)
REM AIRSS Version 0.9.1 bugfix July 2018 build 013d7b7c2542+ Fri, 06 Jul 2018 19:26:36 +0100
REM compiler GCC version 9.3.0
REM options -cpp -mtune=generic -march=x86-64 -g -O0
REM seed -1520208340 -196328380 2009677434 1670726593 653927739 -1416998472 1093802942 108141701 -1987695747 -2132127122 -262786719 -1889791655 -1511793589 -1183737740 1170721477 -1145368273 -1238528687 -25005306 725314230 389398723 -1837542639 -1255360747 1766592938 -74774098 -1088393075 1041042374 1052274232 -113529293 -661281083 937783149 1548746076 -166818625 1694997735
REM
CELL 1.54180   50.00000   50.00000   50.00000   90.00000   90.00000   90.00000
LATT -1
SFAC C  
C      1  0.5142990000000  0.5219060000000  0.4975390000000 1.0
C      1  0.5085670000000  0.4068590000000  0.4971730000000 1.0
C      1  0.5748820000000  0.5610990000000  0.5024310000000 1.0
C      1  0.4568750000000  0.5359600000000  0.4526850000000 1.0
C      1  0.4855900000000  0.4553380000000  0.5412240000000 1.0
C      1  0.4977320000000  0.4305110000000  0.4417590000000 1.0
C      1  0.4181480000000  0.5171290000000  0.5098910000000 1.0
C      1  0.4635850000000  0.4374360000000  0.5311490000000 1.0
C      1  0.5335220000000  0.4751850000000  0.5482860000000 1.0
C      1  0.4788460000000  0.5745140000000  0.4715880000000 1.0
C      1  0.4627860000000  0.5747330000000  0.4951590000000 1.0
C      1  0.5526530000000  0.5705810000000  0.4891340000000 1.0
C      1  0.4976870000000  0.5493050000000  0.5520370000000 1.0
C      1  0.4690160000000  0.4352770000000  0.4791640000000 1.0
C      1  0.5202660000000  0.5480250000000  0.4806750000000 1.0
C      1  0.5327270000000  0.5239370000000  0.4308120000000 1.0
C      1  0.5350160000000  0.5811110000000  0.5112940000000 1.0
C      1  0.4473630000000  0.4738130000000  0.4251550000000 1.0
C      1  0.4815570000000  0.4922450000000  0.5782950000000 1.0
C      1  0.4761580000000  0.5573280000000  0.4496740000000 1.0
C      1  0.5050370000000  0.5743150000000  0.4811260000000 1.0
C      1  0.5442620000000  0.5673950000000  0.5340650000000 1.0
C      1  0.4808060000000  0.5785800000000  0.5179170000000 1.0
C      1  0.4745500000000  0.5654190000000  0.5421790000000 1.0
C      1  0.5059070000000  0.4730380000000  0.4946450000000 1.0
C      1  0.4784270000000  0.5093800000000  0.4178600000000 1.0
C      1  0.5376940000000  0.5366410000000  0.5673910000000 1.0
C      1  0.5027560000000  0.5202760000000  0.4302390000000 1.0
C      1  0.5710620000000  0.5079580000000  0.4885480000000 1.0
C      1  0.5517740000000  0.5085650000000  0.4458330000000 1.0
C      1  0.4362740000000  0.4986230000000  0.4320720000000 1.0
C      1  0.4282770000000  0.4720070000000  0.5326700000000 1.0
C      1  0.5681350000000  0.4997540000000  0.5778330000000 1.0
C      1  0.5587740000000  0.4841500000000  0.5578820000000 1.0
C      1  0.5615080000000  0.5225330000000  0.5631880000000 1.0
C      1  0.5004290000000  0.5491320000000  0.4377790000000 1.0
C      1  0.4994430000000  0.5017570000000  0.4560770000000 1.0
C      1  0.5145780000000  0.4121350000000  0.4516520000000 1.0
C      1  0.4486960000000  0.5516750000000  0.5469550000000 1.0
C      1  0.4400400000000  0.4487390000000  0.5191690000000 1.0
C      1  0.4432220000000  0.4791420000000  0.5570320000000 1.0
C      1  0.4429810000000  0.4460040000000  0.4913040000000 1.0
C      1  0.4401770000000  0.4670150000000  0.4717710000000 1.0
C      1  0.5618440000000  0.5244580000000  0.4671860000000 1.0
C      1  0.5681230000000  0.4487820000000  0.4939820000000 1.0
C      1  0.4558620000000  0.5299460000000  0.5655130000000 1.0
C      1  0.4674850000000  0.5215140000000  0.5208320000000 1.0
C      1  0.4351820000000  0.5412200000000  0.4725740000000 1.0
C      1  0.5626100000000  0.4567080000000  0.5211050000000 1.0
C      1  0.4940640000000  0.4743690000000  0.4452190000000 1.0
C      1  0.4633080000000  0.4856710000000  0.4812890000000 1.0
C      1  0.5266970000000  0.4160570000000  0.4767240000000 1.0
C      1  0.4130450000000  0.4925400000000  0.5210780000000 1.0
C      1  0.4745590000000  0.5113060000000  0.4701930000000 1.0
C      1  0.5422080000000  0.4421840000000  0.4797060000000 1.0
C      1  0.4532440000000  0.5204170000000  0.4284020000000 1.0
C      1  0.5463590000000  0.5507350000000  0.4679920000000 1.0
C      1  0.5731960000000  0.5292950000000  0.5370820000000 1.0
C      1  0.5114070000000  0.5331360000000  0.5747460000000 1.0
C      1  0.5631620000000  0.5092090000000  0.5175530000000 1.0
C      1  0.5559790000000  0.4807620000000  0.4523860000000 1.0
C      1  0.5160020000000  0.4977610000000  0.4810210000000 1.0
C      1  0.4417710000000  0.5562900000000  0.4963490000000 1.0
C      1  0.4200440000000  0.5206620000000  0.4823370000000 1.0
C      1  0.4678550000000  0.4346850000000  0.4497660000000 1.0
C      1  0.5146760000000  0.4953190000000  0.5386540000000 1.0
C      1  0.4602030000000  0.5116490000000  0.5870380000000 1.0
C      1  0.5000960000000  0.5076670000000  0.5629230000000 1.0
C      1  0.4799420000000  0.4120950000000  0.4932210000000 1.0
C      1  0.5039990000000  0.4131790000000  0.5255380000000 1.0
C      1  0.4397770000000  0.5046370000000  0.5706430000000 1.0
C      1  0.4752610000000  0.4143890000000  0.5211860000000 1.0
C      1  0.5395170000000  0.4576910000000  0.4532690000000 1.0
C      1  0.5263670000000  0.4542980000000  0.5015220000000 1.0
C      1  0.4714900000000  0.4954700000000  0.5099550000000 1.0
C      1  0.5072210000000  0.5847420000000  0.5068320000000 1.0
C      1  0.5297570000000  0.5182690000000  0.5234490000000 1.0
C      1  0.5348780000000  0.4516730000000  0.5311420000000 1.0
C      1  0.5264020000000  0.5452190000000  0.5410140000000 1.0
C      1  0.4476700000000  0.4546530000000  0.4458910000000 1.0
C      1  0.5742120000000  0.4825000000000  0.4750650000000 1.0
C      1  0.5147840000000  0.4542070000000  0.4393990000000 1.0
C      1  0.4845730000000  0.5214880000000  0.4971280000000 1.0
C      1  0.4939290000000  0.4800680000000  0.5214670000000 1.0
C      1  0.4406890000000  0.5386830000000  0.5205400000000 1.0
C      1  0.5705410000000  0.5558910000000  0.5286090000000 1.0
C      1  0.4844310000000  0.4645500000000  0.4754330000000 1.0
C      1  0.4706350000000  0.4706650000000  0.5629040000000 1.0
C      1  0.5891630000000  0.4604840000000  0.4813050000000 1.0
C      1  0.5293810000000  0.5501030000000  0.4427830000000 1.0
C      1  0.4798340000000  0.5255490000000  0.5474340000000 1.0
C      1  0.5108180000000  0.4364520000000  0.5395220000000 1.0
C      1  0.5680760000000  0.4826970000000  0.5306400000000 1.0
C      1  0.4755910000000  0.4814830000000  0.4221480000000 1.0
END
