TITL C-52025-1478-6 -0.0439383123970336 125000 -455.161492898988 0 0 66 (C1) n - 1
REM
REM in /rds/project/t2_vol4/rds-t2-cs072/BORA/CARBON/from-Arr/AIRSS/Generating-Clusters/GAP-ML-2020/Only-C1/SD-CG/HFTN-CG
REM
REM
REM
REM
REM
REM ./C.cell (11c1c37f851c82e70ff6c80c92926a4b)
REM AIRSS Version 0.9.1 bugfix July 2018 build 013d7b7c2542+ Fri, 06 Jul 2018 19:26:36 +0100
REM compiler GCC version 9.3.0
REM options -cpp -mtune=generic -march=x86-64 -g -O0
REM seed -934934765 -1908099895 -1436673692 -672421566 727964443 -2064423323 918423719 612160290 776505683 66315110 746664183 -736952495 -374433503 -2110082914 1105243387 1482166218 -1218195311 -830457775 -853269578 -860158522 -333909699 1126133740 -138947140 -1802821979 987045554 1326024058 1682161159 41750247 -416666952 1286690149 321787761 1271275934 -696807183
REM
CELL 1.54180   50.00000   50.00000   50.00000   90.00000   90.00000   90.00000
LATT -1
SFAC C  
C      1  0.4540270000000  0.4673460000000  0.5364120000000 1.0
C      1  0.5101600000000  0.5673970000000  0.4862660000000 1.0
C      1  0.5593660000000  0.4692850000000  0.5263390000000 1.0
C      1  0.4908400000000  0.5477630000000  0.4965930000000 1.0
C      1  0.4936610000000  0.5351120000000  0.4231610000000 1.0
C      1  0.4940260000000  0.4729990000000  0.4988220000000 1.0
C      1  0.5025320000000  0.4250230000000  0.5068980000000 1.0
C      1  0.5475580000000  0.5095520000000  0.4996150000000 1.0
C      1  0.4919590000000  0.5542020000000  0.4443870000000 1.0
C      1  0.5365960000000  0.4906040000000  0.4546060000000 1.0
C      1  0.4965930000000  0.4572530000000  0.4502970000000 1.0
C      1  0.5165830000000  0.5181660000000  0.4222280000000 1.0
C      1  0.4936090000000  0.5176230000000  0.4889990000000 1.0
C      1  0.4529930000000  0.5265800000000  0.4456250000000 1.0
C      1  0.5254430000000  0.5657520000000  0.5105290000000 1.0
C      1  0.4929570000000  0.4354930000000  0.5307750000000 1.0
C      1  0.4608290000000  0.5320400000000  0.5491270000000 1.0
C      1  0.5296310000000  0.5200900000000  0.5230750000000 1.0
C      1  0.4653250000000  0.4432720000000  0.5264670000000 1.0
C      1  0.4389220000000  0.4779110000000  0.5141400000000 1.0
C      1  0.4685400000000  0.5104650000000  0.5695750000000 1.0
C      1  0.5731280000000  0.5167190000000  0.5367190000000 1.0
C      1  0.5240710000000  0.4381780000000  0.4900950000000 1.0
C      1  0.4693130000000  0.5180980000000  0.4240160000000 1.0
C      1  0.5511280000000  0.5549780000000  0.5107460000000 1.0
C      1  0.4433830000000  0.5284330000000  0.5271600000000 1.0
C      1  0.5016610000000  0.4364850000000  0.4677670000000 1.0
C      1  0.5509140000000  0.5362720000000  0.4875660000000 1.0
C      1  0.4950600000000  0.5126190000000  0.5821250000000 1.0
C      1  0.5057120000000  0.4915680000000  0.4203010000000 1.0
C      1  0.5367990000000  0.5434940000000  0.5605340000000 1.0
C      1  0.5293170000000  0.4985410000000  0.5681070000000 1.0
C      1  0.4926590000000  0.5025120000000  0.5352220000000 1.0
C      1  0.5673620000000  0.4966020000000  0.5205250000000 1.0
C      1  0.4316460000000  0.5047800000000  0.5134570000000 1.0
C      1  0.4718740000000  0.4839920000000  0.5537740000000 1.0
C      1  0.5221040000000  0.5267880000000  0.5751390000000 1.0
C      1  0.5161280000000  0.5598910000000  0.4596890000000 1.0
C      1  0.4597240000000  0.4406410000000  0.4977320000000 1.0
C      1  0.4943820000000  0.4676580000000  0.5660550000000 1.0
C      1  0.4880470000000  0.4980280000000  0.5072150000000 1.0
C      1  0.4459240000000  0.4642560000000  0.4889600000000 1.0
C      1  0.4414340000000  0.5064400000000  0.4633280000000 1.0
C      1  0.5079350000000  0.4866810000000  0.5820940000000 1.0
C      1  0.4654590000000  0.5503540000000  0.4572800000000 1.0
C      1  0.4878830000000  0.5324560000000  0.5395360000000 1.0
C      1  0.4934700000000  0.5102900000000  0.4641780000000 1.0
C      1  0.4501210000000  0.4784270000000  0.4639140000000 1.0
C      1  0.4322610000000  0.5174210000000  0.4874590000000 1.0
C      1  0.5387380000000  0.5401370000000  0.4616050000000 1.0
C      1  0.5647020000000  0.4471710000000  0.5105870000000 1.0
C      1  0.5295470000000  0.4701650000000  0.5299480000000 1.0
C      1  0.5366730000000  0.5180750000000  0.4435690000000 1.0
C      1  0.5526280000000  0.5373980000000  0.5365640000000 1.0
C      1  0.4708100000000  0.4716230000000  0.4448240000000 1.0
C      1  0.5223300000000  0.4679280000000  0.4990280000000 1.0
C      1  0.5092260000000  0.4531170000000  0.5460760000000 1.0
C      1  0.5525920000000  0.4320170000000  0.4935630000000 1.0
C      1  0.5175060000000  0.4746870000000  0.4394480000000 1.0
C      1  0.5070750000000  0.5436860000000  0.5216700000000 1.0
C      1  0.5384080000000  0.4876610000000  0.4829300000000 1.0
C      1  0.4771130000000  0.4906260000000  0.4231970000000 1.0
C      1  0.4824300000000  0.4274130000000  0.4868170000000 1.0
C      1  0.4433660000000  0.5410000000000  0.5003020000000 1.0
C      1  0.4640370000000  0.5535250000000  0.4858730000000 1.0
C      1  0.5217720000000  0.4972390000000  0.5393700000000 1.0
END
