TITL C-52022-1195-5 -0.0934115247405747 125000 -223.962672583612 0 0 34 (C1) n - 1
REM
REM in /rds/project/t2_vol4/rds-t2-cs072/BORA/CARBON/from-Arr/AIRSS/Generating-Clusters/GAP-ML-2020/Only-C1/SD-CG/HFTN-CG
REM
REM
REM
REM
REM
REM ./C.cell (11c1c37f851c82e70ff6c80c92926a4b)
REM AIRSS Version 0.9.1 bugfix July 2018 build 013d7b7c2542+ Fri, 06 Jul 2018 19:26:36 +0100
REM compiler GCC version 9.3.0
REM options -cpp -mtune=generic -march=x86-64 -g -O0
REM seed 1693761953 971180972 -1557531746 -1025465711 1363701442 483291948 -1544618880 -1629769359 1585623037 -1340683987 -1322683520 323554723 1438806573 800905775 1989677940 528341859 135024114 -889116421 -1428799959 1998269916 639916522 1744458476 1784977611 -2017530158 -391191573 -1103778579 -1335806919 -1594680308 -1317502629 -1099056117 867672979 -605426484 1921670322
REM
CELL 1.54180   50.00000   50.00000   50.00000   90.00000   90.00000   90.00000
LATT -1
SFAC C  
C      1  0.5296530000000  0.4949740000000  0.5277200000000 1.0
C      1  0.5129390000000  0.4420210000000  0.4813830000000 1.0
C      1  0.4410940000000  0.5044370000000  0.4730660000000 1.0
C      1  0.4949510000000  0.4634600000000  0.5133910000000 1.0
C      1  0.5323050000000  0.4622980000000  0.4707970000000 1.0
C      1  0.4812530000000  0.5184510000000  0.5640880000000 1.0
C      1  0.4980460000000  0.5384170000000  0.5305880000000 1.0
C      1  0.5583920000000  0.5226270000000  0.5049880000000 1.0
C      1  0.5025180000000  0.4888950000000  0.5226710000000 1.0
C      1  0.5019160000000  0.4984800000000  0.4470230000000 1.0
C      1  0.5095770000000  0.5211770000000  0.4626300000000 1.0
C      1  0.5208770000000  0.5514960000000  0.5184170000000 1.0
C      1  0.5448820000000  0.5374140000000  0.5279460000000 1.0
C      1  0.5327020000000  0.5385150000000  0.4706570000000 1.0
C      1  0.5484850000000  0.4765320000000  0.4861640000000 1.0
C      1  0.4953230000000  0.5311630000000  0.4859850000000 1.0
C      1  0.4591890000000  0.5103170000000  0.5172410000000 1.0
C      1  0.4397520000000  0.5164230000000  0.4954090000000 1.0
C      1  0.4749670000000  0.4965750000000  0.4386940000000 1.0
C      1  0.4923690000000  0.4515780000000  0.4621910000000 1.0
C      1  0.4873750000000  0.5167220000000  0.5120980000000 1.0
C      1  0.5323820000000  0.5176210000000  0.5451440000000 1.0
C      1  0.5154160000000  0.5513910000000  0.4908920000000 1.0
C      1  0.4575880000000  0.4865110000000  0.4582390000000 1.0
C      1  0.4514720000000  0.4815130000000  0.5466960000000 1.0
C      1  0.4677820000000  0.4633650000000  0.5018850000000 1.0
C      1  0.4682940000000  0.4632460000000  0.4733450000000 1.0
C      1  0.5108530000000  0.4710890000000  0.4516980000000 1.0
C      1  0.5050940000000  0.5266470000000  0.5552040000000 1.0
C      1  0.4542470000000  0.4798220000000  0.5196490000000 1.0
C      1  0.5582590000000  0.5337860000000  0.4795140000000 1.0
C      1  0.4606990000000  0.5080920000000  0.5495400000000 1.0
C      1  0.5494180000000  0.4943590000000  0.5070270000000 1.0
C      1  0.5099300000000  0.4405880000000  0.5080170000000 1.0
END
