TITL C-52007-1181-4 -0.00277944048281018 125000 -749.342850346525 0 0 107 (C1) n - 1
REM
REM in /rds/project/t2_vol4/rds-t2-cs072/BORA/CARBON/from-Arr/AIRSS/Generating-Clusters/GAP-ML-2020/Only-C1/SD-CG/HFTN-CG
REM
REM
REM
REM
REM
REM ./C.cell (11c1c37f851c82e70ff6c80c92926a4b)
REM AIRSS Version 0.9.1 bugfix July 2018 build 013d7b7c2542+ Fri, 06 Jul 2018 19:26:36 +0100
REM compiler GCC version 9.3.0
REM options -cpp -mtune=generic -march=x86-64 -g -O0
REM seed -1690681962 261821789 1230541830 -1914960043 -1784790164 318532696 -716727341 1804573916 1944193788 1828036067 1621798520 2147210705 1832589927 -481626002 -296017686 -169517328 -810146814 -18725714 242163739 1134020463 -2112741536 -1356939150 -478683109 1936164051 2071524643 -1233742035 95000118 850010385 1295482440 -1434357030 -879922623 340882970 -201372909
REM
CELL 1.54180   50.00000   50.00000   50.00000   90.00000   90.00000   90.00000
LATT -1
SFAC C  
C      1  0.4948210000000  0.5417170000000  0.4905570000000 1.0
C      1  0.5003930000000  0.4323830000000  0.5554380000000 1.0
C      1  0.5617680000000  0.4872310000000  0.4398100000000 1.0
C      1  0.4445090000000  0.4879290000000  0.4507910000000 1.0
C      1  0.4419140000000  0.4396970000000  0.4613130000000 1.0
C      1  0.4260700000000  0.4733210000000  0.5472410000000 1.0
C      1  0.5151850000000  0.5547500000000  0.4373470000000 1.0
C      1  0.4565500000000  0.5060810000000  0.5671390000000 1.0
C      1  0.5685040000000  0.4652960000000  0.4602650000000 1.0
C      1  0.4481670000000  0.5732930000000  0.4999330000000 1.0
C      1  0.5314660000000  0.5014860000000  0.5560040000000 1.0
C      1  0.5116260000000  0.4085350000000  0.4983690000000 1.0
C      1  0.4462500000000  0.4546950000000  0.5541060000000 1.0
C      1  0.4634610000000  0.4587140000000  0.5768680000000 1.0
C      1  0.5221030000000  0.5287490000000  0.5438550000000 1.0
C      1  0.5729370000000  0.4638040000000  0.4888720000000 1.0
C      1  0.5451790000000  0.5485670000000  0.5500100000000 1.0
C      1  0.4739010000000  0.4793770000000  0.4620280000000 1.0
C      1  0.4670410000000  0.5536270000000  0.4340570000000 1.0
C      1  0.5177770000000  0.5950220000000  0.4956110000000 1.0
C      1  0.4691110000000  0.5051990000000  0.5032440000000 1.0
C      1  0.4647970000000  0.5744550000000  0.4531980000000 1.0
C      1  0.4735850000000  0.4682870000000  0.4873380000000 1.0
C      1  0.5605680000000  0.5020630000000  0.5495420000000 1.0
C      1  0.4314910000000  0.5009380000000  0.5544830000000 1.0
C      1  0.4547350000000  0.5094670000000  0.4328400000000 1.0
C      1  0.5559830000000  0.4516920000000  0.5466020000000 1.0
C      1  0.5212310000000  0.5850210000000  0.5220840000000 1.0
C      1  0.5198070000000  0.5311070000000  0.4942090000000 1.0
C      1  0.5107010000000  0.4604910000000  0.5825080000000 1.0
C      1  0.4234820000000  0.5304350000000  0.5102980000000 1.0
C      1  0.4976900000000  0.5391880000000  0.5612270000000 1.0
C      1  0.4630640000000  0.5481480000000  0.5366970000000 1.0
C      1  0.4632560000000  0.4679550000000  0.5311390000000 1.0
C      1  0.4967530000000  0.4605110000000  0.5012150000000 1.0
C      1  0.4318540000000  0.5426550000000  0.4632180000000 1.0
C      1  0.4739540000000  0.5225940000000  0.5500210000000 1.0
C      1  0.4558750000000  0.4357720000000  0.5323060000000 1.0
C      1  0.4732000000000  0.5866680000000  0.5072660000000 1.0
C      1  0.4861710000000  0.5112870000000  0.4298080000000 1.0
C      1  0.4878890000000  0.4439930000000  0.5777380000000 1.0
C      1  0.4879580000000  0.5886490000000  0.4605710000000 1.0
C      1  0.4837810000000  0.5635060000000  0.5525660000000 1.0
C      1  0.5618860000000  0.5606090000000  0.5066020000000 1.0
C      1  0.4197300000000  0.5098930000000  0.5290160000000 1.0
C      1  0.4309100000000  0.4435660000000  0.4877340000000 1.0
C      1  0.5210820000000  0.4748800000000  0.5393620000000 1.0
C      1  0.4795680000000  0.5200070000000  0.4813550000000 1.0
C      1  0.5673440000000  0.5171480000000  0.4760330000000 1.0
C      1  0.4902950000000  0.5975300000000  0.4873500000000 1.0
C      1  0.5536170000000  0.4040270000000  0.5248620000000 1.0
C      1  0.4159400000000  0.4820340000000  0.5212570000000 1.0
C      1  0.4546430000000  0.4795930000000  0.5053680000000 1.0
C      1  0.4968580000000  0.4290870000000  0.5104140000000 1.0
C      1  0.5358230000000  0.5196650000000  0.4715100000000 1.0
C      1  0.4251140000000  0.4953760000000  0.4729200000000 1.0
C      1  0.5343510000000  0.4696770000000  0.5098380000000 1.0
C      1  0.5188770000000  0.5060090000000  0.5829240000000 1.0
C      1  0.4997270000000  0.4863990000000  0.5882350000000 1.0
C      1  0.4266700000000  0.4746370000000  0.4947720000000 1.0
C      1  0.4814290000000  0.5576710000000  0.5129150000000 1.0
C      1  0.5029610000000  0.4875240000000  0.4205160000000 1.0
C      1  0.5799260000000  0.5326380000000  0.4550640000000 1.0
C      1  0.4671870000000  0.4306340000000  0.4481030000000 1.0
C      1  0.4899660000000  0.4618970000000  0.4194540000000 1.0
C      1  0.5760740000000  0.5100520000000  0.4403000000000 1.0
C      1  0.5158450000000  0.5357680000000  0.5855610000000 1.0
C      1  0.5326870000000  0.4532880000000  0.4341960000000 1.0
C      1  0.4219370000000  0.5227470000000  0.4813040000000 1.0
C      1  0.5448440000000  0.5697540000000  0.5281100000000 1.0
C      1  0.4398840000000  0.5528670000000  0.5189670000000 1.0
C      1  0.5668130000000  0.5289610000000  0.5416100000000 1.0
C      1  0.5378590000000  0.5505510000000  0.5785350000000 1.0
C      1  0.5259860000000  0.4521000000000  0.5576490000000 1.0
C      1  0.5331540000000  0.3959780000000  0.5117410000000 1.0
C      1  0.5585580000000  0.4317450000000  0.5261030000000 1.0
C      1  0.4390810000000  0.4314170000000  0.5107950000000 1.0
C      1  0.5797110000000  0.5105290000000  0.5007870000000 1.0
C      1  0.5565970000000  0.5700430000000  0.4790480000000 1.0
C      1  0.4706820000000  0.4861070000000  0.5822480000000 1.0
C      1  0.5413830000000  0.4296670000000  0.4743390000000 1.0
C      1  0.5184760000000  0.4744460000000  0.4878490000000 1.0
C      1  0.5075400000000  0.4422050000000  0.4311590000000 1.0
C      1  0.4458200000000  0.5348410000000  0.4390900000000 1.0
C      1  0.4921230000000  0.4760330000000  0.5295050000000 1.0
C      1  0.4938840000000  0.5800260000000  0.5311430000000 1.0
C      1  0.5614690000000  0.5544520000000  0.4555640000000 1.0
C      1  0.5149150000000  0.4179640000000  0.4717860000000 1.0
C      1  0.5744900000000  0.5348360000000  0.5154190000000 1.0
C      1  0.4442900000000  0.5673800000000  0.4721630000000 1.0
C      1  0.4910520000000  0.5025310000000  0.4598600000000 1.0
C      1  0.5791540000000  0.4832060000000  0.5101040000000 1.0
C      1  0.5137490000000  0.5187310000000  0.5183520000000 1.0
C      1  0.4405580000000  0.4605860000000  0.4405150000000 1.0
C      1  0.5527960000000  0.4449070000000  0.4999300000000 1.0
C      1  0.4644750000000  0.4509770000000  0.4268060000000 1.0
C      1  0.5514090000000  0.4437870000000  0.4526770000000 1.0
C      1  0.4876500000000  0.5055430000000  0.5255610000000 1.0
C      1  0.4958960000000  0.4258110000000  0.4516160000000 1.0
C      1  0.4915980000000  0.5410820000000  0.4276830000000 1.0
C      1  0.5329050000000  0.5852580000000  0.4739280000000 1.0
C      1  0.5302470000000  0.4822020000000  0.4352940000000 1.0
C      1  0.5697030000000  0.4776580000000  0.5374300000000 1.0
C      1  0.5137100000000  0.5792710000000  0.4521680000000 1.0
C      1  0.4833620000000  0.4255800000000  0.5343500000000 1.0
C      1  0.5199450000000  0.4941080000000  0.4655100000000 1.0
C      1  0.5372250000000  0.5401460000000  0.4479080000000 1.0
END
