TITL C-52004-1278-3 -0.115510797159519 125000 -451.233014315228 0 0 65 (C1) n - 1
REM
REM in /rds/project/t2_vol4/rds-t2-cs072/BORA/CARBON/from-Arr/AIRSS/Generating-Clusters/GAP-ML-2020/Only-C1/SD-CG/HFTN-CG
REM
REM
REM
REM
REM
REM ./C.cell (11c1c37f851c82e70ff6c80c92926a4b)
REM AIRSS Version 0.9.1 bugfix July 2018 build 013d7b7c2542+ Fri, 06 Jul 2018 19:26:36 +0100
REM compiler GCC version 9.3.0
REM options -cpp -mtune=generic -march=x86-64 -g -O0
REM seed -1089691496 -593906469 -1122935343 -876003866 -1322025810 1674593423 -449702246 -1912674604 -2110699790 387817279 -1844974557 -1388882990 1612763244 1961538764 1910236421 -1843057674 1529804932 -1061901730 899842884 1111230041 -751381623 -1383765271 1489927842 -937813596 1435527525 -1256119340 -1526930631 1329543387 -641958783 -222982166 222279698 1519063077 639255385
REM
CELL 1.54180   50.00000   50.00000   50.00000   90.00000   90.00000   90.00000
LATT -1
SFAC C  
C      1  0.5582590000000  0.4837300000000  0.4508730000000 1.0
C      1  0.4880020000000  0.4332830000000  0.4976420000000 1.0
C      1  0.4841230000000  0.4691200000000  0.4832470000000 1.0
C      1  0.4596340000000  0.5509130000000  0.5168620000000 1.0
C      1  0.4755020000000  0.5202030000000  0.4362700000000 1.0
C      1  0.4443920000000  0.4797390000000  0.4636000000000 1.0
C      1  0.5483570000000  0.5514380000000  0.5213200000000 1.0
C      1  0.5163010000000  0.4517750000000  0.4525290000000 1.0
C      1  0.5297480000000  0.4943710000000  0.4891100000000 1.0
C      1  0.4604150000000  0.5163690000000  0.5577150000000 1.0
C      1  0.5648190000000  0.5396120000000  0.5011350000000 1.0
C      1  0.5028380000000  0.5664230000000  0.5267530000000 1.0
C      1  0.5735770000000  0.5148840000000  0.5119920000000 1.0
C      1  0.5075980000000  0.4663040000000  0.5251920000000 1.0
C      1  0.5053060000000  0.5202770000000  0.4387170000000 1.0
C      1  0.5639210000000  0.4622410000000  0.5318230000000 1.0
C      1  0.4245830000000  0.4834330000000  0.5356440000000 1.0
C      1  0.4822540000000  0.4987090000000  0.5674700000000 1.0
C      1  0.5277990000000  0.5680230000000  0.5134950000000 1.0
C      1  0.5601280000000  0.5102740000000  0.5372180000000 1.0
C      1  0.4814770000000  0.5672800000000  0.5075140000000 1.0
C      1  0.4361270000000  0.5014560000000  0.5551730000000 1.0
C      1  0.4299900000000  0.4878880000000  0.4865200000000 1.0
C      1  0.4966930000000  0.5479410000000  0.5471680000000 1.0
C      1  0.5751400000000  0.4693400000000  0.4867810000000 1.0
C      1  0.4458730000000  0.4478780000000  0.5117090000000 1.0
C      1  0.4289460000000  0.4713530000000  0.5100850000000 1.0
C      1  0.4633120000000  0.4444790000000  0.5350870000000 1.0
C      1  0.4426710000000  0.5405810000000  0.4956350000000 1.0
C      1  0.4652760000000  0.5439870000000  0.4487760000000 1.0
C      1  0.4599940000000  0.4373650000000  0.4897540000000 1.0
C      1  0.4943050000000  0.5701520000000  0.4819250000000 1.0
C      1  0.4344070000000  0.4741140000000  0.5596000000000 1.0
C      1  0.5309520000000  0.4759240000000  0.4473820000000 1.0
C      1  0.5132380000000  0.5463820000000  0.4476770000000 1.0
C      1  0.5563530000000  0.4585130000000  0.5058880000000 1.0
C      1  0.5790180000000  0.4979470000000  0.4898740000000 1.0
C      1  0.5180550000000  0.5300490000000  0.5549790000000 1.0
C      1  0.5260330000000  0.4653020000000  0.4998060000000 1.0
C      1  0.4578230000000  0.4579870000000  0.5592780000000 1.0
C      1  0.5505300000000  0.4836550000000  0.5431780000000 1.0
C      1  0.4908500000000  0.5069620000000  0.5000670000000 1.0
C      1  0.5584220000000  0.5367560000000  0.4729840000000 1.0
C      1  0.5094530000000  0.5034520000000  0.5606610000000 1.0
C      1  0.4691060000000  0.5393360000000  0.5429860000000 1.0
C      1  0.5076090000000  0.4504650000000  0.4818140000000 1.0
C      1  0.5359170000000  0.5531110000000  0.4650990000000 1.0
C      1  0.4606790000000  0.4547120000000  0.4660180000000 1.0
C      1  0.5221400000000  0.4812620000000  0.5476250000000 1.0
C      1  0.5434980000000  0.5327170000000  0.5425210000000 1.0
C      1  0.4757490000000  0.4460490000000  0.4441860000000 1.0
C      1  0.5168640000000  0.5133650000000  0.5042280000000 1.0
C      1  0.4766290000000  0.4721620000000  0.5734960000000 1.0
C      1  0.4876590000000  0.4952730000000  0.4705200000000 1.0
C      1  0.4300270000000  0.5174270000000  0.4876910000000 1.0
C      1  0.4840220000000  0.4816960000000  0.5114060000000 1.0
C      1  0.4896770000000  0.4415620000000  0.5244640000000 1.0
C      1  0.5228440000000  0.5688080000000  0.4854620000000 1.0
C      1  0.4884120000000  0.5593990000000  0.4563780000000 1.0
C      1  0.4984690000000  0.4415290000000  0.4331330000000 1.0
C      1  0.5144390000000  0.4977960000000  0.4570360000000 1.0
C      1  0.4626480000000  0.5020120000000  0.4557750000000 1.0
C      1  0.5754130000000  0.4637230000000  0.4595620000000 1.0
C      1  0.5671260000000  0.5096290000000  0.4658030000000 1.0
C      1  0.4485810000000  0.5301070000000  0.4686900000000 1.0
END
