TITL C-52024-1621-4 -73.0156296401974 125000 -962.718348239253 0 0 137 (C1) n - 1
REM
REM in /rds/project/t2_vol4/rds-t2-cs072/BORA/CARBON/from-Arr/AIRSS/Generating-Clusters/GAP-ML-2020/Only-C1/SD-CG/HFTN-CG
REM
REM
REM
REM
REM
REM ./C.cell (11c1c37f851c82e70ff6c80c92926a4b)
REM AIRSS Version 0.9.1 bugfix July 2018 build 013d7b7c2542+ Fri, 06 Jul 2018 19:26:36 +0100
REM compiler GCC version 9.3.0
REM options -cpp -mtune=generic -march=x86-64 -g -O0
REM seed 1462979049 1911280318 -277891516 586594566 -1082391505 -1486000590 -1821717620 881309423 784099000 415788658 866769898 -1800430897 -1535627415 -1394645433 -967093370 3854610 -2132201993 1996632562 1757142625 1963698390 581984729 761782368 1466709107 -55665282 -857932345 -1101952832 -1376746619 851404926 -725716407 1784412549 -965367435 1339828758 844423454
REM
CELL 1.54180   50.00000   50.00000   50.00000   90.00000   90.00000   90.00000
LATT -1
SFAC C  
C      1  0.4173600000000  0.4606190000000  0.5217260000000 1.0
C      1  0.5437300000000  0.4770110000000  0.4230620000000 1.0
C      1  0.4750950000000  0.5341770000000  0.5153210000000 1.0
C      1  0.4239940000000  0.5317990000000  0.5688300000000 1.0
C      1  0.5092140000000  0.4288820000000  0.5568390000000 1.0
C      1  0.4465990000000  0.5110960000000  0.4863000000000 1.0
C      1  0.3992260000000  0.4960710000000  0.4836800000000 1.0
C      1  0.4950410000000  0.5088970000000  0.5974700000000 1.0
C      1  0.4667730000000  0.4568560000000  0.5265870000000 1.0
C      1  0.5465140000000  0.4431850000000  0.4552490000000 1.0
C      1  0.4452640000000  0.5015680000000  0.5308830000000 1.0
C      1  0.5766560000000  0.5245770000000  0.5651750000000 1.0
C      1  0.4920680000000  0.5078950000000  0.5510530000000 1.0
C      1  0.4767760000000  0.4388050000000  0.4778640000000 1.0
C      1  0.5931140000000  0.5207030000000  0.4940800000000 1.0
C      1  0.5429830000000  0.4215850000000  0.5168980000000 1.0
C      1  0.5564580000000  0.4345600000000  0.5605090000000 1.0
C      1  0.4243500000000  0.4691850000000  0.4476160000000 1.0
C      1  0.6028690000000  0.4779570000000  0.4752330000000 1.0
C      1  0.5235790000000  0.5291220000000  0.5126100000000 1.0
C      1  0.5523230000000  0.5334510000000  0.5545080000000 1.0
C      1  0.4727730000000  0.4117800000000  0.5197030000000 1.0
C      1  0.5120370000000  0.5316370000000  0.4645770000000 1.0
C      1  0.4065190000000  0.4903410000000  0.5550380000000 1.0
C      1  0.4422230000000  0.5734750000000  0.5202760000000 1.0
C      1  0.4474460000000  0.4718320000000  0.4311770000000 1.0
C      1  0.5357290000000  0.4403200000000  0.4811580000000 1.0
C      1  0.5870460000000  0.5320380000000  0.5394230000000 1.0
C      1  0.4985320000000  0.5144820000000  0.3998650000000 1.0
C      1  0.5276670000000  0.5423380000000  0.5902700000000 1.0
C      1  0.5900340000000  0.5024690000000  0.4731940000000 1.0
C      1  0.5456460000000  0.5065030000000  0.4190200000000 1.0
C      1  0.5306770000000  0.4129870000000  0.4923480000000 1.0
C      1  0.4517810000000  0.4548280000000  0.4837230000000 1.0
C      1  0.4263580000000  0.4091850000000  0.4951790000000 1.0
C      1  0.5952050000000  0.4646920000000  0.5486100000000 1.0
C      1  0.4826200000000  0.4254590000000  0.5454630000000 1.0
C      1  0.4991630000000  0.5611990000000  0.4003080000000 1.0
C      1  0.4779150000000  0.4927950000000  0.5782610000000 1.0
C      1  0.4848770000000  0.5537280000000  0.5724390000000 1.0
C      1  0.4422090000000  0.4630620000000  0.5648660000000 1.0
C      1  0.4621200000000  0.5668950000000  0.5617760000000 1.0
C      1  0.5248020000000  0.4363200000000  0.4375140000000 1.0
C      1  0.4857520000000  0.4916330000000  0.4681260000000 1.0
C      1  0.5367060000000  0.4932860000000  0.4801850000000 1.0
C      1  0.4708320000000  0.5564860000000  0.4055210000000 1.0
C      1  0.5301050000000  0.4728160000000  0.5531030000000 1.0
C      1  0.4239550000000  0.5049530000000  0.5727340000000 1.0
C      1  0.4552620000000  0.4976230000000  0.4205620000000 1.0
C      1  0.4694200000000  0.5295320000000  0.4876510000000 1.0
C      1  0.5008280000000  0.4661540000000  0.5098620000000 1.0
C      1  0.5222990000000  0.5502660000000  0.4173240000000 1.0
C      1  0.4820740000000  0.4936380000000  0.4095490000000 1.0
C      1  0.5118330000000  0.4777820000000  0.4655770000000 1.0
C      1  0.4736030000000  0.5059260000000  0.5278500000000 1.0
C      1  0.4854070000000  0.4645820000000  0.5734470000000 1.0
C      1  0.4961780000000  0.5375390000000  0.5517580000000 1.0
C      1  0.4452350000000  0.5219920000000  0.4327730000000 1.0
C      1  0.5399090000000  0.5168260000000  0.5326000000000 1.0
C      1  0.4399870000000  0.5487940000000  0.5555820000000 1.0
C      1  0.5404300000000  0.5169760000000  0.5971030000000 1.0
C      1  0.5044290000000  0.4192930000000  0.4501480000000 1.0
C      1  0.5859350000000  0.4569420000000  0.4625710000000 1.0
C      1  0.6018590000000  0.4797080000000  0.5263140000000 1.0
C      1  0.4641690000000  0.5826770000000  0.5368210000000 1.0
C      1  0.5896950000000  0.5086910000000  0.5208300000000 1.0
C      1  0.5204170000000  0.4962270000000  0.6013910000000 1.0
C      1  0.5829020000000  0.4470220000000  0.4896060000000 1.0
C      1  0.5351160000000  0.5749090000000  0.5462710000000 1.0
C      1  0.5022220000000  0.5458480000000  0.5238490000000 1.0
C      1  0.4709890000000  0.4539260000000  0.4310200000000 1.0
C      1  0.3989790000000  0.5247420000000  0.4899410000000 1.0
C      1  0.5249640000000  0.5223260000000  0.4081710000000 1.0
C      1  0.4444160000000  0.4178330000000  0.5135200000000 1.0
C      1  0.4995670000000  0.5380960000000  0.5922650000000 1.0
C      1  0.5538670000000  0.4778560000000  0.5739660000000 1.0
C      1  0.5458440000000  0.4552040000000  0.4017610000000 1.0
C      1  0.5121360000000  0.4554930000000  0.5717340000000 1.0
C      1  0.5172630000000  0.4670190000000  0.4359760000000 1.0
C      1  0.5626690000000  0.4970140000000  0.4605400000000 1.0
C      1  0.5308760000000  0.5812990000000  0.4541820000000 1.0
C      1  0.4853950000000  0.5387730000000  0.3902950000000 1.0
C      1  0.4541000000000  0.5664720000000  0.4520780000000 1.0
C      1  0.5126030000000  0.5763770000000  0.5226120000000 1.0
C      1  0.5068010000000  0.5510930000000  0.4438490000000 1.0
C      1  0.4130430000000  0.4927220000000  0.4588030000000 1.0
C      1  0.5063760000000  0.4551350000000  0.4837480000000 1.0
C      1  0.5673100000000  0.5581530000000  0.4730170000000 1.0
C      1  0.4768130000000  0.5825490000000  0.4637480000000 1.0
C      1  0.4023780000000  0.5231590000000  0.5179810000000 1.0
C      1  0.3998900000000  0.4809350000000  0.5097080000000 1.0
C      1  0.4165380000000  0.5399950000000  0.4717240000000 1.0
C      1  0.4921480000000  0.4692810000000  0.4202560000000 1.0
C      1  0.5604760000000  0.4988350000000  0.5216190000000 1.0
C      1  0.5302570000000  0.4710560000000  0.5921530000000 1.0
C      1  0.5395150000000  0.5558520000000  0.5667430000000 1.0
C      1  0.5735750000000  0.4565080000000  0.5646540000000 1.0
C      1  0.6026010000000  0.4660900000000  0.5011820000000 1.0
C      1  0.5362760000000  0.4330800000000  0.4095120000000 1.0
C      1  0.4705130000000  0.5886440000000  0.4912620000000 1.0
C      1  0.4429010000000  0.4473610000000  0.5120400000000 1.0
C      1  0.5565010000000  0.5741650000000  0.5261890000000 1.0
C      1  0.5463780000000  0.5779060000000  0.4781750000000 1.0
C      1  0.4183230000000  0.4655230000000  0.5497850000000 1.0
C      1  0.5786060000000  0.5548430000000  0.5221700000000 1.0
C      1  0.5615560000000  0.5065100000000  0.5808910000000 1.0
C      1  0.4628470000000  0.4837070000000  0.4854030000000 1.0
C      1  0.5191020000000  0.4983230000000  0.5429940000000 1.0
C      1  0.4834950000000  0.4137400000000  0.4928700000000 1.0
C      1  0.4676960000000  0.4505100000000  0.5555420000000 1.0
C      1  0.4297810000000  0.5173790000000  0.4574130000000 1.0
C      1  0.4796260000000  0.4331440000000  0.4487980000000 1.0
C      1  0.5625190000000  0.4674230000000  0.4476920000000 1.0
C      1  0.5368640000000  0.4221760000000  0.5455800000000 1.0
C      1  0.4321120000000  0.5206770000000  0.5141350000000 1.0
C      1  0.4553280000000  0.5489410000000  0.4291440000000 1.0
C      1  0.5463280000000  0.4788690000000  0.5061960000000 1.0
C      1  0.4288260000000  0.4474980000000  0.4658930000000 1.0
C      1  0.5072350000000  0.4061380000000  0.4780020000000 1.0
C      1  0.5620370000000  0.5462420000000  0.4464470000000 1.0
C      1  0.5023260000000  0.5784030000000  0.4521850000000 1.0
C      1  0.5382030000000  0.5812420000000  0.5050560000000 1.0
C      1  0.4764660000000  0.4809130000000  0.5122470000000 1.0
C      1  0.4457940000000  0.5446960000000  0.5257270000000 1.0
C      1  0.4334010000000  0.5633010000000  0.4717250000000 1.0
C      1  0.3939230000000  0.4992440000000  0.5310330000000 1.0
C      1  0.5230810000000  0.4747770000000  0.5239980000000 1.0
C      1  0.5554280000000  0.4482300000000  0.5022830000000 1.0
C      1  0.5426720000000  0.5634510000000  0.4342230000000 1.0
C      1  0.5606740000000  0.5182100000000  0.4396410000000 1.0
C      1  0.4474360000000  0.4874200000000  0.5775240000000 1.0
C      1  0.5261550000000  0.5208570000000  0.4860500000000 1.0
C      1  0.4850440000000  0.5887260000000  0.5177060000000 1.0
C      1  0.4187070000000  0.4228420000000  0.4742340000000 1.0
C      1  0.4885990000000  0.5193670000000  0.4700590000000 1.0
C      1  0.4433910000000  0.5801430000000  0.4934450000000 1.0
C      1  0.5825390000000  0.5470990000000  0.4946940000000 1.0
END
