TITL C-52021-1275-5 -0.129800114528516 125000 -902.811409807947 0 0 130 (C1) n - 1
REM
REM in /rds/project/t2_vol4/rds-t2-cs072/BORA/CARBON/from-Arr/AIRSS/Generating-Clusters/GAP-ML-2020/Only-C1/SD-CG/HFTN-CG
REM
REM
REM
REM
REM
REM ./C.cell (11c1c37f851c82e70ff6c80c92926a4b)
REM AIRSS Version 0.9.1 bugfix July 2018 build 013d7b7c2542+ Fri, 06 Jul 2018 19:26:36 +0100
REM compiler GCC version 9.3.0
REM options -cpp -mtune=generic -march=x86-64 -g -O0
REM seed 1908493885 -1101055059 -891023837 -41259481 1721587518 -206200526 -1357829587 1543426432 1210742696 -1943282444 187676881 -311950423 964948724 840472720 412797463 -635903084 -714120661 1262508477 2037749326 530167743 -646148976 -1260926080 -1874171892 -1980460928 114391666 -698704415 331732559 1980884959 -2038215658 -817865504 65430439 907127649 -1192616764
REM
CELL 1.54180   50.00000   50.00000   50.00000   90.00000   90.00000   90.00000
LATT -1
SFAC C  
C      1  0.5396970000000  0.4041280000000  0.4958710000000 1.0
C      1  0.5316580000000  0.4819220000000  0.5779260000000 1.0
C      1  0.5945090000000  0.4921150000000  0.4813280000000 1.0
C      1  0.4413880000000  0.5672190000000  0.5271980000000 1.0
C      1  0.4160320000000  0.4666220000000  0.4771700000000 1.0
C      1  0.4457280000000  0.4903810000000  0.5785620000000 1.0
C      1  0.5705010000000  0.4420460000000  0.5058650000000 1.0
C      1  0.5252840000000  0.4390280000000  0.4413790000000 1.0
C      1  0.5021900000000  0.4994500000000  0.4855840000000 1.0
C      1  0.5042780000000  0.5588170000000  0.4195800000000 1.0
C      1  0.4687870000000  0.4208150000000  0.5275490000000 1.0
C      1  0.4779240000000  0.4485430000000  0.5358910000000 1.0
C      1  0.5212700000000  0.5909360000000  0.4785190000000 1.0
C      1  0.5475800000000  0.5223470000000  0.5021840000000 1.0
C      1  0.5733680000000  0.5317510000000  0.5509230000000 1.0
C      1  0.4763220000000  0.5202310000000  0.4092520000000 1.0
C      1  0.4839010000000  0.5420750000000  0.4286320000000 1.0
C      1  0.4149760000000  0.5138770000000  0.4516320000000 1.0
C      1  0.4630490000000  0.4483140000000  0.5634620000000 1.0
C      1  0.4980550000000  0.5780170000000  0.4412770000000 1.0
C      1  0.5656470000000  0.5709750000000  0.5284870000000 1.0
C      1  0.5197150000000  0.5268530000000  0.5472970000000 1.0
C      1  0.4762160000000  0.5307360000000  0.5270440000000 1.0
C      1  0.4632030000000  0.5256670000000  0.4718090000000 1.0
C      1  0.4587600000000  0.5157800000000  0.5854540000000 1.0
C      1  0.4591560000000  0.4360990000000  0.4830380000000 1.0
C      1  0.4788470000000  0.5824170000000  0.4646890000000 1.0
C      1  0.4927320000000  0.4718250000000  0.4117000000000 1.0
C      1  0.4577660000000  0.4808240000000  0.4619040000000 1.0
C      1  0.5096060000000  0.4399940000000  0.5773270000000 1.0
C      1  0.5574910000000  0.5555940000000  0.5504630000000 1.0
C      1  0.4265420000000  0.4788000000000  0.5599820000000 1.0
C      1  0.4875400000000  0.4812390000000  0.5942570000000 1.0
C      1  0.5650080000000  0.5681050000000  0.4820410000000 1.0
C      1  0.4874150000000  0.4097600000000  0.5461740000000 1.0
C      1  0.5125270000000  0.4054900000000  0.5056880000000 1.0
C      1  0.5703850000000  0.5188230000000  0.4395400000000 1.0
C      1  0.4123610000000  0.4614850000000  0.5055060000000 1.0
C      1  0.5033420000000  0.5313040000000  0.4525330000000 1.0
C      1  0.5198690000000  0.4520410000000  0.5062800000000 1.0
C      1  0.5329390000000  0.5105200000000  0.5723130000000 1.0
C      1  0.4284180000000  0.4441070000000  0.5226930000000 1.0
C      1  0.4421130000000  0.4546740000000  0.4650920000000 1.0
C      1  0.5448800000000  0.4919960000000  0.5110540000000 1.0
C      1  0.5087390000000  0.5260150000000  0.5881210000000 1.0
C      1  0.5455460000000  0.4661460000000  0.5597470000000 1.0
C      1  0.5081210000000  0.4564860000000  0.5341610000000 1.0
C      1  0.4560920000000  0.4939550000000  0.5084980000000 1.0
C      1  0.5039530000000  0.5511550000000  0.5738540000000 1.0
C      1  0.4971500000000  0.4865200000000  0.5311670000000 1.0
C      1  0.5370900000000  0.4185890000000  0.5394040000000 1.0
C      1  0.4640940000000  0.4700410000000  0.5832100000000 1.0
C      1  0.4955120000000  0.5872120000000  0.4891210000000 1.0
C      1  0.4966470000000  0.5001910000000  0.4078240000000 1.0
C      1  0.4524190000000  0.5014980000000  0.4814260000000 1.0
C      1  0.4496850000000  0.4857460000000  0.4330660000000 1.0
C      1  0.4555780000000  0.5360200000000  0.4433620000000 1.0
C      1  0.5730250000000  0.5577510000000  0.4555510000000 1.0
C      1  0.5192020000000  0.4644280000000  0.4266030000000 1.0
C      1  0.5945350000000  0.5260710000000  0.5311330000000 1.0
C      1  0.4276070000000  0.5405200000000  0.4554220000000 1.0
C      1  0.4853190000000  0.4272470000000  0.5694840000000 1.0
C      1  0.5299680000000  0.4419580000000  0.5557010000000 1.0
C      1  0.5973090000000  0.5217520000000  0.4812050000000 1.0
C      1  0.4114280000000  0.4955120000000  0.5430220000000 1.0
C      1  0.5257170000000  0.4902110000000  0.4714160000000 1.0
C      1  0.4862050000000  0.5099290000000  0.5940860000000 1.0
C      1  0.5799960000000  0.4641230000000  0.5216150000000 1.0
C      1  0.5061150000000  0.5060640000000  0.4385070000000 1.0
C      1  0.4539230000000  0.5409520000000  0.5736650000000 1.0
C      1  0.5102640000000  0.4664090000000  0.5883000000000 1.0
C      1  0.4220130000000  0.5228250000000  0.5383300000000 1.0
C      1  0.5493280000000  0.4338140000000  0.4576850000000 1.0
C      1  0.5548660000000  0.4192280000000  0.5154960000000 1.0
C      1  0.5082470000000  0.4235290000000  0.4623130000000 1.0
C      1  0.5223330000000  0.5269950000000  0.5162890000000 1.0
C      1  0.6036460000000  0.5013670000000  0.5268440000000 1.0
C      1  0.5598250000000  0.5085740000000  0.5579870000000 1.0
C      1  0.4351050000000  0.4531610000000  0.5505280000000 1.0
C      1  0.4116710000000  0.5318510000000  0.5118170000000 1.0
C      1  0.4020920000000  0.5074920000000  0.4988720000000 1.0
C      1  0.4650210000000  0.4643520000000  0.4199080000000 1.0
C      1  0.4615980000000  0.4164260000000  0.4381130000000 1.0
C      1  0.5452080000000  0.5881240000000  0.4917350000000 1.0
C      1  0.5259360000000  0.5564500000000  0.5535870000000 1.0
C      1  0.5771750000000  0.4769430000000  0.4635430000000 1.0
C      1  0.5384120000000  0.4710180000000  0.4908470000000 1.0
C      1  0.5875540000000  0.5333510000000  0.4575050000000 1.0
C      1  0.4830340000000  0.4548070000000  0.4909620000000 1.0
C      1  0.4270490000000  0.5019970000000  0.4291300000000 1.0
C      1  0.5960230000000  0.5386550000000  0.5054010000000 1.0
C      1  0.5191560000000  0.5758650000000  0.5318310000000 1.0
C      1  0.4976030000000  0.5403640000000  0.5052250000000 1.0
C      1  0.5622970000000  0.4540080000000  0.4768410000000 1.0
C      1  0.5407190000000  0.4864040000000  0.4226740000000 1.0
C      1  0.5144460000000  0.4988060000000  0.5123300000000 1.0
C      1  0.4524240000000  0.5151050000000  0.5258560000000 1.0
C      1  0.5293800000000  0.5399070000000  0.4162180000000 1.0
C      1  0.4525630000000  0.5764560000000  0.4664800000000 1.0
C      1  0.5122480000000  0.4050960000000  0.5337790000000 1.0
C      1  0.5364090000000  0.4112810000000  0.4695210000000 1.0
C      1  0.5593640000000  0.4825100000000  0.5393560000000 1.0
C      1  0.4070990000000  0.4956570000000  0.4729000000000 1.0
C      1  0.4309450000000  0.5614450000000  0.4758730000000 1.0
C      1  0.5223000000000  0.5764960000000  0.4544300000000 1.0
C      1  0.5981530000000  0.4818160000000  0.5084460000000 1.0
C      1  0.4514080000000  0.5157050000000  0.4221200000000 1.0
C      1  0.4301730000000  0.5445470000000  0.5573640000000 1.0
C      1  0.5815230000000  0.5627010000000  0.5056430000000 1.0
C      1  0.4247450000000  0.5565640000000  0.5040890000000 1.0
C      1  0.5083860000000  0.4802880000000  0.4503370000000 1.0
C      1  0.5425800000000  0.5848930000000  0.5194230000000 1.0
C      1  0.4258400000000  0.5703920000000  0.5494150000000 1.0
C      1  0.5646250000000  0.4910390000000  0.4397890000000 1.0
C      1  0.4911940000000  0.5267890000000  0.4787350000000 1.0
C      1  0.4714730000000  0.5616680000000  0.5339160000000 1.0
C      1  0.4739820000000  0.4724240000000  0.5157270000000 1.0
C      1  0.5427840000000  0.5431910000000  0.4836630000000 1.0
C      1  0.4768270000000  0.5567580000000  0.5644580000000 1.0
C      1  0.5298650000000  0.5462500000000  0.4573370000000 1.0
C      1  0.5510790000000  0.5416170000000  0.4365040000000 1.0
C      1  0.4949390000000  0.5710390000000  0.5150330000000 1.0
C      1  0.4476300000000  0.4265040000000  0.5101180000000 1.0
C      1  0.5236610000000  0.5096190000000  0.4149160000000 1.0
C      1  0.4536440000000  0.4429610000000  0.4361460000000 1.0
C      1  0.4027700000000  0.4860310000000  0.5178210000000 1.0
C      1  0.4925620000000  0.5126120000000  0.5443180000000 1.0
C      1  0.4860120000000  0.4762770000000  0.4704690000000 1.0
C      1  0.5048040000000  0.4326100000000  0.4917890000000 1.0
C      1  0.4760310000000  0.4191030000000  0.4614000000000 1.0
END
