TITL C-52011-1670-9 8.21900844302293 125000 -501.981073833829 0 0 71 (C1) n - 1
REM
REM in /rds/project/t2_vol4/rds-t2-cs072/BORA/CARBON/from-Arr/AIRSS/Generating-Clusters/GAP-ML-2020/Only-C1/SD-CG/HFTN-CG
REM
REM
REM
REM
REM
REM ./C.cell (11c1c37f851c82e70ff6c80c92926a4b)
REM AIRSS Version 0.9.1 bugfix July 2018 build 013d7b7c2542+ Fri, 06 Jul 2018 19:26:36 +0100
REM compiler GCC version 9.3.0
REM options -cpp -mtune=generic -march=x86-64 -g -O0
REM seed -867114091 1655297968 -1964659093 -1119109931 1278188597 -1774724376 -683843714 1704132193 -840863327 1373757852 823265663 2061900446 -1883486079 -1518482242 728082474 -1896935503 2020714983 -769480880 1535435351 348232896 430207972 -804098459 -1830108602 -701439752 -1481444666 767116609 -729273218 -1028166488 -1474598763 419130236 936902086 1023042286 2122351761
REM
CELL 1.54180   50.00000   50.00000   50.00000   90.00000   90.00000   90.00000
LATT -1
SFAC C  
C      1  0.5595740000000  0.5182960000000  0.5289580000000 1.0
C      1  0.5293040000000  0.5006340000000  0.4432170000000 1.0
C      1  0.5580620000000  0.4584850000000  0.4609440000000 1.0
C      1  0.5012350000000  0.4868650000000  0.4962450000000 1.0
C      1  0.5394540000000  0.4498890000000  0.5204110000000 1.0
C      1  0.4647390000000  0.4447940000000  0.5173430000000 1.0
C      1  0.5099570000000  0.5447560000000  0.4501410000000 1.0
C      1  0.4844970000000  0.5704600000000  0.5215790000000 1.0
C      1  0.5827500000000  0.4981390000000  0.5353710000000 1.0
C      1  0.5945680000000  0.4698260000000  0.4898020000000 1.0
C      1  0.4593590000000  0.5440030000000  0.4500640000000 1.0
C      1  0.4771850000000  0.5257140000000  0.4985240000000 1.0
C      1  0.5335910000000  0.4475970000000  0.4493740000000 1.0
C      1  0.4424010000000  0.5573450000000  0.4690360000000 1.0
C      1  0.5180940000000  0.4736540000000  0.4437810000000 1.0
C      1  0.5843410000000  0.4590010000000  0.4680920000000 1.0
C      1  0.5142160000000  0.5024320000000  0.5156320000000 1.0
C      1  0.4684550000000  0.4369640000000  0.4896510000000 1.0
C      1  0.4995750000000  0.5050470000000  0.5634990000000 1.0
C      1  0.5422110000000  0.4827770000000  0.5541330000000 1.0
C      1  0.4581490000000  0.4536020000000  0.4683680000000 1.0
C      1  0.5409140000000  0.5289870000000  0.5510620000000 1.0
C      1  0.5404930000000  0.4950010000000  0.5245540000000 1.0
C      1  0.4345480000000  0.5271380000000  0.5340550000000 1.0
C      1  0.4999640000000  0.5778210000000  0.4974620000000 1.0
C      1  0.5182390000000  0.4400780000000  0.4755350000000 1.0
C      1  0.4399220000000  0.4747820000000  0.4751020000000 1.0
C      1  0.4271690000000  0.5429150000000  0.4875670000000 1.0
C      1  0.5531630000000  0.4736010000000  0.5085820000000 1.0
C      1  0.5459440000000  0.4785790000000  0.4798190000000 1.0
C      1  0.4863210000000  0.4798940000000  0.5571390000000 1.0
C      1  0.5499150000000  0.5303240000000  0.4778940000000 1.0
C      1  0.4183470000000  0.5011270000000  0.5057130000000 1.0
C      1  0.4367310000000  0.5492870000000  0.5151450000000 1.0
C      1  0.5475750000000  0.5049150000000  0.4655310000000 1.0
C      1  0.4826970000000  0.5045390000000  0.4353430000000 1.0
C      1  0.5081000000000  0.5186900000000  0.4383950000000 1.0
C      1  0.5299830000000  0.4306770000000  0.5023850000000 1.0
C      1  0.4495430000000  0.4676420000000  0.5243480000000 1.0
C      1  0.5825950000000  0.4787980000000  0.5128200000000 1.0
C      1  0.5566240000000  0.5362090000000  0.5058940000000 1.0
C      1  0.4940790000000  0.4245870000000  0.4840080000000 1.0
C      1  0.4852680000000  0.5580950000000  0.4532300000000 1.0
C      1  0.5301300000000  0.5498000000000  0.4700880000000 1.0
C      1  0.5705360000000  0.4845420000000  0.5567760000000 1.0
C      1  0.5398530000000  0.5570030000000  0.5152130000000 1.0
C      1  0.4573090000000  0.5145400000000  0.5469570000000 1.0
C      1  0.4829170000000  0.5775370000000  0.4745020000000 1.0
C      1  0.4567290000000  0.5764020000000  0.4844120000000 1.0
C      1  0.4831840000000  0.5264370000000  0.5528940000000 1.0
C      1  0.5250840000000  0.5667340000000  0.4930970000000 1.0
C      1  0.5282220000000  0.4574290000000  0.5460690000000 1.0
C      1  0.4974850000000  0.5495440000000  0.5386800000000 1.0
C      1  0.4803380000000  0.5023070000000  0.4867840000000 1.0
C      1  0.4221780000000  0.5161180000000  0.4809420000000 1.0
C      1  0.4981130000000  0.5264940000000  0.5177720000000 1.0
C      1  0.5003560000000  0.4559000000000  0.5505410000000 1.0
C      1  0.5064510000000  0.4158690000000  0.5090090000000 1.0
C      1  0.5276680000000  0.5070680000000  0.5645610000000 1.0
C      1  0.5170800000000  0.4706960000000  0.4777880000000 1.0
C      1  0.4328250000000  0.4770420000000  0.5029150000000 1.0
C      1  0.5271210000000  0.5509150000000  0.5408670000000 1.0
C      1  0.4736630000000  0.4575430000000  0.4465030000000 1.0
C      1  0.4605450000000  0.4857070000000  0.5450500000000 1.0
C      1  0.4570840000000  0.5693440000000  0.5123270000000 1.0
C      1  0.4377960000000  0.5010850000000  0.4622600000000 1.0
C      1  0.4853110000000  0.4362190000000  0.5357970000000 1.0
C      1  0.4942980000000  0.4097330000000  0.5319740000000 1.0
C      1  0.4110450000000  0.5121500000000  0.5295850000000 1.0
C      1  0.4895650000000  0.4763210000000  0.4361330000000 1.0
C      1  0.4572650000000  0.5155520000000  0.4447540000000 1.0
END
