TITL C-52016-4272-10 -6.02888573552802 125000 -223.132004936753 0 0 34 (C1) n - 1
REM
REM in /rds/project/t2_vol4/rds-t2-cs072/BORA/CARBON/from-Arr/AIRSS/Generating-Clusters/GAP-ML-2020/Only-C1/SD-CG/HFTN-CG
REM
REM
REM
REM
REM
REM ./C.cell (11c1c37f851c82e70ff6c80c92926a4b)
REM AIRSS Version 0.9.1 bugfix July 2018 build 013d7b7c2542+ Fri, 06 Jul 2018 19:26:36 +0100
REM compiler GCC version 9.3.0
REM options -cpp -mtune=generic -march=x86-64 -g -O0
REM seed 635266039 999213455 -2035381869 -1801490503 939585359 1110001680 1273097743 631637182 659022957 169382736 -272838480 -954549393 -216089039 -1970734464 1967242279 202978011 -2145828920 -1065618069 -1164351041 -935250228 608418583 -1038905540 -1776571581 -649761867 278386072 2121683141 1603426851 1408636136 -290313702 -65320294 -927169543 -44205942 219316894
REM
CELL 1.54180   50.00000   50.00000   50.00000   90.00000   90.00000   90.00000
LATT -1
SFAC C  
C      1  0.4801410000000  0.5321670000000  0.5312690000000 1.0
C      1  0.4767120000000  0.5104290000000  0.4616660000000 1.0
C      1  0.5531400000000  0.5091990000000  0.5262070000000 1.0
C      1  0.5191050000000  0.4826670000000  0.5075350000000 1.0
C      1  0.4786180000000  0.4849520000000  0.4777750000000 1.0
C      1  0.4942750000000  0.4657800000000  0.4634910000000 1.0
C      1  0.4665350000000  0.4855370000000  0.5222140000000 1.0
C      1  0.5155610000000  0.4542920000000  0.5053700000000 1.0
C      1  0.4866070000000  0.5239810000000  0.5013730000000 1.0
C      1  0.4431520000000  0.5136600000000  0.4976520000000 1.0
C      1  0.4547870000000  0.5335730000000  0.5408840000000 1.0
C      1  0.5225270000000  0.5332130000000  0.5236810000000 1.0
C      1  0.5316750000000  0.4999180000000  0.4877060000000 1.0
C      1  0.5331600000000  0.4888760000000  0.5331180000000 1.0
C      1  0.4864170000000  0.4719310000000  0.5384720000000 1.0
C      1  0.4838590000000  0.4315840000000  0.5023700000000 1.0
C      1  0.4897520000000  0.4944290000000  0.5042140000000 1.0
C      1  0.5143350000000  0.5279450000000  0.4959600000000 1.0
C      1  0.5083500000000  0.4917590000000  0.5469090000000 1.0
C      1  0.5102550000000  0.4830860000000  0.4470960000000 1.0
C      1  0.4644240000000  0.5259490000000  0.4827820000000 1.0
C      1  0.5585320000000  0.5100970000000  0.4967420000000 1.0
C      1  0.4944630000000  0.4478010000000  0.5241720000000 1.0
C      1  0.5566320000000  0.5374240000000  0.4902270000000 1.0
C      1  0.5318870000000  0.4973420000000  0.4587210000000 1.0
C      1  0.5252740000000  0.5255400000000  0.4516950000000 1.0
C      1  0.5010800000000  0.4450890000000  0.4823280000000 1.0
C      1  0.4298500000000  0.4911380000000  0.4907550000000 1.0
C      1  0.5311900000000  0.5417110000000  0.4753590000000 1.0
C      1  0.5040380000000  0.5204220000000  0.5415720000000 1.0
C      1  0.4541640000000  0.4784690000000  0.4945430000000 1.0
C      1  0.5496680000000  0.5367670000000  0.5235080000000 1.0
C      1  0.4505230000000  0.5106790000000  0.5269310000000 1.0
C      1  0.4993130000000  0.5125930000000  0.4457050000000 1.0
END
