TITL C-52013-1186-2 -0.217707288021638 125000 -1056.44230805279 0 0 150 (C1) n - 1
REM
REM in /rds/project/t2_vol4/rds-t2-cs072/BORA/CARBON/from-Arr/AIRSS/Generating-Clusters/GAP-ML-2020/Only-C1/SD-CG/HFTN-CG
REM
REM
REM
REM
REM
REM ./C.cell (11c1c37f851c82e70ff6c80c92926a4b)
REM AIRSS Version 0.9.1 bugfix July 2018 build 013d7b7c2542+ Fri, 06 Jul 2018 19:26:36 +0100
REM compiler GCC version 9.3.0
REM options -cpp -mtune=generic -march=x86-64 -g -O0
REM seed 2097001028 802729891 1590903571 -1420459053 1247439744 -1510248965 1197633987 -751552200 -1224605608 -2004902913 -1502971220 1991801869 -1590256276 -1033290707 -713829466 -1131877358 -396469535 -1079680277 738296426 380567404 948299647 26898907 1587607858 -1036304455 -70396822 -1902286477 -456178001 1848047837 391443530 281677303 -448213207 447715189 -1267342244
REM
CELL 1.54180   50.00000   50.00000   50.00000   90.00000   90.00000   90.00000
LATT -1
SFAC C  
C      1  0.5984750000000  0.4642410000000  0.4860970000000 1.0
C      1  0.5838360000000  0.4659690000000  0.5581590000000 1.0
C      1  0.4580470000000  0.4032590000000  0.5111680000000 1.0
C      1  0.5379210000000  0.5289480000000  0.4793850000000 1.0
C      1  0.5575700000000  0.4951380000000  0.5388210000000 1.0
C      1  0.4477130000000  0.5702190000000  0.5440450000000 1.0
C      1  0.4986980000000  0.5164060000000  0.3979430000000 1.0
C      1  0.4399550000000  0.4340390000000  0.4462710000000 1.0
C      1  0.5778680000000  0.4457130000000  0.4451600000000 1.0
C      1  0.5261840000000  0.4318890000000  0.4432150000000 1.0
C      1  0.4911510000000  0.5355960000000  0.4806570000000 1.0
C      1  0.4631920000000  0.4909770000000  0.5843450000000 1.0
C      1  0.5126430000000  0.4414830000000  0.5819600000000 1.0
C      1  0.4159680000000  0.5454620000000  0.5189350000000 1.0
C      1  0.5433910000000  0.4829400000000  0.4855480000000 1.0
C      1  0.4632620000000  0.4809440000000  0.4739950000000 1.0
C      1  0.5779440000000  0.5531280000000  0.4535160000000 1.0
C      1  0.5889000000000  0.4954130000000  0.4531180000000 1.0
C      1  0.4508960000000  0.4657900000000  0.5796900000000 1.0
C      1  0.5979180000000  0.4645940000000  0.5334000000000 1.0
C      1  0.4021090000000  0.4854490000000  0.4779530000000 1.0
C      1  0.4420840000000  0.5832520000000  0.5187360000000 1.0
C      1  0.5040090000000  0.4633710000000  0.5013560000000 1.0
C      1  0.4672680000000  0.5392360000000  0.4975320000000 1.0
C      1  0.5092630000000  0.5452960000000  0.5800280000000 1.0
C      1  0.5237510000000  0.5192180000000  0.4541430000000 1.0
C      1  0.5909110000000  0.5410960000000  0.4764140000000 1.0
C      1  0.5151000000000  0.4724430000000  0.4082230000000 1.0
C      1  0.4556420000000  0.4470870000000  0.4247320000000 1.0
C      1  0.5707750000000  0.5084100000000  0.4357750000000 1.0
C      1  0.5856760000000  0.4494310000000  0.5102350000000 1.0
C      1  0.4454180000000  0.4740290000000  0.4206640000000 1.0
C      1  0.5624310000000  0.5770860000000  0.4601190000000 1.0
C      1  0.5368090000000  0.4044030000000  0.5471550000000 1.0
C      1  0.5636180000000  0.5748220000000  0.5381420000000 1.0
C      1  0.5052100000000  0.4686860000000  0.5886460000000 1.0
C      1  0.5868890000000  0.5533460000000  0.5018680000000 1.0
C      1  0.4229880000000  0.5668710000000  0.4753040000000 1.0
C      1  0.5405180000000  0.4503480000000  0.5796950000000 1.0
C      1  0.4787460000000  0.4833590000000  0.5411840000000 1.0
C      1  0.4570900000000  0.4282320000000  0.4704160000000 1.0
C      1  0.4706500000000  0.5776500000000  0.5602690000000 1.0
C      1  0.5308900000000  0.5967430000000  0.4893900000000 1.0
C      1  0.4751030000000  0.5036220000000  0.5213990000000 1.0
C      1  0.4498560000000  0.5238100000000  0.4575130000000 1.0
C      1  0.5393730000000  0.5791460000000  0.5545890000000 1.0
C      1  0.5145660000000  0.5199410000000  0.5414990000000 1.0
C      1  0.4212910000000  0.4756680000000  0.4365910000000 1.0
C      1  0.5151770000000  0.5367000000000  0.4974120000000 1.0
C      1  0.5353680000000  0.5026080000000  0.5860680000000 1.0
C      1  0.4686670000000  0.4942380000000  0.4208660000000 1.0
C      1  0.4080450000000  0.5453110000000  0.4642680000000 1.0
C      1  0.5002460000000  0.4507480000000  0.4746700000000 1.0
C      1  0.5577260000000  0.4217880000000  0.5427740000000 1.0
C      1  0.4988050000000  0.5076820000000  0.4671310000000 1.0
C      1  0.5581830000000  0.5877500000000  0.4868480000000 1.0
C      1  0.4378270000000  0.5405640000000  0.5394000000000 1.0
C      1  0.4053800000000  0.4825180000000  0.5270660000000 1.0
C      1  0.5131080000000  0.4898490000000  0.4925860000000 1.0
C      1  0.6046220000000  0.4904380000000  0.4953170000000 1.0
C      1  0.4720400000000  0.5227180000000  0.4075620000000 1.0
C      1  0.5440170000000  0.4310040000000  0.5041350000000 1.0
C      1  0.4558650000000  0.4460910000000  0.5211090000000 1.0
C      1  0.4471600000000  0.5729570000000  0.4623060000000 1.0
C      1  0.5377550000000  0.5806210000000  0.4459740000000 1.0
C      1  0.6097730000000  0.4859940000000  0.5218130000000 1.0
C      1  0.4893430000000  0.5548620000000  0.4553900000000 1.0
C      1  0.5179490000000  0.5933530000000  0.5435240000000 1.0
C      1  0.4913160000000  0.5837050000000  0.4628300000000 1.0
C      1  0.5749560000000  0.4930600000000  0.5626300000000 1.0
C      1  0.4095230000000  0.4966660000000  0.4518610000000 1.0
C      1  0.4085280000000  0.4570360000000  0.4770910000000 1.0
C      1  0.5833360000000  0.5361450000000  0.5239000000000 1.0
C      1  0.5745510000000  0.5507530000000  0.5467770000000 1.0
C      1  0.4998590000000  0.4432980000000  0.5388990000000 1.0
C      1  0.4902630000000  0.4896870000000  0.5736420000000 1.0
C      1  0.4439160000000  0.4271650000000  0.4983420000000 1.0
C      1  0.5059410000000  0.5089830000000  0.5147240000000 1.0
C      1  0.4564630000000  0.4957130000000  0.4979200000000 1.0
C      1  0.4269480000000  0.4684330000000  0.5650900000000 1.0
C      1  0.4202730000000  0.5248630000000  0.4460080000000 1.0
C      1  0.4815800000000  0.4401770000000  0.4238610000000 1.0
C      1  0.5124370000000  0.3968620000000  0.5369310000000 1.0
C      1  0.5344970000000  0.5562170000000  0.5721010000000 1.0
C      1  0.5911450000000  0.4667860000000  0.4584430000000 1.0
C      1  0.4928810000000  0.4882410000000  0.4034120000000 1.0
C      1  0.4481490000000  0.5217940000000  0.4866070000000 1.0
C      1  0.3988030000000  0.4978140000000  0.5039960000000 1.0
C      1  0.5896560000000  0.5106790000000  0.4781760000000 1.0
C      1  0.4306770000000  0.5177310000000  0.5586380000000 1.0
C      1  0.4185100000000  0.4510770000000  0.4513670000000 1.0
C      1  0.4481290000000  0.4305430000000  0.5487670000000 1.0
C      1  0.5136320000000  0.5899740000000  0.5130730000000 1.0
C      1  0.4604450000000  0.5512960000000  0.4464430000000 1.0
C      1  0.5102830000000  0.4214550000000  0.4677860000000 1.0
C      1  0.4818140000000  0.5565740000000  0.5790990000000 1.0
C      1  0.4815640000000  0.4600630000000  0.5243720000000 1.0
C      1  0.5689240000000  0.5360790000000  0.4308080000000 1.0
C      1  0.4725290000000  0.4547150000000  0.4714600000000 1.0
C      1  0.4911860000000  0.4306050000000  0.5664220000000 1.0
C      1  0.3981620000000  0.5267830000000  0.5050410000000 1.0
C      1  0.5612210000000  0.5119130000000  0.5794250000000 1.0
C      1  0.5299680000000  0.5613490000000  0.4271610000000 1.0
C      1  0.3892270000000  0.5362660000000  0.4810030000000 1.0
C      1  0.5338570000000  0.4936840000000  0.4118950000000 1.0
C      1  0.5400180000000  0.4739220000000  0.4561530000000 1.0
C      1  0.4857380000000  0.5996080000000  0.5185160000000 1.0
C      1  0.4285500000000  0.5352430000000  0.4198320000000 1.0
C      1  0.4548730000000  0.5432670000000  0.4163720000000 1.0
C      1  0.4620700000000  0.4056870000000  0.5392760000000 1.0
C      1  0.4627520000000  0.5388690000000  0.5857380000000 1.0
C      1  0.5431810000000  0.5215130000000  0.5406370000000 1.0
C      1  0.5118470000000  0.5441760000000  0.4405450000000 1.0
C      1  0.4106470000000  0.4544820000000  0.5245990000000 1.0
C      1  0.5276360000000  0.5198860000000  0.4022540000000 1.0
C      1  0.4234070000000  0.4458200000000  0.5484260000000 1.0
C      1  0.5227610000000  0.4508160000000  0.5222600000000 1.0
C      1  0.5718970000000  0.5769230000000  0.5094320000000 1.0
C      1  0.5105970000000  0.5138710000000  0.5725160000000 1.0
C      1  0.4223790000000  0.5688860000000  0.5042410000000 1.0
C      1  0.4878290000000  0.4052010000000  0.5507560000000 1.0
C      1  0.5509660000000  0.4463480000000  0.4462210000000 1.0
C      1  0.4663620000000  0.5896880000000  0.4752440000000 1.0
C      1  0.4819170000000  0.3975090000000  0.4964240000000 1.0
C      1  0.5125950000000  0.4641480000000  0.4524160000000 1.0
C      1  0.4713990000000  0.5004390000000  0.4525620000000 1.0
C      1  0.5183870000000  0.5921140000000  0.4640940000000 1.0
C      1  0.5644770000000  0.5145760000000  0.5186810000000 1.0
C      1  0.5324390000000  0.4757100000000  0.5908970000000 1.0
C      1  0.5450350000000  0.5413420000000  0.4140830000000 1.0
C      1  0.4633910000000  0.4408710000000  0.5711850000000 1.0
C      1  0.5084910000000  0.3972660000000  0.5081610000000 1.0
C      1  0.4174750000000  0.4420690000000  0.4994850000000 1.0
C      1  0.5587160000000  0.4491670000000  0.5563870000000 1.0
C      1  0.5106870000000  0.5585880000000  0.5158540000000 1.0
C      1  0.4892400000000  0.5946150000000  0.5469330000000 1.0
C      1  0.5580350000000  0.5090180000000  0.4901540000000 1.0
C      1  0.4181960000000  0.4923260000000  0.5518280000000 1.0
C      1  0.5556890000000  0.5364720000000  0.5642720000000 1.0
C      1  0.5432280000000  0.4982470000000  0.4391410000000 1.0
C      1  0.4691640000000  0.5333580000000  0.5264480000000 1.0
C      1  0.4961020000000  0.5446080000000  0.5360800000000 1.0
C      1  0.5464320000000  0.4677600000000  0.5316170000000 1.0
C      1  0.5080280000000  0.4496390000000  0.4263780000000 1.0
C      1  0.5561520000000  0.4611420000000  0.5036390000000 1.0
C      1  0.5696450000000  0.4242470000000  0.5168960000000 1.0
C      1  0.4495560000000  0.5158160000000  0.5801560000000 1.0
C      1  0.5256650000000  0.4118210000000  0.4910330000000 1.0
C      1  0.4624760000000  0.5966890000000  0.5034770000000 1.0
C      1  0.4821010000000  0.4100580000000  0.4714760000000 1.0
END
