TITL C-52020-1535-2 -0.12097474559322 125000 -267.513044489852 0 0 40 (C1) n - 1
REM
REM in /rds/project/t2_vol4/rds-t2-cs072/BORA/CARBON/from-Arr/AIRSS/Generating-Clusters/GAP-ML-2020/Only-C1/SD-CG/HFTN-CG
REM
REM
REM
REM
REM
REM ./C.cell (11c1c37f851c82e70ff6c80c92926a4b)
REM AIRSS Version 0.9.1 bugfix July 2018 build 013d7b7c2542+ Fri, 06 Jul 2018 19:26:36 +0100
REM compiler GCC version 9.3.0
REM options -cpp -mtune=generic -march=x86-64 -g -O0
REM seed -877758003 1899025451 -887673023 -481358727 630791652 2077764534 -121399486 812291513 -239278871 -1280031959 76849644 80333929 -1116791905 -72015482 -1050905566 -584221629 -552800200 -729976937 -735418141 1567435688 915717708 481480555 1984629509 1533300467 -1909107561 1790369735 -927950259 -1799481008 516152448 -2052058293 -1096011735 673409187 -276590246
REM
CELL 1.54180   50.00000   50.00000   50.00000   90.00000   90.00000   90.00000
LATT -1
SFAC C  
C      1  0.5289350000000  0.4532910000000  0.4965500000000 1.0
C      1  0.5186690000000  0.4883080000000  0.5457880000000 1.0
C      1  0.5047430000000  0.5053110000000  0.4249980000000 1.0
C      1  0.5439340000000  0.4811590000000  0.5333610000000 1.0
C      1  0.4506180000000  0.5000280000000  0.5365470000000 1.0
C      1  0.4566610000000  0.4432640000000  0.4927960000000 1.0
C      1  0.4828470000000  0.4569390000000  0.5285110000000 1.0
C      1  0.5232490000000  0.5316250000000  0.5157120000000 1.0
C      1  0.5255620000000  0.4761330000000  0.4563930000000 1.0
C      1  0.4878890000000  0.5311600000000  0.5491890000000 1.0
C      1  0.4710640000000  0.5083700000000  0.4658680000000 1.0
C      1  0.5222880000000  0.5028950000000  0.4464460000000 1.0
C      1  0.5423630000000  0.4710370000000  0.4789860000000 1.0
C      1  0.4651300000000  0.4822980000000  0.5201850000000 1.0
C      1  0.4533040000000  0.4704180000000  0.4945160000000 1.0
C      1  0.5297580000000  0.5235600000000  0.4661780000000 1.0
C      1  0.5091100000000  0.5310310000000  0.4870840000000 1.0
C      1  0.5209770000000  0.5558550000000  0.5309510000000 1.0
C      1  0.4960770000000  0.5584590000000  0.5425690000000 1.0
C      1  0.5509870000000  0.5228090000000  0.5092860000000 1.0
C      1  0.5018840000000  0.4601410000000  0.4598050000000 1.0
C      1  0.5595600000000  0.4960070000000  0.5166880000000 1.0
C      1  0.5607920000000  0.4899160000000  0.4874160000000 1.0
C      1  0.4357810000000  0.5143520000000  0.5545690000000 1.0
C      1  0.4931870000000  0.5058340000000  0.4866200000000 1.0
C      1  0.5530040000000  0.5168730000000  0.4805810000000 1.0
C      1  0.5076560000000  0.4615700000000  0.5391460000000 1.0
C      1  0.4805140000000  0.5765920000000  0.5270470000000 1.0
C      1  0.4821300000000  0.4421770000000  0.5026070000000 1.0
C      1  0.4779190000000  0.4708440000000  0.4500060000000 1.0
C      1  0.4590910000000  0.4811990000000  0.4698530000000 1.0
C      1  0.4658020000000  0.5353570000000  0.4713330000000 1.0
C      1  0.4840970000000  0.4980810000000  0.4401890000000 1.0
C      1  0.4616560000000  0.5233590000000  0.5507740000000 1.0
C      1  0.4847640000000  0.5503720000000  0.4840620000000 1.0
C      1  0.5041260000000  0.4455450000000  0.4847190000000 1.0
C      1  0.4807840000000  0.5704580000000  0.5021190000000 1.0
C      1  0.5319330000000  0.4560080000000  0.5244970000000 1.0
C      1  0.5041090000000  0.5116590000000  0.5333470000000 1.0
C      1  0.4870430000000  0.4997080000000  0.5127100000000 1.0
END
