TITL C-55412-8174-4 -0.0276000470870442 125000 -309.108380338322 0 0 47 (C1) n - 1
REM
REM in /rds/project/t2_vol4/rds-t2-cs072/BORA/CARBON/from-Arr/AIRSS/Generating-Clusters/GAP-ML-2020/Only-C1/SD-CG/HFTN-CG
REM
REM
REM
REM
REM
REM ./C.cell (11c1c37f851c82e70ff6c80c92926a4b)
REM AIRSS Version 0.9.1 bugfix July 2018 build 013d7b7c2542+ Fri, 06 Jul 2018 19:26:36 +0100
REM compiler GCC version 9.3.0
REM options -cpp -mtune=generic -march=x86-64 -g -O0
REM seed -1747705660 -470699415 1149119269 1476814806 -2089795799 196253755 -1599706126 -1644190023 799472582 645826141 1046940314 53129310 -826949065 1614704619 -1362167222 210964840 -599007029 -461293278 -134752671 4305703 1059605358 -24614635 297549759 -1154513303 323003953 -197181789 -1347628198 -1228917197 1443403752 -859876134 59214961 523813167 -1517369817
REM
CELL 1.54180   50.00000   50.00000   50.00000   90.00000   90.00000   90.00000
LATT -1
SFAC C  
C      1  0.5169250000000  0.4875520000000  0.4875120000000 1.0
C      1  0.5420370000000  0.4861200000000  0.5424620000000 1.0
C      1  0.4856540000000  0.4486470000000  0.5411070000000 1.0
C      1  0.5102350000000  0.5395340000000  0.5421780000000 1.0
C      1  0.5305240000000  0.5091910000000  0.4480510000000 1.0
C      1  0.4735670000000  0.5182530000000  0.5617260000000 1.0
C      1  0.4476920000000  0.4816740000000  0.4876910000000 1.0
C      1  0.5133800000000  0.4946940000000  0.5469030000000 1.0
C      1  0.4366200000000  0.5076770000000  0.4941690000000 1.0
C      1  0.5081070000000  0.4938300000000  0.4408030000000 1.0
C      1  0.5388030000000  0.4510270000000  0.4918280000000 1.0
C      1  0.5339900000000  0.4328840000000  0.5450190000000 1.0
C      1  0.5454640000000  0.4574050000000  0.5393310000000 1.0
C      1  0.5112550000000  0.4665220000000  0.4509270000000 1.0
C      1  0.5010480000000  0.5200960000000  0.5627020000000 1.0
C      1  0.5335170000000  0.4681830000000  0.4692680000000 1.0
C      1  0.4865960000000  0.4600330000000  0.4591060000000 1.0
C      1  0.5102940000000  0.4346870000000  0.5314650000000 1.0
C      1  0.4988500000000  0.5421150000000  0.4647280000000 1.0
C      1  0.4955440000000  0.4755580000000  0.5357880000000 1.0
C      1  0.4498840000000  0.4605360000000  0.5066320000000 1.0
C      1  0.5216540000000  0.5531400000000  0.5045860000000 1.0
C      1  0.4514140000000  0.5402100000000  0.4543150000000 1.0
C      1  0.4707770000000  0.4831180000000  0.4672230000000 1.0
C      1  0.5388980000000  0.5359250000000  0.4886200000000 1.0
C      1  0.4523560000000  0.5438190000000  0.5224800000000 1.0
C      1  0.4657800000000  0.5554510000000  0.4994700000000 1.0
C      1  0.4473690000000  0.5540210000000  0.4779460000000 1.0
C      1  0.5013330000000  0.4714600000000  0.5074010000000 1.0
C      1  0.5132170000000  0.4456120000000  0.5044500000000 1.0
C      1  0.5554020000000  0.4633170000000  0.5116300000000 1.0
C      1  0.4775300000000  0.5308510000000  0.4485380000000 1.0
C      1  0.4372930000000  0.5209720000000  0.5202450000000 1.0
C      1  0.5502330000000  0.4914370000000  0.4604010000000 1.0
C      1  0.4627030000000  0.4486740000000  0.5253700000000 1.0
C      1  0.4329530000000  0.5284810000000  0.4738080000000 1.0
C      1  0.5571670000000  0.4919230000000  0.5168080000000 1.0
C      1  0.5580420000000  0.5123950000000  0.4954540000000 1.0
C      1  0.5233130000000  0.5606400000000  0.5316360000000 1.0
C      1  0.5255590000000  0.5329800000000  0.4632150000000 1.0
C      1  0.4892650000000  0.4923830000000  0.4896700000000 1.0
C      1  0.5081780000000  0.5150430000000  0.5254410000000 1.0
C      1  0.4549490000000  0.5259040000000  0.5445180000000 1.0
C      1  0.4818110000000  0.5027460000000  0.4453220000000 1.0
C      1  0.4890310000000  0.5162250000000  0.5056510000000 1.0
C      1  0.4924960000000  0.5452870000000  0.4933180000000 1.0
C      1  0.5712910000000  0.5017640000000  0.4730890000000 1.0
END
