TITL C-55396-9230-5 -303.769051796322 125000 -711.459629751337 0 0 101 (C1) n - 1
REM
REM in /rds/project/t2_vol4/rds-t2-cs072/BORA/CARBON/from-Arr/AIRSS/Generating-Clusters/GAP-ML-2020/Only-C1/SD-CG/HFTN-CG
REM
REM
REM
REM
REM
REM ./C.cell (11c1c37f851c82e70ff6c80c92926a4b)
REM AIRSS Version 0.9.1 bugfix July 2018 build 013d7b7c2542+ Fri, 06 Jul 2018 19:26:36 +0100
REM compiler GCC version 9.3.0
REM options -cpp -mtune=generic -march=x86-64 -g -O0
REM seed 754714330 1901949470 1673627072 568665535 542506960 265349972 1288621043 825208505 -871418438 366223731 -592090639 -1951575737 1566487841 -1906573242 -400813057 1417828880 -182671452 -59105456 -1721534378 2016817363 119406051 -1967786446 -2021724003 -1210616700 384419086 -279101866 -236289226 1992759492 1671416783 2098290095 1417400085 2055993057 -2121530269
REM
CELL 1.54180   50.00000   50.00000   50.00000   90.00000   90.00000   90.00000
LATT -1
SFAC C  
C      1  0.4757570000000  0.5520420000000  0.5596890000000 1.0
C      1  0.5642670000000  0.5304490000000  0.4322980000000 1.0
C      1  0.5276750000000  0.4983310000000  0.4234960000000 1.0
C      1  0.5268280000000  0.5323260000000  0.4567980000000 1.0
C      1  0.4622320000000  0.4605090000000  0.4267490000000 1.0
C      1  0.4697750000000  0.5646460000000  0.5324250000000 1.0
C      1  0.4348270000000  0.4464870000000  0.4988560000000 1.0
C      1  0.5381890000000  0.5258150000000  0.4992900000000 1.0
C      1  0.4193020000000  0.4671050000000  0.4862280000000 1.0
C      1  0.4529670000000  0.5207560000000  0.5143010000000 1.0
C      1  0.5936170000000  0.4847970000000  0.5191420000000 1.0
C      1  0.4817530000000  0.4583710000000  0.4893780000000 1.0
C      1  0.5346330000000  0.5255710000000  0.4299180000000 1.0
C      1  0.4352580000000  0.5182380000000  0.4384460000000 1.0
C      1  0.5503020000000  0.5002230000000  0.5656330000000 1.0
C      1  0.4729950000000  0.5376410000000  0.4220870000000 1.0
C      1  0.4539520000000  0.5511520000000  0.4686210000000 1.0
C      1  0.4121740000000  0.4846860000000  0.5093090000000 1.0
C      1  0.4844740000000  0.4897630000000  0.5239870000000 1.0
C      1  0.4975440000000  0.4218100000000  0.5517330000000 1.0
C      1  0.4282740000000  0.5557360000000  0.5117310000000 1.0
C      1  0.5510240000000  0.4247680000000  0.5129010000000 1.0
C      1  0.4608080000000  0.5290660000000  0.5655750000000 1.0
C      1  0.4335700000000  0.4489660000000  0.5275830000000 1.0
C      1  0.5543330000000  0.4861680000000  0.4343000000000 1.0
C      1  0.4188510000000  0.5074020000000  0.4590670000000 1.0
C      1  0.4746280000000  0.4598310000000  0.5749890000000 1.0
C      1  0.4889430000000  0.4969170000000  0.4670320000000 1.0
C      1  0.4520850000000  0.5401880000000  0.4420910000000 1.0
C      1  0.4677010000000  0.4864410000000  0.4827840000000 1.0
C      1  0.5885330000000  0.5101580000000  0.5276080000000 1.0
C      1  0.5456650000000  0.4325450000000  0.5401550000000 1.0
C      1  0.4450070000000  0.5738140000000  0.5228680000000 1.0
C      1  0.4760090000000  0.5384810000000  0.5136040000000 1.0
C      1  0.4256810000000  0.5289760000000  0.5257270000000 1.0
C      1  0.4220590000000  0.4787650000000  0.4597390000000 1.0
C      1  0.4098250000000  0.5123610000000  0.5071680000000 1.0
C      1  0.5596640000000  0.5646210000000  0.4694530000000 1.0
C      1  0.5205680000000  0.4803150000000  0.4970870000000 1.0
C      1  0.4927680000000  0.4095470000000  0.5249220000000 1.0
C      1  0.4403400000000  0.4735980000000  0.4358460000000 1.0
C      1  0.4969330000000  0.5769740000000  0.5340170000000 1.0
C      1  0.5001630000000  0.5232760000000  0.4716340000000 1.0
C      1  0.5618710000000  0.4734960000000  0.4603140000000 1.0
C      1  0.4567270000000  0.4827610000000  0.5726500000000 1.0
C      1  0.4811250000000  0.5484040000000  0.4843980000000 1.0
C      1  0.4494800000000  0.4982240000000  0.4236390000000 1.0
C      1  0.5647750000000  0.4950020000000  0.4817150000000 1.0
C      1  0.5244000000000  0.5120930000000  0.5682830000000 1.0
C      1  0.4538990000000  0.4320390000000  0.5389000000000 1.0
C      1  0.5069020000000  0.4521020000000  0.4460890000000 1.0
C      1  0.5599320000000  0.4562390000000  0.5444100000000 1.0
C      1  0.4729330000000  0.5060690000000  0.5779640000000 1.0
C      1  0.5477320000000  0.4723560000000  0.5641350000000 1.0
C      1  0.4367740000000  0.5191800000000  0.5514480000000 1.0
C      1  0.5910650000000  0.5018840000000  0.4984160000000 1.0
C      1  0.5698120000000  0.4661210000000  0.5190560000000 1.0
C      1  0.5110680000000  0.4029200000000  0.5059730000000 1.0
C      1  0.5333880000000  0.5616160000000  0.4585500000000 1.0
C      1  0.4297530000000  0.5475850000000  0.4839540000000 1.0
C      1  0.4735190000000  0.4355920000000  0.5600770000000 1.0
C      1  0.5397680000000  0.4255030000000  0.4677160000000 1.0
C      1  0.4996330000000  0.4679310000000  0.5139640000000 1.0
C      1  0.4889900000000  0.5603280000000  0.4170110000000 1.0
C      1  0.5105260000000  0.5812460000000  0.5100470000000 1.0
C      1  0.4670280000000  0.4191400000000  0.5170380000000 1.0
C      1  0.5651190000000  0.5180690000000  0.5446510000000 1.0
C      1  0.5035950000000  0.5607790000000  0.5574520000000 1.0
C      1  0.4342200000000  0.4906610000000  0.5557040000000 1.0
C      1  0.5010310000000  0.4705310000000  0.5811380000000 1.0
C      1  0.4144280000000  0.5237440000000  0.4814510000000 1.0
C      1  0.5726370000000  0.5057290000000  0.4242100000000 1.0
C      1  0.4227680000000  0.4745420000000  0.5345620000000 1.0
C      1  0.4894520000000  0.4645410000000  0.4262830000000 1.0
C      1  0.5701450000000  0.5404030000000  0.4590170000000 1.0
C      1  0.4977040000000  0.5165460000000  0.5208060000000 1.0
C      1  0.5599000000000  0.5725100000000  0.4968400000000 1.0
C      1  0.5393530000000  0.5824250000000  0.5123040000000 1.0
C      1  0.5009820000000  0.4991550000000  0.5809030000000 1.0
C      1  0.4973550000000  0.5744750000000  0.4363840000000 1.0
C      1  0.4760130000000  0.5090450000000  0.4164460000000 1.0
C      1  0.5243430000000  0.4574140000000  0.5724680000000 1.0
C      1  0.5270950000000  0.5424680000000  0.5568150000000 1.0
C      1  0.5453700000000  0.5109530000000  0.5236820000000 1.0
C      1  0.4998130000000  0.4910730000000  0.4175700000000 1.0
C      1  0.5336610000000  0.4122430000000  0.4939300000000 1.0
C      1  0.4615470000000  0.4351370000000  0.4931290000000 1.0
C      1  0.5207070000000  0.5185660000000  0.5392620000000 1.0
C      1  0.4611400000000  0.4946400000000  0.5086980000000 1.0
C      1  0.4979070000000  0.5733750000000  0.4857240000000 1.0
C      1  0.5048680000000  0.4701040000000  0.4712280000000 1.0
C      1  0.5567540000000  0.5655570000000  0.5256660000000 1.0
C      1  0.5662890000000  0.4443850000000  0.4996620000000 1.0
C      1  0.5129710000000  0.5117930000000  0.4955830000000 1.0
C      1  0.5214660000000  0.4294710000000  0.4484720000000 1.0
C      1  0.5594910000000  0.4471430000000  0.4721710000000 1.0
C      1  0.5491450000000  0.4860730000000  0.5068330000000 1.0
C      1  0.5228610000000  0.4327120000000  0.5579720000000 1.0
C      1  0.5523640000000  0.5215440000000  0.4742010000000 1.0
C      1  0.5541330000000  0.5469550000000  0.5467290000000 1.0
C      1  0.5103200000000  0.5777730000000  0.4600450000000 1.0
END
