TITL C-55407-8061-4 280.147784726771 125000 -830.405073582187 0 0 118 (C1) n - 1
REM
REM in /rds/project/t2_vol4/rds-t2-cs072/BORA/CARBON/from-Arr/AIRSS/Generating-Clusters/GAP-ML-2020/Only-C1/SD-CG/HFTN-CG
REM
REM
REM
REM
REM
REM ./C.cell (11c1c37f851c82e70ff6c80c92926a4b)
REM AIRSS Version 0.9.1 bugfix July 2018 build 013d7b7c2542+ Fri, 06 Jul 2018 19:26:36 +0100
REM compiler GCC version 9.3.0
REM options -cpp -mtune=generic -march=x86-64 -g -O0
REM seed 322875027 -1729490649 -2022265240 1048509265 1192027879 -1292216068 -1256103740 158377411 247722811 -1255710548 -1611615225 -1730164119 43221086 -1112482566 796471105 456511189 -1519724976 887445446 805398694 710987537 -121169012 1033786535 1397863381 -1918653212 96441071 1560717040 2127737673 -1332210053 1163165304 438705278 -1403610685 645057788 -1342655469
REM
CELL 1.54180   50.00000   50.00000   50.00000   90.00000   90.00000   90.00000
LATT -1
SFAC C  
C      1  0.5177880000000  0.5070920000000  0.5481180000000 1.0
C      1  0.4326450000000  0.5579420000000  0.4908200000000 1.0
C      1  0.5378110000000  0.5810550000000  0.4907090000000 1.0
C      1  0.5340730000000  0.4562140000000  0.5715150000000 1.0
C      1  0.5470540000000  0.4652140000000  0.5446630000000 1.0
C      1  0.4766260000000  0.4919540000000  0.5356260000000 1.0
C      1  0.5830510000000  0.5327050000000  0.5056490000000 1.0
C      1  0.4494480000000  0.5806490000000  0.4854680000000 1.0
C      1  0.4310390000000  0.5492260000000  0.5176780000000 1.0
C      1  0.4580160000000  0.4972790000000  0.5157340000000 1.0
C      1  0.4329990000000  0.4568220000000  0.5345520000000 1.0
C      1  0.4818070000000  0.4673300000000  0.4776040000000 1.0
C      1  0.5268970000000  0.4386830000000  0.5072190000000 1.0
C      1  0.4824210000000  0.3889330000000  0.5207190000000 1.0
C      1  0.4577350000000  0.5786980000000  0.4586420000000 1.0
C      1  0.4116160000000  0.5003820000000  0.4827740000000 1.0
C      1  0.5730200000000  0.5042960000000  0.5637520000000 1.0
C      1  0.4760840000000  0.4318190000000  0.4304540000000 1.0
C      1  0.5272800000000  0.4636250000000  0.4883900000000 1.0
C      1  0.4599910000000  0.4555710000000  0.4244910000000 1.0
C      1  0.4858130000000  0.5454650000000  0.5421450000000 1.0
C      1  0.4850020000000  0.5383470000000  0.4937230000000 1.0
C      1  0.5083520000000  0.4244760000000  0.4615700000000 1.0
C      1  0.5012720000000  0.4392530000000  0.5268370000000 1.0
C      1  0.4387040000000  0.4990780000000  0.4408860000000 1.0
C      1  0.5457420000000  0.5465690000000  0.5738580000000 1.0
C      1  0.5199300000000  0.5499040000000  0.4270580000000 1.0
C      1  0.5025970000000  0.4587530000000  0.4010250000000 1.0
C      1  0.5512960000000  0.4466320000000  0.5216360000000 1.0
C      1  0.4727600000000  0.4325920000000  0.5170300000000 1.0
C      1  0.5480050000000  0.4372010000000  0.4423850000000 1.0
C      1  0.5221380000000  0.4260040000000  0.4348980000000 1.0
C      1  0.5068060000000  0.4961020000000  0.4348030000000 1.0
C      1  0.5274190000000  0.5298500000000  0.4105250000000 1.0
C      1  0.4215700000000  0.5207750000000  0.5535380000000 1.0
C      1  0.5660060000000  0.5113320000000  0.4522830000000 1.0
C      1  0.4836640000000  0.5124270000000  0.5811220000000 1.0
C      1  0.4619660000000  0.5807590000000  0.5307970000000 1.0
C      1  0.4463810000000  0.5552430000000  0.4469890000000 1.0
C      1  0.5693870000000  0.4600380000000  0.5039080000000 1.0
C      1  0.5299850000000  0.4198690000000  0.4826490000000 1.0
C      1  0.5027110000000  0.5353150000000  0.5865920000000 1.0
C      1  0.4774370000000  0.4713120000000  0.4086340000000 1.0
C      1  0.4894780000000  0.5145780000000  0.5489190000000 1.0
C      1  0.5526500000000  0.4249360000000  0.4672500000000 1.0
C      1  0.4306140000000  0.4567210000000  0.4645090000000 1.0
C      1  0.5246710000000  0.4306810000000  0.5696540000000 1.0
C      1  0.4676090000000  0.5900640000000  0.5061300000000 1.0
C      1  0.5089190000000  0.4193030000000  0.5496590000000 1.0
C      1  0.4895870000000  0.4938780000000  0.4831020000000 1.0
C      1  0.5741230000000  0.4953190000000  0.4745610000000 1.0
C      1  0.5296840000000  0.5293060000000  0.5911030000000 1.0
C      1  0.5657200000000  0.4982540000000  0.5891400000000 1.0
C      1  0.4429040000000  0.5378990000000  0.5623100000000 1.0
C      1  0.4815020000000  0.4969560000000  0.4189310000000 1.0
C      1  0.5282010000000  0.5667440000000  0.5617590000000 1.0
C      1  0.4572460000000  0.4528550000000  0.5651900000000 1.0
C      1  0.4456260000000  0.4360790000000  0.4781180000000 1.0
C      1  0.5064160000000  0.4563260000000  0.4672410000000 1.0
C      1  0.5763250000000  0.5456470000000  0.5319220000000 1.0
C      1  0.4829550000000  0.4649010000000  0.5674840000000 1.0
C      1  0.4983670000000  0.3954050000000  0.5398320000000 1.0
C      1  0.5548240000000  0.4929980000000  0.4336590000000 1.0
C      1  0.4547430000000  0.5544240000000  0.5389160000000 1.0
C      1  0.5287470000000  0.5808600000000  0.4645690000000 1.0
C      1  0.5172160000000  0.4704390000000  0.4448210000000 1.0
C      1  0.5715540000000  0.4826360000000  0.5442110000000 1.0
C      1  0.4944450000000  0.4839940000000  0.5855830000000 1.0
C      1  0.4294340000000  0.5425650000000  0.4655440000000 1.0
C      1  0.5389720000000  0.5019970000000  0.5946860000000 1.0
C      1  0.4715800000000  0.5123490000000  0.4960280000000 1.0
C      1  0.5621620000000  0.5696320000000  0.5265690000000 1.0
C      1  0.5317790000000  0.5011210000000  0.4152980000000 1.0
C      1  0.5262600000000  0.5253200000000  0.4730540000000 1.0
C      1  0.4135500000000  0.5279440000000  0.5259970000000 1.0
C      1  0.5300240000000  0.5139910000000  0.4988590000000 1.0
C      1  0.4227330000000  0.4741340000000  0.4855760000000 1.0
C      1  0.5184700000000  0.4878730000000  0.5039670000000 1.0
C      1  0.4608610000000  0.4117910000000  0.4753890000000 1.0
C      1  0.5237570000000  0.4759170000000  0.4009340000000 1.0
C      1  0.4952770000000  0.5938000000000  0.4971560000000 1.0
C      1  0.5813040000000  0.4819050000000  0.5172500000000 1.0
C      1  0.4599580000000  0.5132170000000  0.4276670000000 1.0
C      1  0.5364520000000  0.5780880000000  0.5369800000000 1.0
C      1  0.5855420000000  0.5043240000000  0.4991480000000 1.0
C      1  0.4329160000000  0.4975780000000  0.5685970000000 1.0
C      1  0.5171580000000  0.5795990000000  0.5121450000000 1.0
C      1  0.5262340000000  0.5330540000000  0.5183610000000 1.0
C      1  0.5482010000000  0.4671480000000  0.4463320000000 1.0
C      1  0.4531550000000  0.4374130000000  0.5405160000000 1.0
C      1  0.5021250000000  0.5915230000000  0.4690040000000 1.0
C      1  0.5639210000000  0.5314160000000  0.5547630000000 1.0
C      1  0.5715180000000  0.5484270000000  0.4846000000000 1.0
C      1  0.5385960000000  0.5606200000000  0.4468380000000 1.0
C      1  0.4994280000000  0.5384680000000  0.4684300000000 1.0
C      1  0.4921060000000  0.5533400000000  0.4398510000000 1.0
C      1  0.4653930000000  0.5407230000000  0.4321910000000 1.0
C      1  0.4798350000000  0.4164120000000  0.4548830000000 1.0
C      1  0.5019400000000  0.4339310000000  0.4164040000000 1.0
C      1  0.4959050000000  0.4668060000000  0.5398970000000 1.0
C      1  0.4842900000000  0.5805210000000  0.4504500000000 1.0
C      1  0.5624500000000  0.5716800000000  0.4979140000000 1.0
C      1  0.5205960000000  0.4818550000000  0.5342480000000 1.0
C      1  0.4416330000000  0.4714390000000  0.5082500000000 1.0
C      1  0.5540060000000  0.5380570000000  0.4617570000000 1.0
C      1  0.4234580000000  0.5146340000000  0.4603510000000 1.0
C      1  0.5017570000000  0.5493230000000  0.5164520000000 1.0
C      1  0.4036310000000  0.5130150000000  0.5054560000000 1.0
C      1  0.4335760000000  0.4701420000000  0.5612310000000 1.0
C      1  0.5050450000000  0.5084050000000  0.4613160000000 1.0
C      1  0.4625340000000  0.4521220000000  0.4962840000000 1.0
C      1  0.4704350000000  0.4064560000000  0.5029040000000 1.0
C      1  0.5586870000000  0.4697060000000  0.4767530000000 1.0
C      1  0.5220500000000  0.4793320000000  0.5880360000000 1.0
C      1  0.4398480000000  0.4694070000000  0.4405190000000 1.0
C      1  0.5014400000000  0.5559770000000  0.5661920000000 1.0
C      1  0.5370870000000  0.5252360000000  0.5422570000000 1.0
C      1  0.4544590000000  0.5162790000000  0.5786760000000 1.0
END
