TITL C-55400-8242-11 0.177186661812912 125000 -537.09339929583 0 0 76 (C1) n - 1
REM
REM in /rds/project/t2_vol4/rds-t2-cs072/BORA/CARBON/from-Arr/AIRSS/Generating-Clusters/GAP-ML-2020/Only-C1/SD-CG/HFTN-CG
REM
REM
REM
REM
REM
REM ./C.cell (11c1c37f851c82e70ff6c80c92926a4b)
REM AIRSS Version 0.9.1 bugfix July 2018 build 013d7b7c2542+ Fri, 06 Jul 2018 19:26:36 +0100
REM compiler GCC version 9.3.0
REM options -cpp -mtune=generic -march=x86-64 -g -O0
REM seed -225018423 2134740253 -1319444389 -1642895280 1961347329 -859889748 1935700677 -906397160 408487957 -432142576 1271582040 -792751365 -953189567 -2085046170 399050086 -1096571377 -178165868 1121176010 1902241723 -36971278 -1495617779 -727710014 -1153066481 1504516397 -593130437 -1955125973 -846409079 -1177719787 -1727454779 -232833183 1570933960 -1158390665 1173844489
REM
CELL 1.54180   50.00000   50.00000   50.00000   90.00000   90.00000   90.00000
LATT -1
SFAC C  
C      1  0.5496590000000  0.5408270000000  0.5306780000000 1.0
C      1  0.5626460000000  0.4353410000000  0.5237210000000 1.0
C      1  0.4961650000000  0.4305810000000  0.4673730000000 1.0
C      1  0.5168390000000  0.4375680000000  0.5391450000000 1.0
C      1  0.4984800000000  0.5458670000000  0.4304190000000 1.0
C      1  0.4697810000000  0.5075590000000  0.4360670000000 1.0
C      1  0.5048960000000  0.5230050000000  0.4764710000000 1.0
C      1  0.4621450000000  0.4995550000000  0.5277130000000 1.0
C      1  0.5075630000000  0.5246450000000  0.5661550000000 1.0
C      1  0.5604990000000  0.4775870000000  0.4998780000000 1.0
C      1  0.4307440000000  0.4845280000000  0.5545390000000 1.0
C      1  0.4917790000000  0.4904510000000  0.4295280000000 1.0
C      1  0.5073050000000  0.5241200000000  0.5201370000000 1.0
C      1  0.5027200000000  0.4966770000000  0.5740770000000 1.0
C      1  0.5608590000000  0.5299330000000  0.4586370000000 1.0
C      1  0.5679840000000  0.5195450000000  0.5291210000000 1.0
C      1  0.4384180000000  0.4617580000000  0.4928080000000 1.0
C      1  0.4354290000000  0.5117280000000  0.5187100000000 1.0
C      1  0.4982430000000  0.4777350000000  0.4837990000000 1.0
C      1  0.5399070000000  0.5440140000000  0.4477030000000 1.0
C      1  0.5567680000000  0.4494290000000  0.5003890000000 1.0
C      1  0.4578840000000  0.5289610000000  0.5636360000000 1.0
C      1  0.5455690000000  0.5482960000000  0.5019050000000 1.0
C      1  0.4458820000000  0.5484560000000  0.4942700000000 1.0
C      1  0.5432920000000  0.4484830000000  0.5377320000000 1.0
C      1  0.5320960000000  0.4575520000000  0.4547700000000 1.0
C      1  0.4577510000000  0.4398670000000  0.4956480000000 1.0
C      1  0.5054870000000  0.4517280000000  0.5607610000000 1.0
C      1  0.4555820000000  0.5042250000000  0.4638930000000 1.0
C      1  0.4371850000000  0.5391750000000  0.5193440000000 1.0
C      1  0.5089470000000  0.5781090000000  0.5066160000000 1.0
C      1  0.5631260000000  0.5011850000000  0.4517810000000 1.0
C      1  0.4616370000000  0.4469870000000  0.5431940000000 1.0
C      1  0.5130350000000  0.4288830000000  0.4898270000000 1.0
C      1  0.5367760000000  0.4428280000000  0.4806820000000 1.0
C      1  0.4874050000000  0.5026230000000  0.5152410000000 1.0
C      1  0.5205830000000  0.4749910000000  0.5677440000000 1.0
C      1  0.4246700000000  0.4676670000000  0.5165720000000 1.0
C      1  0.5082600000000  0.4808990000000  0.5099530000000 1.0
C      1  0.4581160000000  0.5496890000000  0.4509720000000 1.0
C      1  0.5012800000000  0.4293090000000  0.5166000000000 1.0
C      1  0.4728580000000  0.5348350000000  0.4312260000000 1.0
C      1  0.4750880000000  0.5684040000000  0.4644620000000 1.0
C      1  0.5801250000000  0.5186070000000  0.5028730000000 1.0
C      1  0.5435070000000  0.4752370000000  0.5513950000000 1.0
C      1  0.4178390000000  0.4931660000000  0.5291480000000 1.0
C      1  0.4786430000000  0.4577310000000  0.5635100000000 1.0
C      1  0.4692920000000  0.4364040000000  0.4703290000000 1.0
C      1  0.5393250000000  0.4847390000000  0.4439590000000 1.0
C      1  0.4363550000000  0.4593130000000  0.5418250000000 1.0
C      1  0.5068730000000  0.4472880000000  0.4466840000000 1.0
C      1  0.4455370000000  0.4762230000000  0.4681330000000 1.0
C      1  0.4451510000000  0.5328720000000  0.4692760000000 1.0
C      1  0.4671370000000  0.5678610000000  0.4927850000000 1.0
C      1  0.4768330000000  0.4850640000000  0.5727280000000 1.0
C      1  0.4839090000000  0.5737150000000  0.5164460000000 1.0
C      1  0.5264170000000  0.5249790000000  0.5433910000000 1.0
C      1  0.5254270000000  0.5217700000000  0.4968470000000 1.0
C      1  0.5355620000000  0.4938730000000  0.5078550000000 1.0
C      1  0.4499760000000  0.5481930000000  0.5429150000000 1.0
C      1  0.5815640000000  0.4929940000000  0.4892780000000 1.0
C      1  0.4843940000000  0.5406990000000  0.5629120000000 1.0
C      1  0.5214950000000  0.5296990000000  0.4304150000000 1.0
C      1  0.5871860000000  0.4909100000000  0.4620660000000 1.0
C      1  0.4755080000000  0.5611610000000  0.5422440000000 1.0
C      1  0.4731080000000  0.4350070000000  0.5194480000000 1.0
C      1  0.5458880000000  0.5003270000000  0.5364780000000 1.0
C      1  0.5287890000000  0.5698190000000  0.4906470000000 1.0
C      1  0.4850360000000  0.5037670000000  0.4821070000000 1.0
C      1  0.5190600000000  0.5005450000000  0.4306780000000 1.0
C      1  0.5261350000000  0.5653570000000  0.4617470000000 1.0
C      1  0.5001170000000  0.5660940000000  0.4507850000000 1.0
C      1  0.4859670000000  0.4642430000000  0.4377590000000 1.0
C      1  0.5685510000000  0.5383980000000  0.4859830000000 1.0
C      1  0.4624200000000  0.4581150000000  0.4532670000000 1.0
C      1  0.4555360000000  0.5002270000000  0.5601890000000 1.0
END
