TITL C-55394-8258-6 223.308855523848 125000 -532.664389415622 0 0 78 (C1) n - 1
REM
REM in /rds/project/t2_vol4/rds-t2-cs072/BORA/CARBON/from-Arr/AIRSS/Generating-Clusters/GAP-ML-2020/Only-C1/SD-CG/HFTN-CG
REM
REM
REM
REM
REM
REM ./C.cell (11c1c37f851c82e70ff6c80c92926a4b)
REM AIRSS Version 0.9.1 bugfix July 2018 build 013d7b7c2542+ Fri, 06 Jul 2018 19:26:36 +0100
REM compiler GCC version 9.3.0
REM options -cpp -mtune=generic -march=x86-64 -g -O0
REM seed -914161415 1857879711 203574084 184466898 -16803158 514265240 1196482266 -1913334183 -918551477 708025233 -801664549 92763043 767233186 1646131788 2117618723 951494234 -1182857198 -1643642123 1311220657 -628477678 1883257071 -1654897021 -1298466465 1759288391 240006802 1741723879 -1450677270 1242501090 -1214942766 1724019430 -775906600 1254043154 -1545944883
REM
CELL 1.54180   50.00000   50.00000   50.00000   90.00000   90.00000   90.00000
LATT -1
SFAC C  
C      1  0.4895400000000  0.4738400000000  0.5647400000000 1.0
C      1  0.5213230000000  0.4987740000000  0.4313150000000 1.0
C      1  0.4796930000000  0.5616400000000  0.4523640000000 1.0
C      1  0.5180210000000  0.5148970000000  0.4944170000000 1.0
C      1  0.5057160000000  0.4732490000000  0.4375640000000 1.0
C      1  0.4983920000000  0.5351410000000  0.4883640000000 1.0
C      1  0.5242610000000  0.5751740000000  0.5515940000000 1.0
C      1  0.4368830000000  0.4596250000000  0.4567600000000 1.0
C      1  0.4943490000000  0.4280230000000  0.4931990000000 1.0
C      1  0.4826700000000  0.4087470000000  0.5335370000000 1.0
C      1  0.4615040000000  0.5642070000000  0.5338840000000 1.0
C      1  0.5107760000000  0.4982680000000  0.5160450000000 1.0
C      1  0.4827460000000  0.5835380000000  0.4938740000000 1.0
C      1  0.5375650000000  0.4999050000000  0.5576540000000 1.0
C      1  0.4648800000000  0.5708940000000  0.4762200000000 1.0
C      1  0.5752320000000  0.4689170000000  0.5378880000000 1.0
C      1  0.4959140000000  0.4581100000000  0.4984340000000 1.0
C      1  0.5172880000000  0.4509330000000  0.4526660000000 1.0
C      1  0.4431120000000  0.4578600000000  0.4840210000000 1.0
C      1  0.5275700000000  0.4252010000000  0.5268330000000 1.0
C      1  0.4571930000000  0.4955460000000  0.4423340000000 1.0
C      1  0.4570950000000  0.5389830000000  0.5497110000000 1.0
C      1  0.5185310000000  0.4498810000000  0.5385990000000 1.0
C      1  0.5784560000000  0.5173960000000  0.4998430000000 1.0
C      1  0.5495650000000  0.4973150000000  0.4340410000000 1.0
C      1  0.4401640000000  0.5066890000000  0.4980900000000 1.0
C      1  0.4304180000000  0.5028510000000  0.5245480000000 1.0
C      1  0.4645090000000  0.4238060000000  0.4862510000000 1.0
C      1  0.5476540000000  0.4299020000000  0.4849800000000 1.0
C      1  0.5150050000000  0.5238440000000  0.4483660000000 1.0
C      1  0.4839720000000  0.5089510000000  0.5231580000000 1.0
C      1  0.5118240000000  0.4904260000000  0.5697030000000 1.0
C      1  0.5532660000000  0.5447510000000  0.5254070000000 1.0
C      1  0.5273260000000  0.5790530000000  0.5046400000000 1.0
C      1  0.4407530000000  0.5544900000000  0.5157490000000 1.0
C      1  0.4751880000000  0.5167240000000  0.5556620000000 1.0
C      1  0.4827340000000  0.5344530000000  0.5101180000000 1.0
C      1  0.4433380000000  0.5270600000000  0.4782870000000 1.0
C      1  0.5514630000000  0.4287070000000  0.5120870000000 1.0
C      1  0.5668970000000  0.5197350000000  0.5242520000000 1.0
C      1  0.5176350000000  0.4697490000000  0.5150300000000 1.0
C      1  0.4449460000000  0.4370430000000  0.5020280000000 1.0
C      1  0.5366560000000  0.5503730000000  0.5480430000000 1.0
C      1  0.5476390000000  0.4746130000000  0.5088400000000 1.0
C      1  0.4645370000000  0.4916490000000  0.5082190000000 1.0
C      1  0.5420220000000  0.4512280000000  0.4684040000000 1.0
C      1  0.5110110000000  0.5807680000000  0.5288320000000 1.0
C      1  0.5482710000000  0.5600530000000  0.5017390000000 1.0
C      1  0.5043270000000  0.4119130000000  0.5164860000000 1.0
C      1  0.5574430000000  0.4930450000000  0.5358320000000 1.0
C      1  0.5649020000000  0.4517930000000  0.5204450000000 1.0
C      1  0.5148540000000  0.5727000000000  0.4575680000000 1.0
C      1  0.5541570000000  0.4748030000000  0.4796570000000 1.0
C      1  0.4726340000000  0.4339200000000  0.5415230000000 1.0
C      1  0.4496580000000  0.4784350000000  0.5341810000000 1.0
C      1  0.5550870000000  0.4992850000000  0.4632290000000 1.0
C      1  0.4376010000000  0.5291000000000  0.5301750000000 1.0
C      1  0.5669200000000  0.5228760000000  0.4765780000000 1.0
C      1  0.4962610000000  0.5768890000000  0.4375700000000 1.0
C      1  0.5518500000000  0.5474380000000  0.4760050000000 1.0
C      1  0.4721040000000  0.4287360000000  0.4582550000000 1.0
C      1  0.5262380000000  0.5053030000000  0.4699390000000 1.0
C      1  0.4823460000000  0.5808210000000  0.5224990000000 1.0
C      1  0.4769630000000  0.4730900000000  0.4372790000000 1.0
C      1  0.4868730000000  0.5329520000000  0.4577650000000 1.0
C      1  0.4661130000000  0.4882550000000  0.5570840000000 1.0
C      1  0.4613510000000  0.4497720000000  0.4433700000000 1.0
C      1  0.4457250000000  0.5536450000000  0.4877400000000 1.0
C      1  0.4316880000000  0.4846410000000  0.4461180000000 1.0
C      1  0.5099540000000  0.5842240000000  0.4837250000000 1.0
C      1  0.4941370000000  0.4495400000000  0.5530760000000 1.0
C      1  0.4611210000000  0.5196870000000  0.4563550000000 1.0
C      1  0.5015130000000  0.5175940000000  0.5697010000000 1.0
C      1  0.4509700000000  0.4480990000000  0.5289490000000 1.0
C      1  0.5277730000000  0.5272900000000  0.5616660000000 1.0
C      1  0.4996390000000  0.4301120000000  0.4631000000000 1.0
C      1  0.4730190000000  0.4724320000000  0.4891710000000 1.0
C      1  0.5312780000000  0.5486330000000  0.4566230000000 1.0
END
