TITL C-55419-8097-1 98.6296146255865 125000 -857.699470445341 0 0 123 (C1) n - 1
REM
REM in /rds/project/t2_vol4/rds-t2-cs072/BORA/CARBON/from-Arr/AIRSS/Generating-Clusters/GAP-ML-2020/Only-C1/SD-CG/HFTN-CG
REM
REM
REM
REM
REM
REM ./C.cell (11c1c37f851c82e70ff6c80c92926a4b)
REM AIRSS Version 0.9.1 bugfix July 2018 build 013d7b7c2542+ Fri, 06 Jul 2018 19:26:36 +0100
REM compiler GCC version 9.3.0
REM options -cpp -mtune=generic -march=x86-64 -g -O0
REM seed -1518797575 1374451950 -1349093239 -2042277386 1292931061 1814035759 -551755975 616692691 1190682558 -1408290821 1217668239 1574184391 679765129 -1281862 -60228303 1595235409 608082659 806324320 -1756236333 -614562939 -798632851 238418995 -663985150 586633012 238766759 -700023511 1193170347 1107097042 1724141946 -1090359507 -1322889929 -1241025435 302935368
REM
CELL 1.54180   50.00000   50.00000   50.00000   90.00000   90.00000   90.00000
LATT -1
SFAC C  
C      1  0.4825850000000  0.4305940000000  0.4492500000000 1.0
C      1  0.5897870000000  0.4836760000000  0.4938600000000 1.0
C      1  0.5620390000000  0.5492850000000  0.5550870000000 1.0
C      1  0.4371030000000  0.4820680000000  0.5659250000000 1.0
C      1  0.5002660000000  0.5078870000000  0.4459490000000 1.0
C      1  0.5737400000000  0.5568550000000  0.4792690000000 1.0
C      1  0.5599630000000  0.5247520000000  0.5692930000000 1.0
C      1  0.4147000000000  0.4513210000000  0.5032750000000 1.0
C      1  0.4589520000000  0.5108820000000  0.5249700000000 1.0
C      1  0.5101030000000  0.5975110000000  0.4759540000000 1.0
C      1  0.5531820000000  0.5725830000000  0.4960150000000 1.0
C      1  0.5582910000000  0.5490870000000  0.4562280000000 1.0
C      1  0.5569610000000  0.4392080000000  0.5308880000000 1.0
C      1  0.4019020000000  0.4644370000000  0.4800820000000 1.0
C      1  0.5558850000000  0.4799390000000  0.4349280000000 1.0
C      1  0.4552770000000  0.4749860000000  0.4930300000000 1.0
C      1  0.5747890000000  0.4609240000000  0.5395450000000 1.0
C      1  0.5015760000000  0.4414530000000  0.5782010000000 1.0
C      1  0.5452020000000  0.4682290000000  0.5788210000000 1.0
C      1  0.4738850000000  0.5210300000000  0.4353210000000 1.0
C      1  0.4214370000000  0.4554560000000  0.4612110000000 1.0
C      1  0.4717540000000  0.4422910000000  0.4244030000000 1.0
C      1  0.5543390000000  0.5098080000000  0.4732470000000 1.0
C      1  0.5039160000000  0.5631620000000  0.5009200000000 1.0
C      1  0.5231410000000  0.3999220000000  0.4799630000000 1.0
C      1  0.4833570000000  0.5471900000000  0.4249430000000 1.0
C      1  0.4759270000000  0.4890860000000  0.5353620000000 1.0
C      1  0.4948280000000  0.4189940000000  0.5113930000000 1.0
C      1  0.5023600000000  0.4874700000000  0.5849490000000 1.0
C      1  0.4378070000000  0.4916400000000  0.4280020000000 1.0
C      1  0.4871660000000  0.5541690000000  0.4767830000000 1.0
C      1  0.4446080000000  0.5271780000000  0.5474740000000 1.0
C      1  0.5915500000000  0.5051300000000  0.5366610000000 1.0
C      1  0.4949880000000  0.4824180000000  0.4633340000000 1.0
C      1  0.4840400000000  0.5407760000000  0.5756230000000 1.0
C      1  0.5297260000000  0.4442850000000  0.5715010000000 1.0
C      1  0.4293200000000  0.4631780000000  0.4342080000000 1.0
C      1  0.4600870000000  0.5233360000000  0.5725280000000 1.0
C      1  0.4997620000000  0.4883170000000  0.5504100000000 1.0
C      1  0.4630910000000  0.5004720000000  0.4171010000000 1.0
C      1  0.5929090000000  0.5307160000000  0.5228040000000 1.0
C      1  0.4376480000000  0.4547850000000  0.5488840000000 1.0
C      1  0.5883500000000  0.5354260000000  0.4941090000000 1.0
C      1  0.4594140000000  0.4336190000000  0.5436870000000 1.0
C      1  0.5380510000000  0.5003730000000  0.5193160000000 1.0
C      1  0.5815580000000  0.4648810000000  0.4738900000000 1.0
C      1  0.5765730000000  0.5027010000000  0.5609350000000 1.0
C      1  0.4876110000000  0.4883210000000  0.4080310000000 1.0
C      1  0.4236700000000  0.5028050000000  0.5524640000000 1.0
C      1  0.5293160000000  0.5299840000000  0.4178130000000 1.0
C      1  0.5632460000000  0.4586620000000  0.4533440000000 1.0
C      1  0.5051540000000  0.4677360000000  0.5076420000000 1.0
C      1  0.4582380000000  0.5842580000000  0.4985430000000 1.0
C      1  0.4660080000000  0.4224560000000  0.5166770000000 1.0
C      1  0.3973060000000  0.4913380000000  0.4823850000000 1.0
C      1  0.4969040000000  0.4017340000000  0.4858690000000 1.0
C      1  0.5680810000000  0.4752190000000  0.5636260000000 1.0
C      1  0.4573910000000  0.5174840000000  0.4603670000000 1.0
C      1  0.5147790000000  0.5024390000000  0.4186730000000 1.0
C      1  0.5294730000000  0.6013640000000  0.5134930000000 1.0
C      1  0.5111180000000  0.4880820000000  0.4872330000000 1.0
C      1  0.5439820000000  0.4376780000000  0.4567420000000 1.0
C      1  0.4450060000000  0.4455620000000  0.4203100000000 1.0
C      1  0.4302700000000  0.5101440000000  0.4489300000000 1.0
C      1  0.4745150000000  0.4129610000000  0.4707430000000 1.0
C      1  0.5596680000000  0.5058910000000  0.4446410000000 1.0
C      1  0.5330100000000  0.4790270000000  0.4188900000000 1.0
C      1  0.5268560000000  0.5269390000000  0.5161130000000 1.0
C      1  0.5031790000000  0.5167710000000  0.4957750000000 1.0
C      1  0.4775410000000  0.5274170000000  0.5085490000000 1.0
C      1  0.4174360000000  0.4619040000000  0.5292380000000 1.0
C      1  0.4103100000000  0.4904700000000  0.5312050000000 1.0
C      1  0.5086530000000  0.4418450000000  0.4914410000000 1.0
C      1  0.5341660000000  0.4307320000000  0.5469320000000 1.0
C      1  0.5823430000000  0.5102090000000  0.4843830000000 1.0
C      1  0.5408200000000  0.4895030000000  0.4902080000000 1.0
C      1  0.5024860000000  0.5937690000000  0.5053250000000 1.0
C      1  0.4091960000000  0.5045110000000  0.5054740000000 1.0
C      1  0.4996130000000  0.4500210000000  0.4628200000000 1.0
C      1  0.5119650000000  0.5337430000000  0.5687100000000 1.0
C      1  0.4865140000000  0.4292840000000  0.5561270000000 1.0
C      1  0.5104490000000  0.5513740000000  0.4194350000000 1.0
C      1  0.5375480000000  0.5959390000000  0.4850360000000 1.0
C      1  0.4391920000000  0.5660750000000  0.5099920000000 1.0
C      1  0.4340890000000  0.5474120000000  0.4897790000000 1.0
C      1  0.4758520000000  0.4837290000000  0.5977270000000 1.0
C      1  0.5537120000000  0.5312780000000  0.4330880000000 1.0
C      1  0.5364750000000  0.5362910000000  0.4718950000000 1.0
C      1  0.5198900000000  0.4816520000000  0.5320050000000 1.0
C      1  0.4915230000000  0.5503790000000  0.5249500000000 1.0
C      1  0.5319180000000  0.5508330000000  0.4971320000000 1.0
C      1  0.5301670000000  0.4912820000000  0.5877930000000 1.0
C      1  0.5584830000000  0.4649730000000  0.4901670000000 1.0
C      1  0.4454090000000  0.5567570000000  0.5366010000000 1.0
C      1  0.5368400000000  0.4264500000000  0.4840310000000 1.0
C      1  0.4400200000000  0.4965470000000  0.5065560000000 1.0
C      1  0.4620380000000  0.5378180000000  0.4823840000000 1.0
C      1  0.5181400000000  0.4552530000000  0.4184090000000 1.0
C      1  0.4078230000000  0.5129450000000  0.4650070000000 1.0
C      1  0.5200140000000  0.4406880000000  0.4427230000000 1.0
C      1  0.4130550000000  0.5293950000000  0.4885710000000 1.0
C      1  0.4716590000000  0.5704780000000  0.5408880000000 1.0
C      1  0.4915400000000  0.4617230000000  0.5944420000000 1.0
C      1  0.4770650000000  0.4709540000000  0.5135950000000 1.0
C      1  0.4682950000000  0.5770750000000  0.4724020000000 1.0
C      1  0.5074740000000  0.4218310000000  0.5376090000000 1.0
C      1  0.5345940000000  0.5181770000000  0.5797970000000 1.0
C      1  0.4918550000000  0.5844290000000  0.4577890000000 1.0
C      1  0.5899640000000  0.4800110000000  0.5228200000000 1.0
C      1  0.4552670000000  0.4225640000000  0.4901220000000 1.0
C      1  0.5552790000000  0.4387570000000  0.5028170000000 1.0
C      1  0.4782420000000  0.5672290000000  0.5681180000000 1.0
C      1  0.4383800000000  0.4463990000000  0.4854780000000 1.0
C      1  0.5169770000000  0.5435830000000  0.5411110000000 1.0
C      1  0.5468040000000  0.5826360000000  0.5248120000000 1.0
C      1  0.4912900000000  0.4603640000000  0.4116280000000 1.0
C      1  0.4758140000000  0.5921440000000  0.5188460000000 1.0
C      1  0.5826400000000  0.5505860000000  0.5376870000000 1.0
C      1  0.4553470000000  0.4965850000000  0.5831090000000 1.0
C      1  0.4951060000000  0.5717740000000  0.4317910000000 1.0
C      1  0.4671450000000  0.4885900000000  0.4700950000000 1.0
C      1  0.5070460000000  0.5295460000000  0.4685090000000 1.0
C      1  0.5398570000000  0.5637430000000  0.5450010000000 1.0
END
