TITL C-55410-8138-10 46.8393349140934 125000 -191.835986083134 0 0 30 (C1) n - 1
REM
REM in /rds/project/t2_vol4/rds-t2-cs072/BORA/CARBON/from-Arr/AIRSS/Generating-Clusters/GAP-ML-2020/Only-C1/SD-CG/HFTN-CG
REM
REM
REM
REM
REM
REM ./C.cell (11c1c37f851c82e70ff6c80c92926a4b)
REM AIRSS Version 0.9.1 bugfix July 2018 build 013d7b7c2542+ Fri, 06 Jul 2018 19:26:36 +0100
REM compiler GCC version 9.3.0
REM options -cpp -mtune=generic -march=x86-64 -g -O0
REM seed -1246037190 44202656 922659591 702442318 -1890415677 1915553217 1906310789 -13394629 -1964359429 -2101565977 313758002 -48583544 -1526485809 -941205831 576616622 -1293201996 -765663082 637478326 17544896 -43543853 -67009982 1020115554 1697689502 96534394 -384212899 1499252452 2016592395 -2042684279 -1550907820 -1890569548 -1399222298 -400852101 1304611013
REM
CELL 1.54180   50.00000   50.00000   50.00000   90.00000   90.00000   90.00000
LATT -1
SFAC C  
C      1  0.4856420000000  0.5385550000000  0.4722760000000 1.0
C      1  0.5363850000000  0.5034950000000  0.4922210000000 1.0
C      1  0.5272280000000  0.5469200000000  0.4912240000000 1.0
C      1  0.4642650000000  0.5204120000000  0.4761080000000 1.0
C      1  0.5417510000000  0.5280160000000  0.4766400000000 1.0
C      1  0.4419020000000  0.4761850000000  0.4852440000000 1.0
C      1  0.5273270000000  0.5161900000000  0.4514820000000 1.0
C      1  0.5133920000000  0.4675000000000  0.4638000000000 1.0
C      1  0.5318290000000  0.4933080000000  0.5399700000000 1.0
C      1  0.4667940000000  0.4876340000000  0.4783510000000 1.0
C      1  0.5398130000000  0.4760110000000  0.4763940000000 1.0
C      1  0.4304870000000  0.4912380000000  0.5029570000000 1.0
C      1  0.5294060000000  0.4857360000000  0.4522440000000 1.0
C      1  0.5136060000000  0.5162230000000  0.5385540000000 1.0
C      1  0.4965310000000  0.4631510000000  0.5093300000000 1.0
C      1  0.5062990000000  0.5044990000000  0.4899930000000 1.0
C      1  0.5033830000000  0.5198060000000  0.4631770000000 1.0
C      1  0.5183830000000  0.4671630000000  0.5428260000000 1.0
C      1  0.4430370000000  0.5308130000000  0.4886200000000 1.0
C      1  0.4435100000000  0.5150480000000  0.5122890000000 1.0
C      1  0.4971720000000  0.5121510000000  0.5605090000000 1.0
C      1  0.4961220000000  0.5214040000000  0.5130880000000 1.0
C      1  0.5227770000000  0.4540730000000  0.5165800000000 1.0
C      1  0.4689720000000  0.5138610000000  0.5245290000000 1.0
C      1  0.4928950000000  0.4771880000000  0.4839160000000 1.0
C      1  0.5008840000000  0.5469150000000  0.4973210000000 1.0
C      1  0.4907140000000  0.4732120000000  0.5352310000000 1.0
C      1  0.5465520000000  0.4914440000000  0.5161750000000 1.0
C      1  0.4781730000000  0.4972960000000  0.5464480000000 1.0
C      1  0.5447680000000  0.4645530000000  0.5025030000000 1.0
END
