TITL C-55400-8242-10 -0.101054735215324 125000 -834.878306843303 0 0 119 (C1) n - 1
REM
REM in /rds/project/t2_vol4/rds-t2-cs072/BORA/CARBON/from-Arr/AIRSS/Generating-Clusters/GAP-ML-2020/Only-C1/SD-CG/HFTN-CG
REM
REM
REM
REM
REM
REM ./C.cell (11c1c37f851c82e70ff6c80c92926a4b)
REM AIRSS Version 0.9.1 bugfix July 2018 build 013d7b7c2542+ Fri, 06 Jul 2018 19:26:36 +0100
REM compiler GCC version 9.3.0
REM options -cpp -mtune=generic -march=x86-64 -g -O0
REM seed 1023395609 -1954150461 -234751809 1508147528 1245032865 1486013412 202857159 1286752988 93916454 -276887947 -1683312331 1382265550 -2038795861 2064753018 1256552951 -945160878 -498458969 1923648513 1535136381 50362147 1832177728 1061885813 -468927505 -1329768109 51867098 -847186712 -1884843624 1470721228 -635524472 -495177184 -167277251 -311549907 -1220534659
REM
CELL 1.54180   50.00000   50.00000   50.00000   90.00000   90.00000   90.00000
LATT -1
SFAC C  
C      1  0.5308230000000  0.4659610000000  0.4113340000000 1.0
C      1  0.5435420000000  0.5582230000000  0.5696770000000 1.0
C      1  0.4950760000000  0.5366320000000  0.4713060000000 1.0
C      1  0.5292090000000  0.4394630000000  0.4516810000000 1.0
C      1  0.4592060000000  0.5080100000000  0.4868840000000 1.0
C      1  0.4654770000000  0.5936640000000  0.4573870000000 1.0
C      1  0.4174490000000  0.5105910000000  0.5114950000000 1.0
C      1  0.5102760000000  0.4535980000000  0.5325680000000 1.0
C      1  0.5883580000000  0.4587500000000  0.5201220000000 1.0
C      1  0.4576270000000  0.5686120000000  0.5471940000000 1.0
C      1  0.4737290000000  0.4521130000000  0.5827020000000 1.0
C      1  0.4252990000000  0.5072950000000  0.4379660000000 1.0
C      1  0.5566170000000  0.5314210000000  0.4298260000000 1.0
C      1  0.4661830000000  0.4176880000000  0.4798320000000 1.0
C      1  0.5026700000000  0.4612790000000  0.4064940000000 1.0
C      1  0.5606620000000  0.5582320000000  0.4734220000000 1.0
C      1  0.5495600000000  0.4632630000000  0.4916510000000 1.0
C      1  0.4826230000000  0.4184160000000  0.5534050000000 1.0
C      1  0.5189620000000  0.5578690000000  0.5834920000000 1.0
C      1  0.4348960000000  0.4763060000000  0.5489340000000 1.0
C      1  0.4790960000000  0.5624530000000  0.4792450000000 1.0
C      1  0.5452740000000  0.5615880000000  0.5418020000000 1.0
C      1  0.5382390000000  0.5075750000000  0.5296470000000 1.0
C      1  0.4477910000000  0.4810550000000  0.4805610000000 1.0
C      1  0.5156130000000  0.5782120000000  0.4524910000000 1.0
C      1  0.5591600000000  0.4441970000000  0.5615400000000 1.0
C      1  0.5121210000000  0.4748940000000  0.5935180000000 1.0
C      1  0.5410330000000  0.4891850000000  0.4499930000000 1.0
C      1  0.4951900000000  0.4402320000000  0.5080750000000 1.0
C      1  0.5101480000000  0.4194490000000  0.4932100000000 1.0
C      1  0.5485250000000  0.4285250000000  0.5242900000000 1.0
C      1  0.4662760000000  0.4240790000000  0.5095990000000 1.0
C      1  0.5016720000000  0.5845230000000  0.5452830000000 1.0
C      1  0.4958640000000  0.5305120000000  0.5413020000000 1.0
C      1  0.5380970000000  0.4190440000000  0.4979680000000 1.0
C      1  0.5535330000000  0.4826260000000  0.5382550000000 1.0
C      1  0.5079060000000  0.5599740000000  0.4274010000000 1.0
C      1  0.4749120000000  0.5160620000000  0.4650200000000 1.0
C      1  0.4685120000000  0.5341580000000  0.5814890000000 1.0
C      1  0.4912240000000  0.4656830000000  0.4929310000000 1.0
C      1  0.4876120000000  0.4929670000000  0.4551290000000 1.0
C      1  0.5535910000000  0.4719680000000  0.5664830000000 1.0
C      1  0.4544310000000  0.5693200000000  0.4626880000000 1.0
C      1  0.5880590000000  0.5056820000000  0.5138300000000 1.0
C      1  0.5310960000000  0.5437810000000  0.4303630000000 1.0
C      1  0.5117610000000  0.5061070000000  0.5431570000000 1.0
C      1  0.4928730000000  0.4885190000000  0.4000170000000 1.0
C      1  0.4772830000000  0.5101640000000  0.5086210000000 1.0
C      1  0.5810350000000  0.4969520000000  0.4867920000000 1.0
C      1  0.4600530000000  0.4509900000000  0.4227060000000 1.0
C      1  0.4226890000000  0.4907870000000  0.4643430000000 1.0
C      1  0.4273480000000  0.5386150000000  0.5101190000000 1.0
C      1  0.5153920000000  0.5295810000000  0.4503470000000 1.0
C      1  0.5552740000000  0.5316780000000  0.5694700000000 1.0
C      1  0.4474250000000  0.4912020000000  0.5696140000000 1.0
C      1  0.4900250000000  0.5206380000000  0.5956670000000 1.0
C      1  0.5049870000000  0.6013000000000  0.4911600000000 1.0
C      1  0.5229980000000  0.5727260000000  0.5265350000000 1.0
C      1  0.4668350000000  0.5243510000000  0.5349690000000 1.0
C      1  0.4831930000000  0.5482720000000  0.4191290000000 1.0
C      1  0.4990740000000  0.4808850000000  0.5371700000000 1.0
C      1  0.5374790000000  0.4264630000000  0.5536370000000 1.0
C      1  0.4211770000000  0.5388230000000  0.4805770000000 1.0
C      1  0.5554240000000  0.5035120000000  0.4261280000000 1.0
C      1  0.5395530000000  0.4588350000000  0.5210610000000 1.0
C      1  0.5456560000000  0.4916810000000  0.4807600000000 1.0
C      1  0.5793520000000  0.4669220000000  0.4936420000000 1.0
C      1  0.4929880000000  0.5907430000000  0.4672590000000 1.0
C      1  0.4642520000000  0.5286260000000  0.4163040000000 1.0
C      1  0.4356790000000  0.4665180000000  0.5037800000000 1.0
C      1  0.5161940000000  0.5313530000000  0.5936080000000 1.0
C      1  0.4656970000000  0.4786220000000  0.5876840000000 1.0
C      1  0.4708750000000  0.5606410000000  0.5714020000000 1.0
C      1  0.5844830000000  0.5230800000000  0.4731310000000 1.0
C      1  0.5379870000000  0.4857910000000  0.5862150000000 1.0
C      1  0.5701720000000  0.5385750000000  0.4535140000000 1.0
C      1  0.4861350000000  0.4842790000000  0.5130690000000 1.0
C      1  0.4891640000000  0.4923950000000  0.5968460000000 1.0
C      1  0.4445670000000  0.4433210000000  0.5177760000000 1.0
C      1  0.4620980000000  0.4362580000000  0.5628880000000 1.0
C      1  0.4435720000000  0.4492320000000  0.5452910000000 1.0
C      1  0.4348790000000  0.5489720000000  0.4567560000000 1.0
C      1  0.5257710000000  0.5855770000000  0.4991300000000 1.0
C      1  0.4877480000000  0.4427880000000  0.4232710000000 1.0
C      1  0.5018720000000  0.4499540000000  0.5832590000000 1.0
C      1  0.5058120000000  0.5267960000000  0.4976470000000 1.0
C      1  0.4114260000000  0.5109810000000  0.4830310000000 1.0
C      1  0.4677850000000  0.4999310000000  0.4041260000000 1.0
C      1  0.5403840000000  0.4925470000000  0.4050090000000 1.0
C      1  0.4256680000000  0.4856460000000  0.5229340000000 1.0
C      1  0.5023530000000  0.4293410000000  0.4455940000000 1.0
C      1  0.4767290000000  0.5835170000000  0.5318420000000 1.0
C      1  0.4978380000000  0.5721000000000  0.5708710000000 1.0
C      1  0.4549010000000  0.5172800000000  0.5630200000000 1.0
C      1  0.5827660000000  0.4841540000000  0.5311270000000 1.0
C      1  0.4935100000000  0.4163460000000  0.4695450000000 1.0
C      1  0.5792710000000  0.5320470000000  0.5192830000000 1.0
C      1  0.5360340000000  0.5738720000000  0.4740600000000 1.0
C      1  0.4515830000000  0.4769360000000  0.4109930000000 1.0
C      1  0.4467950000000  0.4274160000000  0.4640940000000 1.0
C      1  0.5096580000000  0.4336200000000  0.5589960000000 1.0
C      1  0.4273320000000  0.4835140000000  0.4231480000000 1.0
C      1  0.4731250000000  0.4055230000000  0.5318410000000 1.0
C      1  0.4768540000000  0.5633020000000  0.5092810000000 1.0
C      1  0.5030230000000  0.5481320000000  0.5183730000000 1.0
C      1  0.5389360000000  0.4613390000000  0.4374880000000 1.0
C      1  0.4524220000000  0.5490410000000  0.5247890000000 1.0
C      1  0.5403410000000  0.4383880000000  0.4778720000000 1.0
C      1  0.5131680000000  0.5018450000000  0.4434980000000 1.0
C      1  0.5300550000000  0.5090730000000  0.4999760000000 1.0
C      1  0.4402760000000  0.4441390000000  0.4436300000000 1.0
C      1  0.4210070000000  0.4660600000000  0.4451320000000 1.0
C      1  0.4387070000000  0.5310340000000  0.4337690000000 1.0
C      1  0.5729930000000  0.4393410000000  0.5345260000000 1.0
C      1  0.5771360000000  0.5436190000000  0.4931810000000 1.0
C      1  0.4768840000000  0.4713740000000  0.4696250000000 1.0
C      1  0.5148100000000  0.5029210000000  0.4107670000000 1.0
C      1  0.5391870000000  0.5147650000000  0.5860800000000 1.0
C      1  0.5569890000000  0.5332020000000  0.5385600000000 1.0
END
