TITL C-55391-8151-8 -0.178790778600883 125000 -274.560493446307 0 0 41 (C1) n - 1
REM
REM in /rds/project/t2_vol4/rds-t2-cs072/BORA/CARBON/from-Arr/AIRSS/Generating-Clusters/GAP-ML-2020/Only-C1/SD-CG/HFTN-CG
REM
REM
REM
REM
REM
REM ./C.cell (11c1c37f851c82e70ff6c80c92926a4b)
REM AIRSS Version 0.9.1 bugfix July 2018 build 013d7b7c2542+ Fri, 06 Jul 2018 19:26:36 +0100
REM compiler GCC version 9.3.0
REM options -cpp -mtune=generic -march=x86-64 -g -O0
REM seed -1241993402 1318862138 -1576915762 308115407 88421531 -1263986335 1765665499 294151880 782048389 -1053611576 -1734148218 -128212545 -144294699 -1928575512 1879413411 1151134891 1513983386 2140646516 -93860059 328552363 -674346971 402482937 736722928 1498824028 -1857044660 218029447 -1944205154 2051623272 2026995852 -1857381280 -1388027538 1519848127 264858936
REM
CELL 1.54180   50.00000   50.00000   50.00000   90.00000   90.00000   90.00000
LATT -1
SFAC C  
C      1  0.5050310000000  0.4306830000000  0.4809390000000 1.0
C      1  0.4746530000000  0.4951810000000  0.5394650000000 1.0
C      1  0.5201090000000  0.5563490000000  0.5155620000000 1.0
C      1  0.5041210000000  0.4951600000000  0.5398340000000 1.0
C      1  0.4685390000000  0.4774790000000  0.5186500000000 1.0
C      1  0.5419030000000  0.4879620000000  0.5059770000000 1.0
C      1  0.4949000000000  0.5363250000000  0.4796670000000 1.0
C      1  0.4722820000000  0.5488920000000  0.4958230000000 1.0
C      1  0.4713060000000  0.5141110000000  0.4435100000000 1.0
C      1  0.5109290000000  0.5105840000000  0.4437390000000 1.0
C      1  0.5067320000000  0.4494820000000  0.5315510000000 1.0
C      1  0.5291780000000  0.4417880000000  0.4876770000000 1.0
C      1  0.4705850000000  0.4895730000000  0.4908080000000 1.0
C      1  0.5397320000000  0.4786390000000  0.4765410000000 1.0
C      1  0.4929630000000  0.5320150000000  0.4512020000000 1.0
C      1  0.4838350000000  0.4449180000000  0.4895010000000 1.0
C      1  0.4883170000000  0.4942470000000  0.4336110000000 1.0
C      1  0.4879930000000  0.5397640000000  0.5463560000000 1.0
C      1  0.4745960000000  0.5720710000000  0.5115240000000 1.0
C      1  0.4643510000000  0.5221030000000  0.5433100000000 1.0
C      1  0.4502950000000  0.5315910000000  0.5025610000000 1.0
C      1  0.5309920000000  0.5337670000000  0.5278970000000 1.0
C      1  0.5445950000000  0.5164030000000  0.5085160000000 1.0
C      1  0.4934140000000  0.4737150000000  0.4524330000000 1.0
C      1  0.5165330000000  0.4705460000000  0.5502580000000 1.0
C      1  0.5297190000000  0.4456960000000  0.5156320000000 1.0
C      1  0.4427160000000  0.5316000000000  0.5291750000000 1.0
C      1  0.5131270000000  0.4916340000000  0.5101660000000 1.0
C      1  0.5111430000000  0.5227840000000  0.5447950000000 1.0
C      1  0.5480310000000  0.4535780000000  0.4700060000000 1.0
C      1  0.5148570000000  0.4913920000000  0.4658520000000 1.0
C      1  0.4824460000000  0.4528840000000  0.5178110000000 1.0
C      1  0.4500880000000  0.5094240000000  0.4837620000000 1.0
C      1  0.5440050000000  0.4685270000000  0.5528270000000 1.0
C      1  0.5207240000000  0.5488190000000  0.4875150000000 1.0
C      1  0.5482480000000  0.4668490000000  0.5258210000000 1.0
C      1  0.4932910000000  0.5608610000000  0.5272210000000 1.0
C      1  0.4757140000000  0.4663680000000  0.4731660000000 1.0
C      1  0.4985380000000  0.5036580000000  0.4876940000000 1.0
C      1  0.5415970000000  0.5308380000000  0.4850010000000 1.0
C      1  0.4478680000000  0.5117390000000  0.4566430000000 1.0
END
