TITL C-55404-9372-6 0.00657513240117278 125000 -325.626342941801 0 0 48 (C1) n - 1
REM
REM in /rds/project/t2_vol4/rds-t2-cs072/BORA/CARBON/from-Arr/AIRSS/Generating-Clusters/GAP-ML-2020/Only-C1/SD-CG/HFTN-CG
REM
REM
REM
REM
REM
REM ./C.cell (11c1c37f851c82e70ff6c80c92926a4b)
REM AIRSS Version 0.9.1 bugfix July 2018 build 013d7b7c2542+ Fri, 06 Jul 2018 19:26:36 +0100
REM compiler GCC version 9.3.0
REM options -cpp -mtune=generic -march=x86-64 -g -O0
REM seed 1296333119 1517115276 1762726687 1929275826 -708319338 2123636598 153416422 -161195234 -522630891 -2086694026 270616548 -344299305 -25495420 1658015367 -1157590028 1081744259 1651195927 -840197841 424407566 -2125672905 549136520 -7633808 -1091869170 -1399883873 927189160 -1901759858 56061146 1102393213 -1141083194 924528718 -935097086 1757857245 181650129
REM
CELL 1.54180   50.00000   50.00000   50.00000   90.00000   90.00000   90.00000
LATT -1
SFAC C  
C      1  0.4919570000000  0.4930220000000  0.4366330000000 1.0
C      1  0.5259060000000  0.5456140000000  0.5515830000000 1.0
C      1  0.4490430000000  0.5234140000000  0.5055140000000 1.0
C      1  0.5086750000000  0.4637660000000  0.4687830000000 1.0
C      1  0.5560120000000  0.5163470000000  0.4702480000000 1.0
C      1  0.5071010000000  0.5437430000000  0.4673190000000 1.0
C      1  0.4964000000000  0.5105100000000  0.5622400000000 1.0
C      1  0.5073720000000  0.4715150000000  0.4980610000000 1.0
C      1  0.5365910000000  0.5583760000000  0.5280080000000 1.0
C      1  0.4881190000000  0.4445550000000  0.4619230000000 1.0
C      1  0.5622980000000  0.4894010000000  0.4750060000000 1.0
C      1  0.4352930000000  0.4523500000000  0.4914660000000 1.0
C      1  0.5187290000000  0.5655950000000  0.5070670000000 1.0
C      1  0.4790480000000  0.5478770000000  0.5338670000000 1.0
C      1  0.4952370000000  0.5424220000000  0.4430070000000 1.0
C      1  0.5603640000000  0.5181650000000  0.5353060000000 1.0
C      1  0.4605280000000  0.4947070000000  0.5060430000000 1.0
C      1  0.4573450000000  0.5153120000000  0.4582730000000 1.0
C      1  0.4541850000000  0.5374620000000  0.5285650000000 1.0
C      1  0.4782440000000  0.4329280000000  0.4862710000000 1.0
C      1  0.4752860000000  0.4948170000000  0.5549860000000 1.0
C      1  0.4657750000000  0.4528550000000  0.5283600000000 1.0
C      1  0.5635140000000  0.4910650000000  0.5271770000000 1.0
C      1  0.4980730000000  0.5384070000000  0.5539720000000 1.0
C      1  0.5410500000000  0.4966140000000  0.4557400000000 1.0
C      1  0.4695790000000  0.4744920000000  0.4399810000000 1.0
C      1  0.4523190000000  0.4871800000000  0.4590000000000 1.0
C      1  0.5164520000000  0.4840370000000  0.4501100000000 1.0
C      1  0.4495790000000  0.5323420000000  0.4788440000000 1.0
C      1  0.4804790000000  0.5193980000000  0.4403360000000 1.0
C      1  0.5423400000000  0.4729630000000  0.5386980000000 1.0
C      1  0.4642880000000  0.4811770000000  0.5347210000000 1.0
C      1  0.5336420000000  0.4758240000000  0.5639580000000 1.0
C      1  0.5581520000000  0.4803110000000  0.5010120000000 1.0
C      1  0.4472020000000  0.4771610000000  0.4850200000000 1.0
C      1  0.4726760000000  0.4474390000000  0.4394890000000 1.0
C      1  0.4967530000000  0.5279560000000  0.4916230000000 1.0
C      1  0.4433260000000  0.4404240000000  0.5161220000000 1.0
C      1  0.5249430000000  0.5019830000000  0.5671830000000 1.0
C      1  0.5343450000000  0.4669670000000  0.5113380000000 1.0
C      1  0.5563160000000  0.5399650000000  0.5161790000000 1.0
C      1  0.4938470000000  0.5518460000000  0.5092920000000 1.0
C      1  0.4906380000000  0.5005730000000  0.4980240000000 1.0
C      1  0.5526910000000  0.5397520000000  0.4870970000000 1.0
C      1  0.5423330000000  0.5228800000000  0.5577440000000 1.0
C      1  0.5296720000000  0.5566070000000  0.4811800000000 1.0
C      1  0.4864060000000  0.4501400000000  0.5070430000000 1.0
C      1  0.4498770000000  0.4277440000000  0.4905890000000 1.0
END
