TITL C-55403-9242-4 -731.59704526587 125000 -1005.92529822556 0 0 143 (C1) n - 1
REM
REM in /rds/project/t2_vol4/rds-t2-cs072/BORA/CARBON/from-Arr/AIRSS/Generating-Clusters/GAP-ML-2020/Only-C1/SD-CG/HFTN-CG
REM
REM
REM
REM
REM
REM ./C.cell (11c1c37f851c82e70ff6c80c92926a4b)
REM AIRSS Version 0.9.1 bugfix July 2018 build 013d7b7c2542+ Fri, 06 Jul 2018 19:26:36 +0100
REM compiler GCC version 9.3.0
REM options -cpp -mtune=generic -march=x86-64 -g -O0
REM seed -1100505984 475987597 6102737 -487364158 -1413120264 -552063051 782440387 214239970 590058249 -1526718073 719835082 1066642696 -1846563584 1771687707 -1070342832 491842645 1690015870 1400681755 -979921000 -681092330 222156302 48429263 -1890067534 1378515906 728694582 -1494442608 -812612323 395991822 -1621053362 -1541901670 1413811959 -994239283 -1169438592
REM
CELL 1.54180   50.00000   50.00000   50.00000   90.00000   90.00000   90.00000
LATT -1
SFAC C  
C      1  0.5890020000000  0.5096130000000  0.4650520000000 1.0
C      1  0.5157350000000  0.5795250000000  0.5222220000000 1.0
C      1  0.5537220000000  0.4802630000000  0.5793340000000 1.0
C      1  0.4691700000000  0.4396650000000  0.5813320000000 1.0
C      1  0.5508480000000  0.4806120000000  0.4140280000000 1.0
C      1  0.5778620000000  0.4719300000000  0.4885420000000 1.0
C      1  0.4820640000000  0.4236500000000  0.5010410000000 1.0
C      1  0.4517010000000  0.4631150000000  0.5869790000000 1.0
C      1  0.4666450000000  0.4841100000000  0.5994000000000 1.0
C      1  0.5985820000000  0.5530790000000  0.4890740000000 1.0
C      1  0.4510570000000  0.4882150000000  0.5078030000000 1.0
C      1  0.4489220000000  0.5657140000000  0.4662330000000 1.0
C      1  0.5080780000000  0.5283160000000  0.4492970000000 1.0
C      1  0.5769160000000  0.5344080000000  0.4537570000000 1.0
C      1  0.5083930000000  0.5554320000000  0.4567380000000 1.0
C      1  0.4434330000000  0.5697900000000  0.4954350000000 1.0
C      1  0.5398980000000  0.5620450000000  0.4239730000000 1.0
C      1  0.5386370000000  0.4987380000000  0.5953240000000 1.0
C      1  0.5729950000000  0.4969640000000  0.4231120000000 1.0
C      1  0.5497510000000  0.5382730000000  0.4693200000000 1.0
C      1  0.4041220000000  0.5158580000000  0.4919030000000 1.0
C      1  0.5045740000000  0.6062880000000  0.4546890000000 1.0
C      1  0.5358410000000  0.4878040000000  0.4580900000000 1.0
C      1  0.4290170000000  0.5555740000000  0.5167480000000 1.0
C      1  0.4665270000000  0.5120470000000  0.5929110000000 1.0
C      1  0.4549990000000  0.4152060000000  0.4882230000000 1.0
C      1  0.5030930000000  0.4871210000000  0.4199170000000 1.0
C      1  0.5426150000000  0.4196600000000  0.5462820000000 1.0
C      1  0.4689030000000  0.5755260000000  0.5350300000000 1.0
C      1  0.5430900000000  0.5266570000000  0.6006660000000 1.0
C      1  0.5172630000000  0.5101880000000  0.4912740000000 1.0
C      1  0.4924970000000  0.5591070000000  0.4088210000000 1.0
C      1  0.4461330000000  0.5184020000000  0.4708170000000 1.0
C      1  0.4268760000000  0.4814810000000  0.4307910000000 1.0
C      1  0.5174350000000  0.5408210000000  0.6032710000000 1.0
C      1  0.4781530000000  0.5796680000000  0.4262250000000 1.0
C      1  0.5687760000000  0.5123950000000  0.5425310000000 1.0
C      1  0.4807660000000  0.5075950000000  0.4172750000000 1.0
C      1  0.5240930000000  0.6022690000000  0.4755780000000 1.0
C      1  0.4508840000000  0.5421360000000  0.5586660000000 1.0
C      1  0.4603840000000  0.4464730000000  0.4446650000000 1.0
C      1  0.4823050000000  0.4733280000000  0.5531920000000 1.0
C      1  0.4664750000000  0.4681810000000  0.4663740000000 1.0
C      1  0.5197910000000  0.4483090000000  0.4320290000000 1.0
C      1  0.3925190000000  0.4910090000000  0.4971810000000 1.0
C      1  0.4928900000000  0.4110430000000  0.5479980000000 1.0
C      1  0.5515750000000  0.5321570000000  0.5549020000000 1.0
C      1  0.5892350000000  0.5603170000000  0.4633280000000 1.0
C      1  0.5586980000000  0.4408720000000  0.5561440000000 1.0
C      1  0.4882890000000  0.4574170000000  0.5322480000000 1.0
C      1  0.4955000000000  0.5221180000000  0.5897620000000 1.0
C      1  0.4172960000000  0.5140880000000  0.4664290000000 1.0
C      1  0.4972520000000  0.5816480000000  0.5445500000000 1.0
C      1  0.5377050000000  0.5625550000000  0.4545970000000 1.0
C      1  0.5241420000000  0.5224670000000  0.4011340000000 1.0
C      1  0.4630380000000  0.5857560000000  0.5088830000000 1.0
C      1  0.4416000000000  0.5627460000000  0.5417060000000 1.0
C      1  0.5075510000000  0.4461190000000  0.4902220000000 1.0
C      1  0.4950950000000  0.4680940000000  0.4722310000000 1.0
C      1  0.5734400000000  0.4599810000000  0.5404970000000 1.0
C      1  0.5444620000000  0.4530120000000  0.5774330000000 1.0
C      1  0.4474140000000  0.5173390000000  0.5004310000000 1.0
C      1  0.5113190000000  0.4733590000000  0.4463590000000 1.0
C      1  0.4209870000000  0.5259430000000  0.5138810000000 1.0
C      1  0.5061530000000  0.5679950000000  0.5676890000000 1.0
C      1  0.4338890000000  0.4823320000000  0.5299520000000 1.0
C      1  0.4995820000000  0.5401350000000  0.5601190000000 1.0
C      1  0.4028220000000  0.4735800000000  0.4758350000000 1.0
C      1  0.4533360000000  0.4919650000000  0.4258980000000 1.0
C      1  0.4273400000000  0.4999010000000  0.5642810000000 1.0
C      1  0.5844210000000  0.5014020000000  0.4915260000000 1.0
C      1  0.4042850000000  0.4542460000000  0.5283000000000 1.0
C      1  0.4639330000000  0.5404010000000  0.4623140000000 1.0
C      1  0.4634140000000  0.5852430000000  0.4507460000000 1.0
C      1  0.5284850000000  0.4091150000000  0.4587530000000 1.0
C      1  0.5241170000000  0.5312820000000  0.5430670000000 1.0
C      1  0.4123260000000  0.4370160000000  0.5064600000000 1.0
C      1  0.5512100000000  0.5455900000000  0.5798980000000 1.0
C      1  0.5255910000000  0.5494560000000  0.5166950000000 1.0
C      1  0.4310350000000  0.4715150000000  0.5701310000000 1.0
C      1  0.5821220000000  0.4637660000000  0.4597030000000 1.0
C      1  0.4669210000000  0.4455390000000  0.5152650000000 1.0
C      1  0.5378920000000  0.4461470000000  0.4847900000000 1.0
C      1  0.4776280000000  0.4989610000000  0.5146780000000 1.0
C      1  0.4452150000000  0.5199540000000  0.5752170000000 1.0
C      1  0.5470210000000  0.5376530000000  0.4121210000000 1.0
C      1  0.5177420000000  0.4184500000000  0.5608630000000 1.0
C      1  0.4785950000000  0.6037260000000  0.4661120000000 1.0
C      1  0.5260440000000  0.5624890000000  0.5861820000000 1.0
C      1  0.5284950000000  0.4829520000000  0.5271320000000 1.0
C      1  0.4570920000000  0.4196770000000  0.4604380000000 1.0
C      1  0.5094420000000  0.4642200000000  0.5149700000000 1.0
C      1  0.4908810000000  0.5492690000000  0.4772910000000 1.0
C      1  0.5150760000000  0.5032250000000  0.5424370000000 1.0
C      1  0.5445710000000  0.4131130000000  0.5192970000000 1.0
C      1  0.4957910000000  0.5317360000000  0.4028000000000 1.0
C      1  0.5871570000000  0.4881750000000  0.4464010000000 1.0
C      1  0.4616220000000  0.4971630000000  0.4545790000000 1.0
C      1  0.4804100000000  0.5191900000000  0.4450160000000 1.0
C      1  0.5035340000000  0.5946830000000  0.4292300000000 1.0
C      1  0.4109270000000  0.4895680000000  0.4528550000000 1.0
C      1  0.5653890000000  0.5149940000000  0.5114740000000 1.0
C      1  0.5097330000000  0.5978440000000  0.5006210000000 1.0
C      1  0.5222250000000  0.3989970000000  0.5072820000000 1.0
C      1  0.4674990000000  0.4228470000000  0.5575540000000 1.0
C      1  0.4351920000000  0.4202060000000  0.5106410000000 1.0
C      1  0.5475370000000  0.4543280000000  0.4250910000000 1.0
C      1  0.4459210000000  0.4622290000000  0.4248350000000 1.0
C      1  0.5192520000000  0.4380130000000  0.5813240000000 1.0
C      1  0.5646040000000  0.4452320000000  0.4464520000000 1.0
C      1  0.5754490000000  0.5647670000000  0.4998270000000 1.0
C      1  0.4869890000000  0.4972370000000  0.5426030000000 1.0
C      1  0.4816650000000  0.6012100000000  0.4944000000000 1.0
C      1  0.5497470000000  0.4291000000000  0.4647420000000 1.0
C      1  0.4793730000000  0.4230490000000  0.4438090000000 1.0
C      1  0.5080160000000  0.4233740000000  0.4413460000000 1.0
C      1  0.4929170000000  0.4743810000000  0.6019200000000 1.0
C      1  0.4479830000000  0.4331800000000  0.5353760000000 1.0
C      1  0.3968470000000  0.4832090000000  0.5241050000000 1.0
C      1  0.5541140000000  0.5427650000000  0.5012050000000 1.0
C      1  0.4754190000000  0.5418510000000  0.5420730000000 1.0
C      1  0.4516180000000  0.4635190000000  0.4923770000000 1.0
C      1  0.5172110000000  0.5750060000000  0.4136750000000 1.0
C      1  0.5562740000000  0.4335620000000  0.5040040000000 1.0
C      1  0.5266390000000  0.4946420000000  0.4069690000000 1.0
C      1  0.4980610000000  0.4882560000000  0.4947660000000 1.0
C      1  0.5473550000000  0.4752310000000  0.4826640000000 1.0
C      1  0.5749650000000  0.4534500000000  0.5124380000000 1.0
C      1  0.4766300000000  0.5282080000000  0.5145800000000 1.0
C      1  0.4966720000000  0.4058980000000  0.5195750000000 1.0
C      1  0.5252530000000  0.3935410000000  0.4807290000000 1.0
C      1  0.5410500000000  0.4965920000000  0.5050060000000 1.0
C      1  0.4211290000000  0.4545660000000  0.4858660000000 1.0
C      1  0.4289020000000  0.4560420000000  0.5445710000000 1.0
C      1  0.5022810000000  0.5359590000000  0.5003270000000 1.0
C      1  0.5693560000000  0.4861200000000  0.5546410000000 1.0
C      1  0.5101190000000  0.4964020000000  0.5978590000000 1.0
C      1  0.5468490000000  0.5879010000000  0.4662580000000 1.0
C      1  0.5287310000000  0.5152790000000  0.4644480000000 1.0
C      1  0.4948020000000  0.4473330000000  0.5924490000000 1.0
C      1  0.4153380000000  0.5034810000000  0.5368290000000 1.0
C      1  0.5717750000000  0.5806330000000  0.4753330000000 1.0
C      1  0.5689740000000  0.5251450000000  0.4250380000000 1.0
END
