TITL C-55396-9230-2 -0.0163072428969396 125000 -113.717659743847 0 0 18 (C1) n - 1
REM
REM in /rds/project/t2_vol4/rds-t2-cs072/BORA/CARBON/from-Arr/AIRSS/Generating-Clusters/GAP-ML-2020/Only-C1/SD-CG/HFTN-CG
REM
REM
REM
REM
REM
REM ./C.cell (11c1c37f851c82e70ff6c80c92926a4b)
REM AIRSS Version 0.9.1 bugfix July 2018 build 013d7b7c2542+ Fri, 06 Jul 2018 19:26:36 +0100
REM compiler GCC version 9.3.0
REM options -cpp -mtune=generic -march=x86-64 -g -O0
REM seed 1155027246 474536705 -459163119 -1580994548 -1051111319 -229178417 1231097548 -272240685 -1076507241 -1831426001 -746989323 -2083638147 -2089345600 -545107734 -22011276 -999432430 -703398960 1621111588 1126997565 -46723519 1402357554 448773262 -1970325896 791467793 -1144607105 -77615033 -992384192 76393442 174210139 -1013968692 -609357248 -666160926 168051094
REM
CELL 1.54180   50.00000   50.00000   50.00000   90.00000   90.00000   90.00000
LATT -1
SFAC C  
C      1  0.5198080000000  0.5351250000000  0.4800480000000 1.0
C      1  0.5212520000000  0.5088590000000  0.4883140000000 1.0
C      1  0.4563050000000  0.4968280000000  0.4788260000000 1.0
C      1  0.5379990000000  0.4687660000000  0.4590360000000 1.0
C      1  0.4622800000000  0.4950260000000  0.4547410000000 1.0
C      1  0.5012300000000  0.5022350000000  0.5362980000000 1.0
C      1  0.4545760000000  0.5068470000000  0.5043510000000 1.0
C      1  0.5178830000000  0.4954430000000  0.5143410000000 1.0
C      1  0.5357900000000  0.4480640000000  0.5033400000000 1.0
C      1  0.4692050000000  0.5321890000000  0.5055920000000 1.0
C      1  0.5412350000000  0.4494390000000  0.4773780000000 1.0
C      1  0.5252210000000  0.4691360000000  0.5136530000000 1.0
C      1  0.5007580000000  0.5293250000000  0.5464370000000 1.0
C      1  0.5294010000000  0.4907510000000  0.4693100000000 1.0
C      1  0.4870200000000  0.5368680000000  0.5242850000000 1.0
C      1  0.4770560000000  0.4875930000000  0.5390170000000 1.0
C      1  0.4534990000000  0.4899080000000  0.5289560000000 1.0
C      1  0.5094810000000  0.5575980000000  0.4760790000000 1.0
END
