TITL C-55402-8085-9 -25.0943730580339 125000 -302.876597523972 0 0 45 (C1) n - 1
REM
REM in /rds/project/t2_vol4/rds-t2-cs072/BORA/CARBON/from-Arr/AIRSS/Generating-Clusters/GAP-ML-2020/Only-C1/SD-CG/HFTN-CG
REM
REM
REM
REM
REM
REM ./C.cell (11c1c37f851c82e70ff6c80c92926a4b)
REM AIRSS Version 0.9.1 bugfix July 2018 build 013d7b7c2542+ Fri, 06 Jul 2018 19:26:36 +0100
REM compiler GCC version 9.3.0
REM options -cpp -mtune=generic -march=x86-64 -g -O0
REM seed 2077132852 1009550244 -1593738075 365346095 -145879181 673533204 -1194036190 1626235559 1827066780 616282373 19386694 -2128908353 -92756519 -644053721 -2055518730 -555668458 580380330 -1698389360 1271330330 1373109169 1674081872 -1356672183 -1220905967 596439533 1934851018 -1427338178 -518000337 26190470 895766055 -155651468 -2087831234 -2030554146 -1440651174
REM
CELL 1.54180   50.00000   50.00000   50.00000   90.00000   90.00000   90.00000
LATT -1
SFAC C  
C      1  0.4363020000000  0.5442080000000  0.4838400000000 1.0
C      1  0.5278430000000  0.5427880000000  0.5158080000000 1.0
C      1  0.4890880000000  0.5190340000000  0.5690730000000 1.0
C      1  0.5124080000000  0.4447620000000  0.4825720000000 1.0
C      1  0.5102830000000  0.4830440000000  0.5398530000000 1.0
C      1  0.5350700000000  0.5136020000000  0.4420250000000 1.0
C      1  0.5321000000000  0.4755480000000  0.4516790000000 1.0
C      1  0.5160090000000  0.4923360000000  0.4353840000000 1.0
C      1  0.5230260000000  0.4717220000000  0.4820330000000 1.0
C      1  0.5527230000000  0.4955600000000  0.4562900000000 1.0
C      1  0.5310880000000  0.5234510000000  0.5364880000000 1.0
C      1  0.4903630000000  0.4455070000000  0.5164500000000 1.0
C      1  0.5476850000000  0.5375190000000  0.4956180000000 1.0
C      1  0.5448840000000  0.5494030000000  0.4714520000000 1.0
C      1  0.5384910000000  0.4769300000000  0.5358590000000 1.0
C      1  0.4728100000000  0.4482470000000  0.4911340000000 1.0
C      1  0.5595420000000  0.5113720000000  0.5030550000000 1.0
C      1  0.4887570000000  0.4909660000000  0.4428990000000 1.0
C      1  0.4857170000000  0.5243670000000  0.5247210000000 1.0
C      1  0.4448480000000  0.4939660000000  0.5406150000000 1.0
C      1  0.4624600000000  0.5235010000000  0.5646290000000 1.0
C      1  0.4870770000000  0.4647040000000  0.5368540000000 1.0
C      1  0.4668400000000  0.4820200000000  0.5295930000000 1.0
C      1  0.5416400000000  0.4560160000000  0.5175070000000 1.0
C      1  0.4605800000000  0.5525710000000  0.4862920000000 1.0
C      1  0.5497840000000  0.5037710000000  0.5292680000000 1.0
C      1  0.4773670000000  0.4660160000000  0.4527620000000 1.0
C      1  0.4876990000000  0.5514890000000  0.4853890000000 1.0
C      1  0.4888810000000  0.4434150000000  0.4671200000000 1.0
C      1  0.5083600000000  0.4891810000000  0.5060370000000 1.0
C      1  0.4810630000000  0.4993080000000  0.5076310000000 1.0
C      1  0.4402270000000  0.5172770000000  0.5229810000000 1.0
C      1  0.5047700000000  0.5123440000000  0.5462110000000 1.0
C      1  0.5252920000000  0.5367740000000  0.4556090000000 1.0
C      1  0.5508700000000  0.4665950000000  0.4928190000000 1.0
C      1  0.5170360000000  0.4397410000000  0.5100740000000 1.0
C      1  0.5616740000000  0.4913520000000  0.4833920000000 1.0
C      1  0.4449840000000  0.5022090000000  0.5674880000000 1.0
C      1  0.4637780000000  0.5015430000000  0.4828620000000 1.0
C      1  0.4413050000000  0.5181500000000  0.4944810000000 1.0
C      1  0.4805540000000  0.5125600000000  0.4592870000000 1.0
C      1  0.4608700000000  0.4712960000000  0.4760180000000 1.0
C      1  0.5004460000000  0.5452410000000  0.5098470000000 1.0
C      1  0.4971980000000  0.5359690000000  0.4629360000000 1.0
C      1  0.4602080000000  0.5326220000000  0.5360640000000 1.0
END
