TITL C-55405-8161-5 -34.0485754267826 125000 -578.506006638842 0 0 82 (C1) n - 1
REM
REM in /rds/project/t2_vol4/rds-t2-cs072/BORA/CARBON/from-Arr/AIRSS/Generating-Clusters/GAP-ML-2020/Only-C1/SD-CG/HFTN-CG
REM
REM
REM
REM
REM
REM ./C.cell (11c1c37f851c82e70ff6c80c92926a4b)
REM AIRSS Version 0.9.1 bugfix July 2018 build 013d7b7c2542+ Fri, 06 Jul 2018 19:26:36 +0100
REM compiler GCC version 9.3.0
REM options -cpp -mtune=generic -march=x86-64 -g -O0
REM seed -2023275695 203282531 -1706774008 744774564 -622926680 -86966299 1849948461 -556027902 -1233834174 -1184442317 -799137433 1567937185 -751008767 -853069809 1812165182 -754352881 -956514320 -2013723952 -1880636261 -1761730053 -1936283334 -448133532 -1029680501 341888469 1237934801 -979065941 1855708722 1114712137 -1661744419 -252887586 995307046 -687887498 723115255
REM
CELL 1.54180   50.00000   50.00000   50.00000   90.00000   90.00000   90.00000
LATT -1
SFAC C  
C      1  0.5829740000000  0.4986290000000  0.4928250000000 1.0
C      1  0.5401160000000  0.5392710000000  0.5662660000000 1.0
C      1  0.4977930000000  0.4625610000000  0.4310060000000 1.0
C      1  0.5198690000000  0.5515670000000  0.4528660000000 1.0
C      1  0.5090090000000  0.5094540000000  0.5867460000000 1.0
C      1  0.4766110000000  0.4336520000000  0.5550150000000 1.0
C      1  0.5246030000000  0.5366170000000  0.4951930000000 1.0
C      1  0.5282310000000  0.4907170000000  0.5881960000000 1.0
C      1  0.5141500000000  0.5364810000000  0.5772170000000 1.0
C      1  0.4746110000000  0.5332560000000  0.4421080000000 1.0
C      1  0.4231830000000  0.4736720000000  0.4953000000000 1.0
C      1  0.4824770000000  0.5149500000000  0.4967040000000 1.0
C      1  0.5229590000000  0.5089670000000  0.4307240000000 1.0
C      1  0.4917260000000  0.5724760000000  0.4942690000000 1.0
C      1  0.5534470000000  0.5488610000000  0.4986550000000 1.0
C      1  0.5185690000000  0.4532400000000  0.5460570000000 1.0
C      1  0.4701770000000  0.4715700000000  0.4863850000000 1.0
C      1  0.5473180000000  0.5446070000000  0.4506680000000 1.0
C      1  0.4651180000000  0.5649760000000  0.4871380000000 1.0
C      1  0.4356090000000  0.5355310000000  0.4685540000000 1.0
C      1  0.4723510000000  0.4602820000000  0.5163190000000 1.0
C      1  0.4452630000000  0.4888590000000  0.4844900000000 1.0
C      1  0.4561480000000  0.5104640000000  0.4383260000000 1.0
C      1  0.4575640000000  0.4244950000000  0.5407350000000 1.0
C      1  0.4594530000000  0.5494610000000  0.4626810000000 1.0
C      1  0.5700320000000  0.5196170000000  0.5368150000000 1.0
C      1  0.5235790000000  0.5735480000000  0.5340500000000 1.0
C      1  0.5655040000000  0.5437120000000  0.4731400000000 1.0
C      1  0.4688310000000  0.4477290000000  0.4689160000000 1.0
C      1  0.4314240000000  0.4457770000000  0.4971390000000 1.0
C      1  0.4046950000000  0.4942360000000  0.5009490000000 1.0
C      1  0.5699760000000  0.5051970000000  0.4483010000000 1.0
C      1  0.5639980000000  0.4703970000000  0.5268950000000 1.0
C      1  0.4911110000000  0.4919780000000  0.4823200000000 1.0
C      1  0.4547900000000  0.4883820000000  0.4208970000000 1.0
C      1  0.4247180000000  0.5412320000000  0.4946700000000 1.0
C      1  0.5127410000000  0.5047020000000  0.5296060000000 1.0
C      1  0.5034530000000  0.5255580000000  0.5147500000000 1.0
C      1  0.4709060000000  0.5256100000000  0.5691870000000 1.0
C      1  0.5469690000000  0.4888770000000  0.5683340000000 1.0
C      1  0.4527290000000  0.5034080000000  0.5325230000000 1.0
C      1  0.4562060000000  0.5526430000000  0.5339830000000 1.0
C      1  0.4809240000000  0.5634010000000  0.5433200000000 1.0
C      1  0.4737030000000  0.4679540000000  0.4168630000000 1.0
C      1  0.4645690000000  0.4790800000000  0.5398200000000 1.0
C      1  0.5619710000000  0.5453150000000  0.5253920000000 1.0
C      1  0.4529700000000  0.5270670000000  0.5477330000000 1.0
C      1  0.5054770000000  0.4532990000000  0.5184090000000 1.0
C      1  0.4897880000000  0.5471380000000  0.5661670000000 1.0
C      1  0.4456970000000  0.5575740000000  0.5078640000000 1.0
C      1  0.5766560000000  0.4735020000000  0.4810500000000 1.0
C      1  0.4354290000000  0.4456770000000  0.4450360000000 1.0
C      1  0.5116440000000  0.4334270000000  0.4682460000000 1.0
C      1  0.5560740000000  0.5154650000000  0.5610430000000 1.0
C      1  0.5764360000000  0.4966710000000  0.5210700000000 1.0
C      1  0.5125100000000  0.5598140000000  0.4791840000000 1.0
C      1  0.4787630000000  0.4771550000000  0.5640860000000 1.0
C      1  0.4913140000000  0.4429960000000  0.4519140000000 1.0
C      1  0.4826060000000  0.5015380000000  0.5786280000000 1.0
C      1  0.5173400000000  0.4347960000000  0.4971280000000 1.0
C      1  0.5491670000000  0.5202600000000  0.4356630000000 1.0
C      1  0.5216370000000  0.4791470000000  0.4321100000000 1.0
C      1  0.5434550000000  0.4647450000000  0.4452750000000 1.0
C      1  0.5162210000000  0.4816300000000  0.5127000000000 1.0
C      1  0.5319560000000  0.5110990000000  0.4798430000000 1.0
C      1  0.4958040000000  0.4530700000000  0.5635960000000 1.0
C      1  0.5430500000000  0.5576380000000  0.5439740000000 1.0
C      1  0.5667300000000  0.4779230000000  0.4542090000000 1.0
C      1  0.4415970000000  0.4384540000000  0.4705500000000 1.0
C      1  0.4987180000000  0.5752560000000  0.5231940000000 1.0
C      1  0.4554070000000  0.5089930000000  0.5046910000000 1.0
C      1  0.4390100000000  0.5083340000000  0.4608630000000 1.0
C      1  0.5187870000000  0.4881140000000  0.4854000000000 1.0
C      1  0.4080170000000  0.5195950000000  0.5022320000000 1.0
C      1  0.5648650000000  0.4562630000000  0.5010300000000 1.0
C      1  0.5451870000000  0.4402290000000  0.4900740000000 1.0
C      1  0.5382730000000  0.4423350000000  0.4620330000000 1.0
C      1  0.5036660000000  0.5318450000000  0.4378930000000 1.0
C      1  0.4514460000000  0.4395410000000  0.5173540000000 1.0
C      1  0.4472450000000  0.4611740000000  0.4264660000000 1.0
C      1  0.5453650000000  0.4666210000000  0.5490540000000 1.0
C      1  0.5795290000000  0.5186430000000  0.4719260000000 1.0
END
