TITL C-55400-8242-4 -24.3374340806433 125000 -664.047533434755 0 0 96 (C1) n - 1
REM
REM in /rds/project/t2_vol4/rds-t2-cs072/BORA/CARBON/from-Arr/AIRSS/Generating-Clusters/GAP-ML-2020/Only-C1/SD-CG/HFTN-CG
REM
REM
REM
REM
REM
REM ./C.cell (11c1c37f851c82e70ff6c80c92926a4b)
REM AIRSS Version 0.9.1 bugfix July 2018 build 013d7b7c2542+ Fri, 06 Jul 2018 19:26:36 +0100
REM compiler GCC version 9.3.0
REM options -cpp -mtune=generic -march=x86-64 -g -O0
REM seed -1325621732 1210464877 22133346 -306825673 -1410772479 1739810458 -1582923084 1384825655 1385027677 2101189053 -527151240 1934065892 -1901110254 -1410518716 1149755645 -1576853866 -500785219 231645521 1488109261 -1630342062 -1613262118 -812527913 -1411999125 164324469 -43304250 -1916766315 296870396 -1882990919 1019380419 408448773 -234903755 -446481206 156166623
REM
CELL 1.54180   50.00000   50.00000   50.00000   90.00000   90.00000   90.00000
LATT -1
SFAC C  
C      1  0.4256010000000  0.4899950000000  0.5253620000000 1.0
C      1  0.4375640000000  0.4516620000000  0.4930410000000 1.0
C      1  0.4652260000000  0.5157450000000  0.4388980000000 1.0
C      1  0.4217790000000  0.5413680000000  0.5167590000000 1.0
C      1  0.4506680000000  0.5095000000000  0.5793240000000 1.0
C      1  0.5329170000000  0.5169130000000  0.5021190000000 1.0
C      1  0.4807780000000  0.4875710000000  0.4941990000000 1.0
C      1  0.5045750000000  0.5042300000000  0.5288490000000 1.0
C      1  0.4350410000000  0.4874820000000  0.5745540000000 1.0
C      1  0.5393390000000  0.4689670000000  0.4349220000000 1.0
C      1  0.5295650000000  0.5490500000000  0.4438080000000 1.0
C      1  0.4435170000000  0.4793840000000  0.5480070000000 1.0
C      1  0.4556750000000  0.4335150000000  0.5053220000000 1.0
C      1  0.5067190000000  0.4984920000000  0.4639140000000 1.0
C      1  0.4429620000000  0.5594540000000  0.5264270000000 1.0
C      1  0.5344460000000  0.4518980000000  0.5479860000000 1.0
C      1  0.4701150000000  0.4102270000000  0.5468840000000 1.0
C      1  0.4791870000000  0.5003230000000  0.4149800000000 1.0
C      1  0.4836540000000  0.5489000000000  0.5535900000000 1.0
C      1  0.4242820000000  0.5181990000000  0.5335940000000 1.0
C      1  0.5193130000000  0.5370940000000  0.5797060000000 1.0
C      1  0.5111990000000  0.4325090000000  0.4244110000000 1.0
C      1  0.4420220000000  0.5265300000000  0.5569010000000 1.0
C      1  0.4779640000000  0.4266760000000  0.4638130000000 1.0
C      1  0.5589830000000  0.4907300000000  0.4356380000000 1.0
C      1  0.4823780000000  0.5646170000000  0.4440120000000 1.0
C      1  0.5345260000000  0.5138940000000  0.5834240000000 1.0
C      1  0.5248920000000  0.4065640000000  0.5024940000000 1.0
C      1  0.4617480000000  0.4568840000000  0.5510350000000 1.0
C      1  0.5742500000000  0.5423300000000  0.5307010000000 1.0
C      1  0.4948090000000  0.5182170000000  0.4004900000000 1.0
C      1  0.5443050000000  0.4221340000000  0.5080990000000 1.0
C      1  0.5438910000000  0.4506670000000  0.5177360000000 1.0
C      1  0.4889270000000  0.4727220000000  0.4158180000000 1.0
C      1  0.4296930000000  0.5362060000000  0.4656440000000 1.0
C      1  0.4796910000000  0.5079670000000  0.5824400000000 1.0
C      1  0.4262210000000  0.4783350000000  0.4990880000000 1.0
C      1  0.4984930000000  0.4799750000000  0.5147460000000 1.0
C      1  0.5303900000000  0.5104460000000  0.5286730000000 1.0
C      1  0.5332210000000  0.5462680000000  0.4968910000000 1.0
C      1  0.4982050000000  0.4107790000000  0.5089160000000 1.0
C      1  0.5828790000000  0.4858960000000  0.5130950000000 1.0
C      1  0.4640530000000  0.5783140000000  0.4616430000000 1.0
C      1  0.4918140000000  0.5332900000000  0.5774980000000 1.0
C      1  0.5426760000000  0.4726580000000  0.5654010000000 1.0
C      1  0.5889730000000  0.5094770000000  0.4963780000000 1.0
C      1  0.4871990000000  0.4602760000000  0.5637230000000 1.0
C      1  0.4916830000000  0.4729940000000  0.4702580000000 1.0
C      1  0.4952520000000  0.4834570000000  0.5789880000000 1.0
C      1  0.4535330000000  0.5522210000000  0.5516660000000 1.0
C      1  0.4304370000000  0.4862800000000  0.4693840000000 1.0
C      1  0.4746510000000  0.4523640000000  0.4289550000000 1.0
C      1  0.4987860000000  0.5838220000000  0.4990810000000 1.0
C      1  0.4758370000000  0.5165650000000  0.4873890000000 1.0
C      1  0.4815580000000  0.5396960000000  0.5034310000000 1.0
C      1  0.4767260000000  0.4198410000000  0.4908130000000 1.0
C      1  0.5555530000000  0.5193910000000  0.4335650000000 1.0
C      1  0.5763280000000  0.4838210000000  0.4578920000000 1.0
C      1  0.4592580000000  0.5092930000000  0.5389770000000 1.0
C      1  0.4620700000000  0.5458980000000  0.4343860000000 1.0
C      1  0.5591610000000  0.5469260000000  0.4837430000000 1.0
C      1  0.4839880000000  0.5255430000000  0.5298960000000 1.0
C      1  0.5669710000000  0.4640810000000  0.5026410000000 1.0
C      1  0.5309080000000  0.5546160000000  0.5598330000000 1.0
C      1  0.5333050000000  0.5329950000000  0.4200340000000 1.0
C      1  0.5235660000000  0.4875410000000  0.5806840000000 1.0
C      1  0.5652170000000  0.4910390000000  0.5598630000000 1.0
C      1  0.5824940000000  0.4903960000000  0.5396030000000 1.0
C      1  0.5398630000000  0.4563030000000  0.4612470000000 1.0
C      1  0.4880480000000  0.4266140000000  0.4366780000000 1.0
C      1  0.5644210000000  0.4631170000000  0.4744840000000 1.0
C      1  0.4379910000000  0.5099360000000  0.4547400000000 1.0
C      1  0.5303940000000  0.5017670000000  0.4784520000000 1.0
C      1  0.5159070000000  0.4560720000000  0.4769370000000 1.0
C      1  0.5167220000000  0.5311420000000  0.3971340000000 1.0
C      1  0.5033260000000  0.5492930000000  0.4585420000000 1.0
C      1  0.4602220000000  0.4331710000000  0.5342830000000 1.0
C      1  0.5072920000000  0.5563800000000  0.4884180000000 1.0
C      1  0.4942150000000  0.4202170000000  0.5372390000000 1.0
C      1  0.4620290000000  0.5640020000000  0.5062350000000 1.0
C      1  0.5582230000000  0.5172750000000  0.5691880000000 1.0
C      1  0.5581920000000  0.5423070000000  0.5528140000000 1.0
C      1  0.5185010000000  0.4610360000000  0.5042600000000 1.0
C      1  0.5048450000000  0.5857990000000  0.5258230000000 1.0
C      1  0.5547850000000  0.5407460000000  0.4562000000000 1.0
C      1  0.5785080000000  0.5367130000000  0.5042050000000 1.0
C      1  0.4171210000000  0.5412430000000  0.4895270000000 1.0
C      1  0.4881280000000  0.5208020000000  0.4601300000000 1.0
C      1  0.4691410000000  0.4560720000000  0.4575940000000 1.0
C      1  0.5902760000000  0.5030710000000  0.4703130000000 1.0
C      1  0.4436770000000  0.5579820000000  0.4517350000000 1.0
C      1  0.4416460000000  0.4601900000000  0.4657670000000 1.0
C      1  0.4708240000000  0.5843680000000  0.4882390000000 1.0
C      1  0.5075860000000  0.5679090000000  0.5465020000000 1.0
C      1  0.5076060000000  0.4426510000000  0.5519870000000 1.0
C      1  0.5169090000000  0.4607060000000  0.4192950000000 1.0
END
