TITL C-55394-8258-9 -0.277277125691405 125000 -446.271688208281 0 0 65 (C1) n - 1
REM
REM in /rds/project/t2_vol4/rds-t2-cs072/BORA/CARBON/from-Arr/AIRSS/Generating-Clusters/GAP-ML-2020/Only-C1/SD-CG/HFTN-CG
REM
REM
REM
REM
REM
REM ./C.cell (11c1c37f851c82e70ff6c80c92926a4b)
REM AIRSS Version 0.9.1 bugfix July 2018 build 013d7b7c2542+ Fri, 06 Jul 2018 19:26:36 +0100
REM compiler GCC version 9.3.0
REM options -cpp -mtune=generic -march=x86-64 -g -O0
REM seed -154872901 -819998676 -194867033 449882886 -323692460 -547108413 -1690012152 -1361180179 1537601019 809676026 -1594781829 -912903973 1015508356 -1768997122 1898588564 1887482893 -1040347641 -1490511343 -457746455 1696203524 -436175187 1461347953 -1557222969 1998368651 632413457 -2051859138 590821973 1532616417 -1541653234 -1036709887 1133771898 103356926 -401053097
REM
CELL 1.54180   50.00000   50.00000   50.00000   90.00000   90.00000   90.00000
LATT -1
SFAC C  
C      1  0.5061920000000  0.4377430000000  0.4510250000000 1.0
C      1  0.4704990000000  0.5699140000000  0.4639020000000 1.0
C      1  0.5106100000000  0.5686640000000  0.4895350000000 1.0
C      1  0.4435530000000  0.5676250000000  0.4584540000000 1.0
C      1  0.4777160000000  0.4252390000000  0.4785030000000 1.0
C      1  0.5136520000000  0.4927310000000  0.5341240000000 1.0
C      1  0.4842860000000  0.4917920000000  0.5446780000000 1.0
C      1  0.5034630000000  0.5152950000000  0.4929660000000 1.0
C      1  0.5690050000000  0.5043940000000  0.5222600000000 1.0
C      1  0.4476090000000  0.5156390000000  0.5636790000000 1.0
C      1  0.5545120000000  0.4881210000000  0.5646630000000 1.0
C      1  0.4947310000000  0.4290700000000  0.5207500000000 1.0
C      1  0.4793380000000  0.5599000000000  0.5375520000000 1.0
C      1  0.4461360000000  0.4941820000000  0.4815640000000 1.0
C      1  0.4659150000000  0.5651650000000  0.5129430000000 1.0
C      1  0.4655360000000  0.5129640000000  0.4431450000000 1.0
C      1  0.5052180000000  0.4869140000000  0.4371870000000 1.0
C      1  0.5516380000000  0.5149510000000  0.4754160000000 1.0
C      1  0.4499450000000  0.4849250000000  0.5087180000000 1.0
C      1  0.5043180000000  0.4339010000000  0.5719110000000 1.0
C      1  0.5208820000000  0.4516640000000  0.5639340000000 1.0
C      1  0.5076570000000  0.5644120000000  0.5362110000000 1.0
C      1  0.5450440000000  0.4646010000000  0.4573880000000 1.0
C      1  0.4895460000000  0.5576440000000  0.4447210000000 1.0
C      1  0.5309260000000  0.5234090000000  0.5412200000000 1.0
C      1  0.5569140000000  0.5091750000000  0.5483900000000 1.0
C      1  0.5411740000000  0.5396350000000  0.5177990000000 1.0
C      1  0.4280040000000  0.5350140000000  0.5214010000000 1.0
C      1  0.5137070000000  0.5429750000000  0.5546500000000 1.0
C      1  0.4593450000000  0.4583010000000  0.5180570000000 1.0
C      1  0.4824060000000  0.5734230000000  0.4904860000000 1.0
C      1  0.4471360000000  0.5177310000000  0.4653200000000 1.0
C      1  0.5515500000000  0.4588260000000  0.5259650000000 1.0
C      1  0.5428940000000  0.4401550000000  0.5058900000000 1.0
C      1  0.4860090000000  0.5385690000000  0.5586930000000 1.0
C      1  0.5115780000000  0.5144930000000  0.4425030000000 1.0
C      1  0.4412470000000  0.5450890000000  0.4743640000000 1.0
C      1  0.4773980000000  0.4379050000000  0.4524000000000 1.0
C      1  0.5549820000000  0.4492640000000  0.4805730000000 1.0
C      1  0.5098500000000  0.4892770000000  0.5027990000000 1.0
C      1  0.5346680000000  0.4715030000000  0.5482820000000 1.0
C      1  0.5586310000000  0.5225970000000  0.5027070000000 1.0
C      1  0.4420700000000  0.5176290000000  0.5370390000000 1.0
C      1  0.4740150000000  0.4635780000000  0.5422730000000 1.0
C      1  0.4871480000000  0.5300490000000  0.4382620000000 1.0
C      1  0.5068790000000  0.4227260000000  0.4767760000000 1.0
C      1  0.4764520000000  0.4859660000000  0.4386500000000 1.0
C      1  0.5593900000000  0.4887330000000  0.4677200000000 1.0
C      1  0.4416270000000  0.5505800000000  0.5040050000000 1.0
C      1  0.5198260000000  0.4628580000000  0.4452020000000 1.0
C      1  0.4644160000000  0.4621270000000  0.4484170000000 1.0
C      1  0.4713100000000  0.4347270000000  0.5049300000000 1.0
C      1  0.4754520000000  0.5131880000000  0.5655570000000 1.0
C      1  0.4659530000000  0.5053010000000  0.5227120000000 1.0
C      1  0.4969430000000  0.4702050000000  0.4873630000000 1.0
C      1  0.4911860000000  0.4408690000000  0.5472170000000 1.0
C      1  0.4655630000000  0.4755140000000  0.4733460000000 1.0
C      1  0.5149620000000  0.5684420000000  0.4410460000000 1.0
C      1  0.4805700000000  0.5227920000000  0.5035930000000 1.0
C      1  0.5209900000000  0.5560970000000  0.4649860000000 1.0
C      1  0.5716340000000  0.4721860000000  0.4872300000000 1.0
C      1  0.5703910000000  0.4771220000000  0.5143600000000 1.0
C      1  0.5239210000000  0.5621740000000  0.5132380000000 1.0
C      1  0.5178490000000  0.4263920000000  0.5033090000000 1.0
C      1  0.5260300000000  0.5259540000000  0.4660390000000 1.0
END
