TITL C-56119-9854-6 -0.116181796910851 125000 -501.803371239658 0 0 74 (C1) n - 1
REM
REM in /rds/project/t2_vol4/rds-t2-cs072/BORA/CARBON/from-Arr/AIRSS/Generating-Clusters/GAP-ML-2020/Only-C1/SD-CG/HFTN-CG
REM
REM
REM
REM
REM
REM ./C.cell (11c1c37f851c82e70ff6c80c92926a4b)
REM AIRSS Version 0.9.1 bugfix July 2018 build 013d7b7c2542+ Fri, 06 Jul 2018 19:26:36 +0100
REM compiler GCC version 9.3.0
REM options -cpp -mtune=generic -march=x86-64 -g -O0
REM seed -823204533 -1149477532 -1089341863 -1216765172 765690279 568669855 1594211849 -900536998 1478810330 -1162349730 -2107249616 890555527 1070485899 1469545445 850824783 1404871120 1226982918 -649155691 -482099020 -1023236317 -948437899 371945657 -1042428773 1771723424 1255814143 1603764856 876116746 1070119804 -1041786997 1632818470 -1359183417 -2074296116 -699725047
REM
CELL 1.54180   50.00000   50.00000   50.00000   90.00000   90.00000   90.00000
LATT -1
SFAC C  
C      1  0.5009750000000  0.4135140000000  0.4751640000000 1.0
C      1  0.5227400000000  0.4324530000000  0.4790610000000 1.0
C      1  0.5570880000000  0.4942720000000  0.4941550000000 1.0
C      1  0.4853440000000  0.4668250000000  0.5529330000000 1.0
C      1  0.4970720000000  0.5180890000000  0.4640880000000 1.0
C      1  0.5395310000000  0.5288090000000  0.5360340000000 1.0
C      1  0.4740350000000  0.5139280000000  0.4438390000000 1.0
C      1  0.5197780000000  0.5042410000000  0.4249290000000 1.0
C      1  0.4629320000000  0.5545400000000  0.5377410000000 1.0
C      1  0.4480730000000  0.4675730000000  0.5210550000000 1.0
C      1  0.5536400000000  0.4443050000000  0.4839840000000 1.0
C      1  0.5533010000000  0.5501860000000  0.5188240000000 1.0
C      1  0.5358840000000  0.5249490000000  0.4388390000000 1.0
C      1  0.4986550000000  0.5567660000000  0.4385810000000 1.0
C      1  0.5364990000000  0.4578080000000  0.5453370000000 1.0
C      1  0.5653360000000  0.4412430000000  0.5084230000000 1.0
C      1  0.4862500000000  0.4672080000000  0.4267570000000 1.0
C      1  0.4864510000000  0.4341190000000  0.5200070000000 1.0
C      1  0.4849530000000  0.5315850000000  0.4865670000000 1.0
C      1  0.5254560000000  0.4963280000000  0.4990970000000 1.0
C      1  0.4311340000000  0.5368140000000  0.5026750000000 1.0
C      1  0.5220420000000  0.5450480000000  0.5548340000000 1.0
C      1  0.4948220000000  0.4396450000000  0.5473500000000 1.0
C      1  0.4947270000000  0.5102370000000  0.5768840000000 1.0
C      1  0.4481420000000  0.4949240000000  0.5605260000000 1.0
C      1  0.5634880000000  0.4872100000000  0.5227300000000 1.0
C      1  0.5535700000000  0.5437280000000  0.4907000000000 1.0
C      1  0.5181440000000  0.5420590000000  0.4542030000000 1.0
C      1  0.4299300000000  0.4876640000000  0.5052230000000 1.0
C      1  0.5110740000000  0.5330660000000  0.5761210000000 1.0
C      1  0.4672200000000  0.5143180000000  0.5709480000000 1.0
C      1  0.4414950000000  0.5353250000000  0.4760740000000 1.0
C      1  0.5373900000000  0.4833760000000  0.4308330000000 1.0
C      1  0.4611340000000  0.4419690000000  0.5101290000000 1.0
C      1  0.4934670000000  0.4808880000000  0.5260820000000 1.0
C      1  0.5277450000000  0.5518010000000  0.4807910000000 1.0
C      1  0.4727670000000  0.5146420000000  0.5076880000000 1.0
C      1  0.5181340000000  0.5205280000000  0.5161860000000 1.0
C      1  0.5071520000000  0.5444850000000  0.5009120000000 1.0
C      1  0.4930010000000  0.4459820000000  0.4425820000000 1.0
C      1  0.5381490000000  0.5727750000000  0.5235880000000 1.0
C      1  0.4536450000000  0.5344180000000  0.5546860000000 1.0
C      1  0.5209650000000  0.4365310000000  0.5538760000000 1.0
C      1  0.4750510000000  0.5410550000000  0.4316160000000 1.0
C      1  0.4735010000000  0.5615090000000  0.4500770000000 1.0
C      1  0.4628340000000  0.4439100000000  0.4814600000000 1.0
C      1  0.4341440000000  0.5150570000000  0.5449290000000 1.0
C      1  0.4902230000000  0.4942190000000  0.4274230000000 1.0
C      1  0.5086300000000  0.4438780000000  0.5029800000000 1.0
C      1  0.4254670000000  0.5127610000000  0.5181140000000 1.0
C      1  0.4466510000000  0.5117050000000  0.4620050000000 1.0
C      1  0.4702440000000  0.4843480000000  0.5052790000000 1.0
C      1  0.4668470000000  0.5698110000000  0.5012240000000 1.0
C      1  0.5636570000000  0.5196350000000  0.4798010000000 1.0
C      1  0.5178130000000  0.4698280000000  0.5147210000000 1.0
C      1  0.4385730000000  0.4888730000000  0.4769910000000 1.0
C      1  0.5593700000000  0.5141120000000  0.4520040000000 1.0
C      1  0.5050890000000  0.4855580000000  0.5677710000000 1.0
C      1  0.5142970000000  0.5684190000000  0.5368770000000 1.0
C      1  0.5619470000000  0.4860180000000  0.4461550000000 1.0
C      1  0.5321650000000  0.4836040000000  0.5578500000000 1.0
C      1  0.5188420000000  0.4478430000000  0.4539340000000 1.0
C      1  0.4453030000000  0.5584980000000  0.5158540000000 1.0
C      1  0.4615710000000  0.4719750000000  0.4784660000000 1.0
C      1  0.5610840000000  0.4593430000000  0.5280490000000 1.0
C      1  0.4896130000000  0.5633130000000  0.5207190000000 1.0
C      1  0.4559410000000  0.4713440000000  0.5497250000000 1.0
C      1  0.4661980000000  0.5531320000000  0.4765710000000 1.0
C      1  0.5281190000000  0.4744540000000  0.4578420000000 1.0
C      1  0.4804880000000  0.4296330000000  0.4643620000000 1.0
C      1  0.5562850000000  0.4719080000000  0.4725410000000 1.0
C      1  0.4936210000000  0.5104710000000  0.5276680000000 1.0
C      1  0.5491080000000  0.5012480000000  0.5431010000000 1.0
C      1  0.5139920000000  0.4963620000000  0.4728570000000 1.0
END
