TITL C-56120-9860-5 1.99889579561362 125000 -438.824144582137 0 0 62 (C1) n - 1
REM
REM in /rds/project/t2_vol4/rds-t2-cs072/BORA/CARBON/from-Arr/AIRSS/Generating-Clusters/GAP-ML-2020/Only-C1/SD-CG/HFTN-CG
REM
REM
REM
REM
REM
REM ./C.cell (11c1c37f851c82e70ff6c80c92926a4b)
REM AIRSS Version 0.9.1 bugfix July 2018 build 013d7b7c2542+ Fri, 06 Jul 2018 19:26:36 +0100
REM compiler GCC version 9.3.0
REM options -cpp -mtune=generic -march=x86-64 -g -O0
REM seed 519663694 2135672958 319113043 2066581066 -160297112 -1472443396 -664582452 -1504731837 -893821466 -8950168 710325322 -375135831 1007624128 -177237583 -1687576007 -219171562 -887034494 -475514388 1635319483 -1214074819 -1104653799 1480433079 535257988 1852371961 -742939170 249497630 -816701692 2032905390 832433406 683883399 -1631642150 27378343 -725259209
REM
CELL 1.54180   50.00000   50.00000   50.00000   90.00000   90.00000   90.00000
LATT -1
SFAC C  
C      1  0.4520780000000  0.4744240000000  0.5455180000000 1.0
C      1  0.4950630000000  0.4606590000000  0.5591210000000 1.0
C      1  0.4529350000000  0.4551160000000  0.5239730000000 1.0
C      1  0.4378320000000  0.4678480000000  0.5024360000000 1.0
C      1  0.5696290000000  0.5070990000000  0.4953860000000 1.0
C      1  0.4628430000000  0.4991170000000  0.5349880000000 1.0
C      1  0.4512040000000  0.5475390000000  0.4887030000000 1.0
C      1  0.4998510000000  0.4425420000000  0.5367040000000 1.0
C      1  0.5454770000000  0.4727110000000  0.4630180000000 1.0
C      1  0.5656340000000  0.5358220000000  0.4953020000000 1.0
C      1  0.5611800000000  0.4963370000000  0.4688750000000 1.0
C      1  0.5278630000000  0.4422180000000  0.5318320000000 1.0
C      1  0.4661510000000  0.4452530000000  0.4694230000000 1.0
C      1  0.5061850000000  0.4852910000000  0.5243290000000 1.0
C      1  0.4913950000000  0.5524160000000  0.4522020000000 1.0
C      1  0.5106650000000  0.5217940000000  0.4882410000000 1.0
C      1  0.4437570000000  0.4836100000000  0.4579860000000 1.0
C      1  0.4802970000000  0.4889410000000  0.5130820000000 1.0
C      1  0.5525250000000  0.5490670000000  0.5163990000000 1.0
C      1  0.4783280000000  0.4580830000000  0.4464030000000 1.0
C      1  0.5118070000000  0.5009040000000  0.4339550000000 1.0
C      1  0.4738280000000  0.5635010000000  0.4975450000000 1.0
C      1  0.5177950000000  0.4999630000000  0.5018710000000 1.0
C      1  0.4477710000000  0.5385150000000  0.5156960000000 1.0
C      1  0.5456090000000  0.4471890000000  0.5083250000000 1.0
C      1  0.5654740000000  0.4946190000000  0.5207130000000 1.0
C      1  0.4917310000000  0.5019590000000  0.4897480000000 1.0
C      1  0.4732160000000  0.4585420000000  0.5753170000000 1.0
C      1  0.5536330000000  0.5192890000000  0.4531630000000 1.0
C      1  0.4716870000000  0.5519830000000  0.5247520000000 1.0
C      1  0.4724930000000  0.5313040000000  0.4469280000000 1.0
C      1  0.5237620000000  0.4758420000000  0.4435330000000 1.0
C      1  0.5055420000000  0.4550350000000  0.4494340000000 1.0
C      1  0.5426440000000  0.5347500000000  0.5396690000000 1.0
C      1  0.4781910000000  0.4399960000000  0.5173810000000 1.0
C      1  0.5056750000000  0.4886190000000  0.5537180000000 1.0
C      1  0.5185130000000  0.5484340000000  0.4451160000000 1.0
C      1  0.5291690000000  0.5228350000000  0.4378770000000 1.0
C      1  0.5377120000000  0.4507110000000  0.4814230000000 1.0
C      1  0.5350500000000  0.4872200000000  0.5560180000000 1.0
C      1  0.4901170000000  0.5399660000000  0.5433260000000 1.0
C      1  0.4824550000000  0.5124240000000  0.5556410000000 1.0
C      1  0.4927310000000  0.5676640000000  0.4777790000000 1.0
C      1  0.5606030000000  0.4666950000000  0.5236840000000 1.0
C      1  0.5507870000000  0.5077570000000  0.5427400000000 1.0
C      1  0.4404870000000  0.5126940000000  0.5223890000000 1.0
C      1  0.4553570000000  0.4792420000000  0.5740870000000 1.0
C      1  0.4854920000000  0.4377530000000  0.4892510000000 1.0
C      1  0.4507340000000  0.5303050000000  0.4665180000000 1.0
C      1  0.4827450000000  0.5062850000000  0.4356380000000 1.0
C      1  0.5353330000000  0.5599650000000  0.4654390000000 1.0
C      1  0.5110600000000  0.4419620000000  0.4745430000000 1.0
C      1  0.4367030000000  0.5059080000000  0.4732750000000 1.0
C      1  0.5199450000000  0.5704850000000  0.4867650000000 1.0
C      1  0.4664560000000  0.4832150000000  0.4405230000000 1.0
C      1  0.5438840000000  0.4619900000000  0.5467890000000 1.0
C      1  0.4437870000000  0.4606030000000  0.4759490000000 1.0
C      1  0.5571210000000  0.5430680000000  0.4691540000000 1.0
C      1  0.4319190000000  0.4963960000000  0.5006330000000 1.0
C      1  0.4660640000000  0.5057680000000  0.5780990000000 1.0
C      1  0.5273540000000  0.5635380000000  0.5136650000000 1.0
C      1  0.5166710000000  0.5492180000000  0.5380120000000 1.0
END
