TITL C-56110-9698-13 0.00590205535768818 125000 -203.018091173629 0 0 30 (C1) n - 1
REM
REM in /rds/project/t2_vol4/rds-t2-cs072/BORA/CARBON/from-Arr/AIRSS/Generating-Clusters/GAP-ML-2020/Only-C1/SD-CG/HFTN-CG
REM
REM
REM
REM
REM
REM ./C.cell (11c1c37f851c82e70ff6c80c92926a4b)
REM AIRSS Version 0.9.1 bugfix July 2018 build 013d7b7c2542+ Fri, 06 Jul 2018 19:26:36 +0100
REM compiler GCC version 9.3.0
REM options -cpp -mtune=generic -march=x86-64 -g -O0
REM seed 161743007 705561234 -156934435 -150249101 -419943790 -872523446 1196706043 -471332750 1303965935 -1273722264 -686102260 -931246408 1923578465 -146557826 1182109760 -772114341 -640478907 -878227550 238502159 838366989 -496530706 489147829 -1052123860 -1352948351 -1058028636 -1330105972 943224382 -1161845590 127134215 -387512265 -1224267560 -341759376 495724657
REM
CELL 1.54180   50.00000   50.00000   50.00000   90.00000   90.00000   90.00000
LATT -1
SFAC C  
C      1  0.4784000000000  0.5265070000000  0.4761810000000 1.0
C      1  0.5110650000000  0.5465170000000  0.5276270000000 1.0
C      1  0.4890420000000  0.4757700000000  0.5351000000000 1.0
C      1  0.5547240000000  0.5089210000000  0.4894700000000 1.0
C      1  0.4978240000000  0.5036020000000  0.5380520000000 1.0
C      1  0.5270380000000  0.5046860000000  0.5384650000000 1.0
C      1  0.4690430000000  0.4857340000000  0.4594470000000 1.0
C      1  0.4504760000000  0.4768530000000  0.4802290000000 1.0
C      1  0.4640490000000  0.4677290000000  0.5239360000000 1.0
C      1  0.4922610000000  0.4682730000000  0.4592290000000 1.0
C      1  0.4407880000000  0.4826660000000  0.5264630000000 1.0
C      1  0.5101880000000  0.5983850000000  0.5230970000000 1.0
C      1  0.5474530000000  0.4827020000000  0.4997140000000 1.0
C      1  0.5536140000000  0.5305070000000  0.5071280000000 1.0
C      1  0.5358490000000  0.4967390000000  0.4473340000000 1.0
C      1  0.5122920000000  0.4621080000000  0.5246040000000 1.0
C      1  0.4646350000000  0.4580590000000  0.4961120000000 1.0
C      1  0.5206540000000  0.4754230000000  0.4584570000000 1.0
C      1  0.5120820000000  0.4518300000000  0.4980210000000 1.0
C      1  0.4721480000000  0.5130430000000  0.4551560000000 1.0
C      1  0.4390530000000  0.4951320000000  0.5011130000000 1.0
C      1  0.5352970000000  0.5302300000000  0.5273140000000 1.0
C      1  0.5105980000000  0.5731040000000  0.5239780000000 1.0
C      1  0.5350840000000  0.4810860000000  0.5256080000000 1.0
C      1  0.4704880000000  0.5286840000000  0.5031060000000 1.0
C      1  0.4884910000000  0.4510660000000  0.4829010000000 1.0
C      1  0.4885780000000  0.5279480000000  0.5264530000000 1.0
C      1  0.5323650000000  0.4654030000000  0.4826500000000 1.0
C      1  0.5531120000000  0.5095080000000  0.4610030000000 1.0
C      1  0.4433080000000  0.5217830000000  0.5020500000000 1.0
END
