TITL C-56112-9693-2 -0.0419477256206388 125000 -188.475274427115 0 0 29 (C1) n - 1
REM
REM in /rds/project/t2_vol4/rds-t2-cs072/BORA/CARBON/from-Arr/AIRSS/Generating-Clusters/GAP-ML-2020/Only-C1/SD-CG/HFTN-CG
REM
REM
REM
REM
REM
REM ./C.cell (11c1c37f851c82e70ff6c80c92926a4b)
REM AIRSS Version 0.9.1 bugfix July 2018 build 013d7b7c2542+ Fri, 06 Jul 2018 19:26:36 +0100
REM compiler GCC version 9.3.0
REM options -cpp -mtune=generic -march=x86-64 -g -O0
REM seed 839315025 368636908 -1295241789 1249368885 -60477270 -1867336718 976369945 -1549393465 923715849 604412883 -1933034063 -1858585181 -1904303143 -1563359858 336110146 -702194442 1973383981 -325330594 1912610942 306701905 1936572889 -1742227838 -685576499 1429815808 -866393857 -1105162147 -2140300556 1178528154 1341775680 -1251915764 -550289057 -2133057692 -1253181726
REM
CELL 1.54180   50.00000   50.00000   50.00000   90.00000   90.00000   90.00000
LATT -1
SFAC C  
C      1  0.5525470000000  0.4501410000000  0.4921460000000 1.0
C      1  0.5088470000000  0.4289490000000  0.5027960000000 1.0
C      1  0.5152560000000  0.5362800000000  0.4674110000000 1.0
C      1  0.5342160000000  0.4312780000000  0.4986660000000 1.0
C      1  0.5475300000000  0.4752680000000  0.4933890000000 1.0
C      1  0.4728420000000  0.5125570000000  0.4719280000000 1.0
C      1  0.4911010000000  0.5004680000000  0.5345040000000 1.0
C      1  0.5405010000000  0.5203630000000  0.5327020000000 1.0
C      1  0.5253560000000  0.5498340000000  0.4468680000000 1.0
C      1  0.5284760000000  0.5184830000000  0.4874100000000 1.0
C      1  0.5283510000000  0.5454630000000  0.5249770000000 1.0
C      1  0.4924110000000  0.4515520000000  0.4996730000000 1.0
C      1  0.4600700000000  0.4710240000000  0.4564670000000 1.0
C      1  0.4629040000000  0.5326800000000  0.5193580000000 1.0
C      1  0.4468170000000  0.5060350000000  0.4837000000000 1.0
C      1  0.4709690000000  0.4623280000000  0.5127120000000 1.0
C      1  0.4688530000000  0.4872790000000  0.5222520000000 1.0
C      1  0.4873000000000  0.5347480000000  0.4788070000000 1.0
C      1  0.5371090000000  0.4980590000000  0.5464090000000 1.0
C      1  0.5452950000000  0.5302130000000  0.5070440000000 1.0
C      1  0.5016010000000  0.5478960000000  0.5242300000000 1.0
C      1  0.5221470000000  0.4906360000000  0.4947780000000 1.0
C      1  0.4425500000000  0.4801840000000  0.4734140000000 1.0
C      1  0.4845720000000  0.5283110000000  0.5381540000000 1.0
C      1  0.5006370000000  0.4753060000000  0.4828480000000 1.0
C      1  0.5168570000000  0.4915230000000  0.5277920000000 1.0
C      1  0.4511510000000  0.5085980000000  0.5114700000000 1.0
C      1  0.4806900000000  0.5484530000000  0.5033850000000 1.0
C      1  0.4830440000000  0.4860940000000  0.4647120000000 1.0
END
