TITL C-56128-9705-2 0.0986309103989943 125000 -496.156578304967 0 0 73 (C1) n - 1
REM
REM in /rds/project/t2_vol4/rds-t2-cs072/BORA/CARBON/from-Arr/AIRSS/Generating-Clusters/GAP-ML-2020/Only-C1/SD-CG/HFTN-CG
REM
REM
REM
REM
REM
REM ./C.cell (11c1c37f851c82e70ff6c80c92926a4b)
REM AIRSS Version 0.9.1 bugfix July 2018 build 013d7b7c2542+ Fri, 06 Jul 2018 19:26:36 +0100
REM compiler GCC version 9.3.0
REM options -cpp -mtune=generic -march=x86-64 -g -O0
REM seed 992188528 -378283911 -1767290641 -368871726 -2131764823 1998270336 -417262001 -1035537119 -1111456658 -444277287 1327375891 728350548 1478089019 -1370353945 447283546 1119071447 2088450701 -1593011245 1567959736 -880755150 -1369578485 -1916392640 -197267828 1386753902 -1029671098 -505746429 30118546 -1651176137 -1203131999 -374368334 570205714 -1331724437 -112605876
REM
CELL 1.54180   50.00000   50.00000   50.00000   90.00000   90.00000   90.00000
LATT -1
SFAC C  
C      1  0.5540370000000  0.5275120000000  0.4556210000000 1.0
C      1  0.4610580000000  0.4267090000000  0.4828390000000 1.0
C      1  0.4455540000000  0.4580960000000  0.5205000000000 1.0
C      1  0.5676230000000  0.4791900000000  0.5244070000000 1.0
C      1  0.4775830000000  0.5254460000000  0.5797280000000 1.0
C      1  0.4846070000000  0.4765600000000  0.5137580000000 1.0
C      1  0.4760290000000  0.5448530000000  0.4793250000000 1.0
C      1  0.5161660000000  0.4811550000000  0.4266740000000 1.0
C      1  0.5349280000000  0.4902270000000  0.5664130000000 1.0
C      1  0.4854520000000  0.4479330000000  0.4389510000000 1.0
C      1  0.4483610000000  0.5404690000000  0.5336920000000 1.0
C      1  0.4777320000000  0.5053690000000  0.5219250000000 1.0
C      1  0.5321260000000  0.4420870000000  0.4849100000000 1.0
C      1  0.5217100000000  0.4250430000000  0.5033610000000 1.0
C      1  0.5037850000000  0.5358920000000  0.5454470000000 1.0
C      1  0.5599850000000  0.4999320000000  0.4493810000000 1.0
C      1  0.4929150000000  0.5001000000000  0.4805320000000 1.0
C      1  0.4824100000000  0.5187950000000  0.4323090000000 1.0
C      1  0.5099500000000  0.5689880000000  0.5107990000000 1.0
C      1  0.4854380000000  0.4810420000000  0.5589180000000 1.0
C      1  0.4899970000000  0.4924420000000  0.4231460000000 1.0
C      1  0.4583630000000  0.4344650000000  0.5085140000000 1.0
C      1  0.5455000000000  0.5603480000000  0.4899970000000 1.0
C      1  0.4330860000000  0.4791630000000  0.5063900000000 1.0
C      1  0.4983790000000  0.5060500000000  0.5424430000000 1.0
C      1  0.5527760000000  0.4948640000000  0.5428320000000 1.0
C      1  0.5602740000000  0.4583330000000  0.4540920000000 1.0
C      1  0.5625450000000  0.5225150000000  0.5312310000000 1.0
C      1  0.4708170000000  0.4625330000000  0.5375470000000 1.0
C      1  0.4796760000000  0.4351290000000  0.5292440000000 1.0
C      1  0.5687380000000  0.4802270000000  0.4683430000000 1.0
C      1  0.4853110000000  0.5248170000000  0.5002330000000 1.0
C      1  0.5272310000000  0.5163340000000  0.5070550000000 1.0
C      1  0.4991910000000  0.5531280000000  0.4644170000000 1.0
C      1  0.5238400000000  0.4981080000000  0.5297550000000 1.0
C      1  0.5295640000000  0.5385660000000  0.5586800000000 1.0
C      1  0.5368500000000  0.4990770000000  0.4312020000000 1.0
C      1  0.5359370000000  0.4456490000000  0.4558910000000 1.0
C      1  0.5599020000000  0.5379990000000  0.4811610000000 1.0
C      1  0.5303350000000  0.5266900000000  0.4377220000000 1.0
C      1  0.5150560000000  0.4722960000000  0.5196150000000 1.0
C      1  0.5178500000000  0.5660460000000  0.4811400000000 1.0
C      1  0.5610600000000  0.4857650000000  0.4978100000000 1.0
C      1  0.4653850000000  0.4368890000000  0.4578480000000 1.0
C      1  0.5075660000000  0.4314580000000  0.5265760000000 1.0
C      1  0.5395120000000  0.5634420000000  0.5181990000000 1.0
C      1  0.4433910000000  0.4554170000000  0.4597380000000 1.0
C      1  0.5186330000000  0.4533780000000  0.5417000000000 1.0
C      1  0.5128260000000  0.4692790000000  0.5646700000000 1.0
C      1  0.4428430000000  0.4958880000000  0.4517840000000 1.0
C      1  0.4823090000000  0.5474240000000  0.5606950000000 1.0
C      1  0.4298090000000  0.5386980000000  0.4851990000000 1.0
C      1  0.4658730000000  0.5025090000000  0.5669600000000 1.0
C      1  0.5319170000000  0.4711980000000  0.4955050000000 1.0
C      1  0.4689510000000  0.5603250000000  0.5389450000000 1.0
C      1  0.5139340000000  0.4542380000000  0.4383690000000 1.0
C      1  0.5038530000000  0.5365500000000  0.4405630000000 1.0
C      1  0.5025310000000  0.5188780000000  0.5890580000000 1.0
C      1  0.4863880000000  0.5781690000000  0.5244440000000 1.0
C      1  0.4449650000000  0.4792440000000  0.4784680000000 1.0
C      1  0.5076570000000  0.5386350000000  0.5148720000000 1.0
C      1  0.5489130000000  0.5461740000000  0.5396790000000 1.0
C      1  0.4463600000000  0.4729870000000  0.4365100000000 1.0
C      1  0.5270710000000  0.5163750000000  0.5777470000000 1.0
C      1  0.4509810000000  0.5388010000000  0.4670720000000 1.0
C      1  0.4723800000000  0.4705400000000  0.4265060000000 1.0
C      1  0.4312570000000  0.5032870000000  0.5213100000000 1.0
C      1  0.4767820000000  0.4775560000000  0.4852830000000 1.0
C      1  0.4532740000000  0.5108310000000  0.5406100000000 1.0
C      1  0.4308430000000  0.5311490000000  0.5112560000000 1.0
C      1  0.5199300000000  0.4974200000000  0.4843880000000 1.0
C      1  0.4561320000000  0.5201890000000  0.4453270000000 1.0
C      1  0.5580100000000  0.5171300000000  0.5027680000000 1.0
END
