TITL C-56128-9705-1 -0.160742532090187 125000 -246.413509256506 0 0 37 (C1) n - 1
REM
REM in /rds/project/t2_vol4/rds-t2-cs072/BORA/CARBON/from-Arr/AIRSS/Generating-Clusters/GAP-ML-2020/Only-C1/SD-CG/HFTN-CG
REM
REM
REM
REM
REM
REM ./C.cell (11c1c37f851c82e70ff6c80c92926a4b)
REM AIRSS Version 0.9.1 bugfix July 2018 build 013d7b7c2542+ Fri, 06 Jul 2018 19:26:36 +0100
REM compiler GCC version 9.3.0
REM options -cpp -mtune=generic -march=x86-64 -g -O0
REM seed -1541052540 636403755 -124809939 -331083163 1016691698 1060749990 -213583409 -568478590 1530854224 1748707234 -257552689 925959538 -1393915741 -167149435 1794352297 845211011 1305095315 -1667233213 965191907 -737683987 643963905 868825182 1905031437 1415596134 -844869517 -754397101 36604294 13133715 360180091 2010431739 -1421659437 -1841112648 -453825472
REM
CELL 1.54180   50.00000   50.00000   50.00000   90.00000   90.00000   90.00000
LATT -1
SFAC C  
C      1  0.4596700000000  0.4633020000000  0.5199800000000 1.0
C      1  0.5120440000000  0.4585090000000  0.5135460000000 1.0
C      1  0.5368060000000  0.5423600000000  0.5246820000000 1.0
C      1  0.4913620000000  0.4819180000000  0.5534990000000 1.0
C      1  0.5235820000000  0.5095640000000  0.4833320000000 1.0
C      1  0.5525800000000  0.5172450000000  0.5300950000000 1.0
C      1  0.5476070000000  0.5272610000000  0.4862160000000 1.0
C      1  0.4974830000000  0.5122200000000  0.4696940000000 1.0
C      1  0.4746690000000  0.5038480000000  0.4234710000000 1.0
C      1  0.4847180000000  0.4646190000000  0.4725740000000 1.0
C      1  0.4887210000000  0.5444060000000  0.5080330000000 1.0
C      1  0.4879720000000  0.4680820000000  0.5278750000000 1.0
C      1  0.5141450000000  0.5079880000000  0.5128540000000 1.0
C      1  0.4624180000000  0.5337340000000  0.5139240000000 1.0
C      1  0.5007070000000  0.4716920000000  0.4490570000000 1.0
C      1  0.5089580000000  0.5350550000000  0.5265140000000 1.0
C      1  0.4955940000000  0.4995580000000  0.4423680000000 1.0
C      1  0.5539090000000  0.4816870000000  0.4994400000000 1.0
C      1  0.4640930000000  0.5084610000000  0.5270800000000 1.0
C      1  0.5002590000000  0.5222450000000  0.5523860000000 1.0
C      1  0.4806980000000  0.4912210000000  0.4848580000000 1.0
C      1  0.4837820000000  0.5353800000000  0.4810340000000 1.0
C      1  0.5076190000000  0.4519580000000  0.4869530000000 1.0
C      1  0.4763760000000  0.5074020000000  0.5524100000000 1.0
C      1  0.4579310000000  0.4944700000000  0.4412370000000 1.0
C      1  0.5377450000000  0.4844750000000  0.4764470000000 1.0
C      1  0.4466620000000  0.4861270000000  0.5139060000000 1.0
C      1  0.4424510000000  0.4878540000000  0.4606210000000 1.0
C      1  0.5420300000000  0.5506270000000  0.4990210000000 1.0
C      1  0.5333060000000  0.4958100000000  0.5352880000000 1.0
C      1  0.5232740000000  0.4635000000000  0.4654880000000 1.0
C      1  0.5371990000000  0.4707840000000  0.5203370000000 1.0
C      1  0.5143240000000  0.4977140000000  0.5564010000000 1.0
C      1  0.4564940000000  0.5273250000000  0.4870380000000 1.0
C      1  0.5623710000000  0.5093410000000  0.5048160000000 1.0
C      1  0.4513610000000  0.4976410000000  0.4853100000000 1.0
C      1  0.4890800000000  0.4946180000000  0.5122180000000 1.0
END
