TITL C-56116-9796-9 -95.5437778913972 125000 -266.001552106193 0 0 41 (C1) n - 1
REM
REM in /rds/project/t2_vol4/rds-t2-cs072/BORA/CARBON/from-Arr/AIRSS/Generating-Clusters/GAP-ML-2020/Only-C1/SD-CG/HFTN-CG
REM
REM
REM
REM
REM
REM ./C.cell (11c1c37f851c82e70ff6c80c92926a4b)
REM AIRSS Version 0.9.1 bugfix July 2018 build 013d7b7c2542+ Fri, 06 Jul 2018 19:26:36 +0100
REM compiler GCC version 9.3.0
REM options -cpp -mtune=generic -march=x86-64 -g -O0
REM seed 1054923760 25492704 1297233076 95781155 -1338793805 -572229609 -657640101 189810989 809216112 -1372994118 -882437925 -1581737787 -1093047978 -1955433209 1958877727 -85517220 -821560837 1036464531 -1306663841 -1306481601 -2038345908 -1891631074 -2076240458 1137260372 709629450 -761563247 -1037328819 -1059958850 -1250505865 1669673416 -1576987121 894670897 1571840057
REM
CELL 1.54180   50.00000   50.00000   50.00000   90.00000   90.00000   90.00000
LATT -1
SFAC C  
C      1  0.5469400000000  0.5226440000000  0.5046010000000 1.0
C      1  0.4796040000000  0.4618790000000  0.5436310000000 1.0
C      1  0.5101530000000  0.4840680000000  0.4942700000000 1.0
C      1  0.4819750000000  0.5178870000000  0.5452330000000 1.0
C      1  0.4514030000000  0.4510630000000  0.4978160000000 1.0
C      1  0.4647970000000  0.5095170000000  0.4526110000000 1.0
C      1  0.4640020000000  0.4501060000000  0.4699430000000 1.0
C      1  0.4908300000000  0.4980640000000  0.4510890000000 1.0
C      1  0.4841660000000  0.5221560000000  0.4964990000000 1.0
C      1  0.5310670000000  0.5435600000000  0.5435540000000 1.0
C      1  0.5480420000000  0.4890350000000  0.4643060000000 1.0
C      1  0.5279990000000  0.5422630000000  0.4965140000000 1.0
C      1  0.5142920000000  0.5356280000000  0.4723800000000 1.0
C      1  0.4898070000000  0.4551410000000  0.4626880000000 1.0
C      1  0.5297660000000  0.4716960000000  0.4562330000000 1.0
C      1  0.4712530000000  0.5601570000000  0.4723530000000 1.0
C      1  0.4750460000000  0.5426690000000  0.5458200000000 1.0
C      1  0.5200220000000  0.4510570000000  0.5269160000000 1.0
C      1  0.5497020000000  0.5255860000000  0.5328320000000 1.0
C      1  0.5137960000000  0.4581380000000  0.4801390000000 1.0
C      1  0.5019100000000  0.5229630000000  0.5195880000000 1.0
C      1  0.5019490000000  0.4736130000000  0.4436650000000 1.0
C      1  0.4519590000000  0.4952630000000  0.4755530000000 1.0
C      1  0.4748460000000  0.5507380000000  0.4984690000000 1.0
C      1  0.4904350000000  0.4904030000000  0.5419980000000 1.0
C      1  0.5193140000000  0.4925100000000  0.5487040000000 1.0
C      1  0.5036320000000  0.5084760000000  0.4755320000000 1.0
C      1  0.5141660000000  0.5513610000000  0.5211990000000 1.0
C      1  0.4856790000000  0.4829470000000  0.5112180000000 1.0
C      1  0.5329900000000  0.5173110000000  0.5532010000000 1.0
C      1  0.4856760000000  0.5590240000000  0.5231650000000 1.0
C      1  0.4950100000000  0.5495340000000  0.4568440000000 1.0
C      1  0.5540700000000  0.4993620000000  0.4894000000000 1.0
C      1  0.5229090000000  0.4424600000000  0.5012090000000 1.0
C      1  0.4694740000000  0.4581340000000  0.5164520000000 1.0
C      1  0.4439180000000  0.4688510000000  0.4762050000000 1.0
C      1  0.4702100000000  0.5369420000000  0.4540470000000 1.0
C      1  0.5357510000000  0.4872900000000  0.5073630000000 1.0
C      1  0.5341880000000  0.4753030000000  0.5323780000000 1.0
C      1  0.4659910000000  0.5009380000000  0.4990710000000 1.0
C      1  0.5012590000000  0.4442650000000  0.5453090000000 1.0
END
