TITL C-56110-9698-1 0.0300904473123497 125000 -284.73146998732 0 0 43 (C1) n - 1
REM
REM in /rds/project/t2_vol4/rds-t2-cs072/BORA/CARBON/from-Arr/AIRSS/Generating-Clusters/GAP-ML-2020/Only-C1/SD-CG/HFTN-CG
REM
REM
REM
REM
REM
REM ./C.cell (11c1c37f851c82e70ff6c80c92926a4b)
REM AIRSS Version 0.9.1 bugfix July 2018 build 013d7b7c2542+ Fri, 06 Jul 2018 19:26:36 +0100
REM compiler GCC version 9.3.0
REM options -cpp -mtune=generic -march=x86-64 -g -O0
REM seed -399544948 1406764041 -1052182072 960995630 -946626912 -1300486920 1351419883 -358373616 -1893090735 -798342061 1256045135 1923142679 -369429428 249742029 -1679903341 608029540 493898788 -563564913 1034376294 -1119228945 1179093407 -748412885 886188218 -1890239041 1990865803 1258004130 -163265873 2027605300 731839809 1302645178 -112196523 -834091773 207715588
REM
CELL 1.54180   50.00000   50.00000   50.00000   90.00000   90.00000   90.00000
LATT -1
SFAC C  
C      1  0.4921790000000  0.5307230000000  0.5567690000000 1.0
C      1  0.4445060000000  0.5223520000000  0.5212650000000 1.0
C      1  0.4626830000000  0.5316550000000  0.4788830000000 1.0
C      1  0.5369990000000  0.5290710000000  0.5292740000000 1.0
C      1  0.5732030000000  0.4973250000000  0.5310320000000 1.0
C      1  0.4415310000000  0.4627620000000  0.4813750000000 1.0
C      1  0.5058640000000  0.4565370000000  0.4864610000000 1.0
C      1  0.4643970000000  0.4468920000000  0.5084650000000 1.0
C      1  0.4798370000000  0.4913200000000  0.5070900000000 1.0
C      1  0.5055790000000  0.5000260000000  0.4709200000000 1.0
C      1  0.4500420000000  0.5103610000000  0.5472300000000 1.0
C      1  0.5167180000000  0.4578520000000  0.5458740000000 1.0
C      1  0.5688330000000  0.4956040000000  0.5044260000000 1.0
C      1  0.5130550000000  0.5139240000000  0.4468380000000 1.0
C      1  0.4449010000000  0.4379540000000  0.4892180000000 1.0
C      1  0.4651140000000  0.5118580000000  0.4405860000000 1.0
C      1  0.5237440000000  0.4828980000000  0.5375530000000 1.0
C      1  0.4637610000000  0.4718320000000  0.5226280000000 1.0
C      1  0.5593570000000  0.4720490000000  0.4855000000000 1.0
C      1  0.5307440000000  0.5513570000000  0.4861530000000 1.0
C      1  0.5475360000000  0.5387130000000  0.5036610000000 1.0
C      1  0.4387840000000  0.4901610000000  0.4827020000000 1.0
C      1  0.5662310000000  0.5199610000000  0.4902510000000 1.0
C      1  0.5596830000000  0.5102600000000  0.4628560000000 1.0
C      1  0.4928180000000  0.5412550000000  0.5119990000000 1.0
C      1  0.5691070000000  0.4833210000000  0.4620590000000 1.0
C      1  0.4875740000000  0.4792340000000  0.4798480000000 1.0
C      1  0.4841460000000  0.5445260000000  0.4663630000000 1.0
C      1  0.5394480000000  0.5206880000000  0.4482050000000 1.0
C      1  0.5313060000000  0.4688960000000  0.4882320000000 1.0
C      1  0.4883410000000  0.5280910000000  0.4425870000000 1.0
C      1  0.4510670000000  0.5096330000000  0.4638470000000 1.0
C      1  0.5039220000000  0.5498910000000  0.4873860000000 1.0
C      1  0.5464930000000  0.5020230000000  0.5364000000000 1.0
C      1  0.5071420000000  0.4942800000000  0.5167690000000 1.0
C      1  0.4687580000000  0.5217500000000  0.5634280000000 1.0
C      1  0.4318540000000  0.4994640000000  0.5095020000000 1.0
C      1  0.4694700000000  0.5235830000000  0.5061030000000 1.0
C      1  0.4415010000000  0.4855940000000  0.5335260000000 1.0
C      1  0.5061090000000  0.4385260000000  0.5319500000000 1.0
C      1  0.5234560000000  0.4976700000000  0.4927810000000 1.0
C      1  0.4930730000000  0.4413770000000  0.5065690000000 1.0
C      1  0.5091360000000  0.5367510000000  0.5354330000000 1.0
END
