TITL C-56119-9854-5 0.495562029434605 125000 -156.808169561573 0 0 24 (C1) n - 1
REM
REM in /rds/project/t2_vol4/rds-t2-cs072/BORA/CARBON/from-Arr/AIRSS/Generating-Clusters/GAP-ML-2020/Only-C1/SD-CG/HFTN-CG
REM
REM
REM
REM
REM
REM ./C.cell (11c1c37f851c82e70ff6c80c92926a4b)
REM AIRSS Version 0.9.1 bugfix July 2018 build 013d7b7c2542+ Fri, 06 Jul 2018 19:26:36 +0100
REM compiler GCC version 9.3.0
REM options -cpp -mtune=generic -march=x86-64 -g -O0
REM seed 1254875844 -97303540 -891482173 1248757786 -1728721670 -1589589250 1845675219 -570800471 -80395335 22415829 1305528706 6493061 -882038407 -1206678050 -578618254 -1205306589 388408908 1236171980 1422087971 756624257 512539193 1570510621 -1362661667 158326341 109005436 483885887 -1356742298 -574145709 -1867238350 -1922852500 549918939 479499605 -1038088057
REM
CELL 1.54180   50.00000   50.00000   50.00000   90.00000   90.00000   90.00000
LATT -1
SFAC C  
C      1  0.4874600000000  0.5311480000000  0.5358610000000 1.0
C      1  0.4664700000000  0.5043760000000  0.4735170000000 1.0
C      1  0.5484030000000  0.4979740000000  0.4736110000000 1.0
C      1  0.4645880000000  0.5395690000000  0.5286820000000 1.0
C      1  0.5065470000000  0.4660500000000  0.5229860000000 1.0
C      1  0.4841710000000  0.5231650000000  0.4614470000000 1.0
C      1  0.4914600000000  0.4839780000000  0.5410740000000 1.0
C      1  0.5448030000000  0.5258700000000  0.5123710000000 1.0
C      1  0.4473520000000  0.5182630000000  0.5178140000000 1.0
C      1  0.5315030000000  0.4793280000000  0.5157440000000 1.0
C      1  0.4953640000000  0.4495490000000  0.5044880000000 1.0
C      1  0.5307610000000  0.5066700000000  0.5256680000000 1.0
C      1  0.4415270000000  0.4957550000000  0.5374780000000 1.0
C      1  0.5048900000000  0.5101420000000  0.5397210000000 1.0
C      1  0.4639300000000  0.4846480000000  0.5417910000000 1.0
C      1  0.5309040000000  0.4888530000000  0.4526990000000 1.0
C      1  0.5068250000000  0.5340880000000  0.4630520000000 1.0
C      1  0.4449660000000  0.5136110000000  0.4909580000000 1.0
C      1  0.5310840000000  0.5416040000000  0.4686210000000 1.0
C      1  0.4946820000000  0.4615330000000  0.4780050000000 1.0
C      1  0.5410710000000  0.4749450000000  0.4897740000000 1.0
C      1  0.4739950000000  0.4777060000000  0.4709950000000 1.0
C      1  0.5214520000000  0.4671610000000  0.4690920000000 1.0
C      1  0.5457930000000  0.5240130000000  0.4845520000000 1.0
END
