TITL C-56107-9731-10 1385.9052915878 125000 -697.685110824828 0 0 101 (C1) n - 1
REM
REM in /rds/project/t2_vol4/rds-t2-cs072/BORA/CARBON/from-Arr/AIRSS/Generating-Clusters/GAP-ML-2020/Only-C1/SD-CG/HFTN-CG
REM
REM
REM
REM
REM
REM ./C.cell (11c1c37f851c82e70ff6c80c92926a4b)
REM AIRSS Version 0.9.1 bugfix July 2018 build 013d7b7c2542+ Fri, 06 Jul 2018 19:26:36 +0100
REM compiler GCC version 9.3.0
REM options -cpp -mtune=generic -march=x86-64 -g -O0
REM seed 479133792 -1290859710 -1037880983 -1042757464 514385480 1622148059 759872889 12611793 52064876 99983646 1438624165 -1260208300 -2062013919 1655755699 -1697582251 752703384 1884772835 -543718865 18518692 -1324892771 -1588082966 -911055450 -637423161 -1172168633 810307054 -325181683 -1508122205 -733438814 1093152581 1248349272 -103330835 -997241523 690991712
REM
CELL 1.54180   50.00000   50.00000   50.00000   90.00000   90.00000   90.00000
LATT -1
SFAC C  
C      1  0.5133820000000  0.4081930000000  0.5044940000000 1.0
C      1  0.5482360000000  0.5372380000000  0.5123490000000 1.0
C      1  0.5027620000000  0.4809330000000  0.4210050000000 1.0
C      1  0.5639140000000  0.4631090000000  0.4610340000000 1.0
C      1  0.4466640000000  0.5550240000000  0.4689930000000 1.0
C      1  0.4901940000000  0.5540790000000  0.4120190000000 1.0
C      1  0.4591500000000  0.4493280000000  0.5683630000000 1.0
C      1  0.5136290000000  0.5784320000000  0.4868050000000 1.0
C      1  0.4592510000000  0.5320340000000  0.5636460000000 1.0
C      1  0.4916160000000  0.5758100000000  0.5253760000000 1.0
C      1  0.5022190000000  0.5064140000000  0.5839450000000 1.0
C      1  0.4658720000000  0.4534470000000  0.4394470000000 1.0
C      1  0.4823220000000  0.5490770000000  0.5705970000000 1.0
C      1  0.4476960000000  0.5629250000000  0.4969530000000 1.0
C      1  0.4923690000000  0.5265910000000  0.4713840000000 1.0
C      1  0.4305110000000  0.4839800000000  0.4458280000000 1.0
C      1  0.4862280000000  0.4009000000000  0.5142550000000 1.0
C      1  0.5246110000000  0.5403750000000  0.5501250000000 1.0
C      1  0.5691330000000  0.5284670000000  0.5602420000000 1.0
C      1  0.5131820000000  0.5017790000000  0.5224560000000 1.0
C      1  0.4683230000000  0.4086060000000  0.4956720000000 1.0
C      1  0.4779260000000  0.4300010000000  0.5573990000000 1.0
C      1  0.5446340000000  0.4813590000000  0.5648050000000 1.0
C      1  0.4772700000000  0.5678130000000  0.4300440000000 1.0
C      1  0.5613530000000  0.5781040000000  0.4902810000000 1.0
C      1  0.4730740000000  0.5151670000000  0.5408600000000 1.0
C      1  0.5382950000000  0.5149110000000  0.4293030000000 1.0
C      1  0.4856600000000  0.5187750000000  0.4446870000000 1.0
C      1  0.5178500000000  0.5900330000000  0.5130590000000 1.0
C      1  0.5198970000000  0.5316750000000  0.4750500000000 1.0
C      1  0.4509220000000  0.4931570000000  0.4281750000000 1.0
C      1  0.4241540000000  0.4594460000000  0.5272540000000 1.0
C      1  0.5723880000000  0.4870210000000  0.5239180000000 1.0
C      1  0.5485430000000  0.4460330000000  0.4768990000000 1.0
C      1  0.4804950000000  0.5167370000000  0.4956150000000 1.0
C      1  0.5337990000000  0.5047080000000  0.4805870000000 1.0
C      1  0.4762990000000  0.4667860000000  0.5848540000000 1.0
C      1  0.4923920000000  0.5250840000000  0.5198000000000 1.0
C      1  0.4866410000000  0.4460650000000  0.4592860000000 1.0
C      1  0.5772310000000  0.5074250000000  0.4523440000000 1.0
C      1  0.5227900000000  0.4600150000000  0.4288690000000 1.0
C      1  0.5242030000000  0.5499130000000  0.4978440000000 1.0
C      1  0.5602400000000  0.5192120000000  0.4917290000000 1.0
C      1  0.5465060000000  0.5839610000000  0.5163770000000 1.0
C      1  0.4931570000000  0.4891900000000  0.5406430000000 1.0
C      1  0.4694090000000  0.5697770000000  0.4563580000000 1.0
C      1  0.5656630000000  0.5331640000000  0.4649630000000 1.0
C      1  0.5791300000000  0.4859000000000  0.4714200000000 1.0
C      1  0.5701080000000  0.5611250000000  0.4739930000000 1.0
C      1  0.4522430000000  0.5059550000000  0.5752080000000 1.0
C      1  0.4376140000000  0.5462270000000  0.5180760000000 1.0
C      1  0.5235810000000  0.4049210000000  0.4802100000000 1.0
C      1  0.5571120000000  0.4637040000000  0.5236510000000 1.0
C      1  0.4651010000000  0.4803880000000  0.4795830000000 1.0
C      1  0.5181170000000  0.4842910000000  0.4955170000000 1.0
C      1  0.4285810000000  0.5188450000000  0.5140710000000 1.0
C      1  0.4773910000000  0.4220950000000  0.5306920000000 1.0
C      1  0.5367010000000  0.4570970000000  0.5022720000000 1.0
C      1  0.5302040000000  0.4964100000000  0.4528130000000 1.0
C      1  0.4713330000000  0.4361410000000  0.4858450000000 1.0
C      1  0.5073230000000  0.5498030000000  0.5242630000000 1.0
C      1  0.4808840000000  0.4720700000000  0.5221920000000 1.0
C      1  0.4721610000000  0.5777120000000  0.5022220000000 1.0
C      1  0.4932770000000  0.4754880000000  0.4722110000000 1.0
C      1  0.4383250000000  0.5292490000000  0.4578010000000 1.0
C      1  0.5174820000000  0.4368860000000  0.5158300000000 1.0
C      1  0.5207700000000  0.4838440000000  0.5807260000000 1.0
C      1  0.4505770000000  0.5525110000000  0.5434230000000 1.0
C      1  0.5479630000000  0.4732180000000  0.4383420000000 1.0
C      1  0.5593190000000  0.5033280000000  0.5479500000000 1.0
C      1  0.5043220000000  0.4601780000000  0.5826280000000 1.0
C      1  0.4397280000000  0.4898740000000  0.5543300000000 1.0
C      1  0.4865030000000  0.5800520000000  0.4784480000000 1.0
C      1  0.5398120000000  0.5365670000000  0.4506200000000 1.0
C      1  0.4248820000000  0.4683160000000  0.5013690000000 1.0
C      1  0.4483260000000  0.5031460000000  0.5284220000000 1.0
C      1  0.5245020000000  0.4393190000000  0.5450250000000 1.0
C      1  0.4404050000000  0.4584060000000  0.4528460000000 1.0
C      1  0.5541850000000  0.5511480000000  0.5557930000000 1.0
C      1  0.4239950000000  0.5047920000000  0.4659040000000 1.0
C      1  0.5311220000000  0.4266430000000  0.4644720000000 1.0
C      1  0.4198720000000  0.4987440000000  0.4934120000000 1.0
C      1  0.4671970000000  0.4912270000000  0.5047800000000 1.0
C      1  0.4458180000000  0.4559460000000  0.4810320000000 1.0
C      1  0.5129580000000  0.4400240000000  0.4465970000000 1.0
C      1  0.4731720000000  0.4744620000000  0.4221970000000 1.0
C      1  0.5059770000000  0.5335430000000  0.5730980000000 1.0
C      1  0.4756120000000  0.5677800000000  0.5490770000000 1.0
C      1  0.5624840000000  0.4983170000000  0.4292490000000 1.0
C      1  0.5050710000000  0.4381480000000  0.5650170000000 1.0
C      1  0.5563520000000  0.5612910000000  0.5294230000000 1.0
C      1  0.4974990000000  0.5282410000000  0.4189780000000 1.0
C      1  0.5780660000000  0.4972560000000  0.4982080000000 1.0
C      1  0.4569370000000  0.5181740000000  0.4391750000000 1.0
C      1  0.5364590000000  0.5180450000000  0.5329890000000 1.0
C      1  0.4753910000000  0.4947800000000  0.5870060000000 1.0
C      1  0.5157640000000  0.5082590000000  0.4119910000000 1.0
C      1  0.4362450000000  0.4617030000000  0.5529810000000 1.0
C      1  0.5454240000000  0.4582060000000  0.5487290000000 1.0
C      1  0.5012510000000  0.4927720000000  0.4493230000000 1.0
C      1  0.4873170000000  0.4451610000000  0.5125780000000 1.0
END
