TITL C-56125-9744-5 -585.226551034551 125000 -686.82358118909 0 0 97 (C1) n - 1
REM
REM in /rds/project/t2_vol4/rds-t2-cs072/BORA/CARBON/from-Arr/AIRSS/Generating-Clusters/GAP-ML-2020/Only-C1/SD-CG/HFTN-CG
REM
REM
REM
REM
REM
REM ./C.cell (11c1c37f851c82e70ff6c80c92926a4b)
REM AIRSS Version 0.9.1 bugfix July 2018 build 013d7b7c2542+ Fri, 06 Jul 2018 19:26:36 +0100
REM compiler GCC version 9.3.0
REM options -cpp -mtune=generic -march=x86-64 -g -O0
REM seed 879290337 -1007083954 621069076 -1920809572 676981897 -35645091 2145526132 -271002960 1288836344 -2078307215 1172726037 1449052570 73072103 1110295261 -1824900273 362058576 1752280725 1835057865 516215956 -1682869211 239196448 -511874995 814411597 -1268079042 1327942627 -1169540988 455120321 1603879878 544143136 -1092298038 1814101335 -1800532936 -485193406
REM
CELL 1.54180   50.00000   50.00000   50.00000   90.00000   90.00000   90.00000
LATT -1
SFAC C  
C      1  0.5451870000000  0.5591840000000  0.5291550000000 1.0
C      1  0.4475510000000  0.5200930000000  0.5667930000000 1.0
C      1  0.4781270000000  0.4611910000000  0.4244880000000 1.0
C      1  0.4339990000000  0.5543200000000  0.4622180000000 1.0
C      1  0.4828230000000  0.4257970000000  0.4567040000000 1.0
C      1  0.5954410000000  0.4866500000000  0.4463890000000 1.0
C      1  0.4426050000000  0.5441600000000  0.5519520000000 1.0
C      1  0.5013610000000  0.4730650000000  0.5767520000000 1.0
C      1  0.4744110000000  0.4802820000000  0.5762790000000 1.0
C      1  0.5553780000000  0.5315160000000  0.4890240000000 1.0
C      1  0.4602840000000  0.5255590000000  0.4802990000000 1.0
C      1  0.5024720000000  0.4894930000000  0.5235500000000 1.0
C      1  0.4349760000000  0.4745340000000  0.5505590000000 1.0
C      1  0.6014700000000  0.5142430000000  0.5334910000000 1.0
C      1  0.4783290000000  0.5075260000000  0.5221470000000 1.0
C      1  0.5361920000000  0.4203270000000  0.5193980000000 1.0
C      1  0.5641660000000  0.5423400000000  0.5159410000000 1.0
C      1  0.5071510000000  0.4173290000000  0.5237560000000 1.0
C      1  0.4709850000000  0.5777760000000  0.4792050000000 1.0
C      1  0.5714140000000  0.5030990000000  0.4453620000000 1.0
C      1  0.5262650000000  0.5032670000000  0.5158770000000 1.0
C      1  0.4291190000000  0.5008970000000  0.5560130000000 1.0
C      1  0.5630010000000  0.4647810000000  0.5318900000000 1.0
C      1  0.4615530000000  0.5648450000000  0.5458300000000 1.0
C      1  0.4359920000000  0.4830690000000  0.4626230000000 1.0
C      1  0.4995710000000  0.5204880000000  0.5759390000000 1.0
C      1  0.4499100000000  0.4990840000000  0.4419620000000 1.0
C      1  0.5679270000000  0.5303150000000  0.4596940000000 1.0
C      1  0.5117660000000  0.5263500000000  0.5119930000000 1.0
C      1  0.5432870000000  0.4189410000000  0.4912860000000 1.0
C      1  0.5368900000000  0.5460220000000  0.5542310000000 1.0
C      1  0.5317230000000  0.4662920000000  0.4286890000000 1.0
C      1  0.5269380000000  0.5694320000000  0.5104260000000 1.0
C      1  0.5544660000000  0.5237730000000  0.5573930000000 1.0
C      1  0.4874250000000  0.4880650000000  0.4810650000000 1.0
C      1  0.5115700000000  0.4226960000000  0.4539690000000 1.0
C      1  0.5317330000000  0.4601030000000  0.4730380000000 1.0
C      1  0.5749860000000  0.5256770000000  0.5362690000000 1.0
C      1  0.4789010000000  0.5448060000000  0.4913330000000 1.0
C      1  0.5487460000000  0.4396650000000  0.5349610000000 1.0
C      1  0.5697830000000  0.4806080000000  0.5062400000000 1.0
C      1  0.4582290000000  0.4628250000000  0.5601860000000 1.0
C      1  0.4970220000000  0.4101320000000  0.4974090000000 1.0
C      1  0.5778040000000  0.4597500000000  0.4843220000000 1.0
C      1  0.5305890000000  0.5503940000000  0.4843040000000 1.0
C      1  0.4471200000000  0.4553520000000  0.4653110000000 1.0
C      1  0.5060500000000  0.4723710000000  0.4194210000000 1.0
C      1  0.5172770000000  0.4977240000000  0.5778660000000 1.0
C      1  0.4663920000000  0.4433450000000  0.5405360000000 1.0
C      1  0.4780400000000  0.5708790000000  0.4512240000000 1.0
C      1  0.4721590000000  0.5092990000000  0.5770420000000 1.0
C      1  0.4977870000000  0.4720010000000  0.5021540000000 1.0
C      1  0.5092810000000  0.5446660000000  0.5623620000000 1.0
C      1  0.4665290000000  0.4868790000000  0.4228000000000 1.0
C      1  0.5906060000000  0.4958780000000  0.5194920000000 1.0
C      1  0.5963880000000  0.4685340000000  0.4650440000000 1.0
C      1  0.4563700000000  0.5517880000000  0.4445720000000 1.0
C      1  0.4954610000000  0.5180670000000  0.4410050000000 1.0
C      1  0.4292790000000  0.5306170000000  0.4817380000000 1.0
C      1  0.5312080000000  0.5583690000000  0.4544290000000 1.0
C      1  0.4677170000000  0.5026080000000  0.4956930000000 1.0
C      1  0.4293710000000  0.4676200000000  0.5235420000000 1.0
C      1  0.4933550000000  0.4983810000000  0.4194120000000 1.0
C      1  0.5467230000000  0.4889590000000  0.4429430000000 1.0
C      1  0.4227330000000  0.5469650000000  0.5062260000000 1.0
C      1  0.4347440000000  0.5721890000000  0.5052460000000 1.0
C      1  0.4650970000000  0.5236660000000  0.4492420000000 1.0
C      1  0.5291040000000  0.4449300000000  0.4475430000000 1.0
C      1  0.5525580000000  0.4746290000000  0.5570880000000 1.0
C      1  0.5063730000000  0.5325640000000  0.4846000000000 1.0
C      1  0.5362310000000  0.4508960000000  0.5581490000000 1.0
C      1  0.4518820000000  0.4381590000000  0.4895270000000 1.0
C      1  0.4737410000000  0.4201930000000  0.4832930000000 1.0
C      1  0.4422680000000  0.5751960000000  0.4785740000000 1.0
C      1  0.4906580000000  0.5583790000000  0.5432330000000 1.0
C      1  0.5111620000000  0.5430780000000  0.4359690000000 1.0
C      1  0.4558890000000  0.5796720000000  0.5224330000000 1.0
C      1  0.4928710000000  0.4328820000000  0.5437900000000 1.0
C      1  0.5088800000000  0.4490670000000  0.5627690000000 1.0
C      1  0.4180240000000  0.4914130000000  0.5101540000000 1.0
C      1  0.5469290000000  0.5010630000000  0.4950470000000 1.0
C      1  0.5020830000000  0.5771510000000  0.5207900000000 1.0
C      1  0.4474630000000  0.4460760000000  0.5170540000000 1.0
C      1  0.4852970000000  0.5358300000000  0.5204220000000 1.0
C      1  0.5193020000000  0.4102990000000  0.4784020000000 1.0
C      1  0.4223180000000  0.5000720000000  0.4823830000000 1.0
C      1  0.4792750000000  0.5861540000000  0.5067560000000 1.0
C      1  0.4163790000000  0.5100450000000  0.5322120000000 1.0
C      1  0.4666630000000  0.4461950000000  0.4457890000000 1.0
C      1  0.4221680000000  0.5373930000000  0.5321350000000 1.0
C      1  0.5123710000000  0.4530490000000  0.4925370000000 1.0
C      1  0.5555250000000  0.4425620000000  0.4786810000000 1.0
C      1  0.5035920000000  0.5682680000000  0.4405970000000 1.0
C      1  0.5333340000000  0.4907230000000  0.4689460000000 1.0
C      1  0.5573720000000  0.5518060000000  0.4466090000000 1.0
C      1  0.5442510000000  0.4991370000000  0.5683890000000 1.0
C      1  0.5068260000000  0.5061980000000  0.4684260000000 1.0
END
