TITL C-56118-9744-3 7.71420697625368 125000 -125.770654778208 0 0 20 (C1) n - 1
REM
REM in /rds/project/t2_vol4/rds-t2-cs072/BORA/CARBON/from-Arr/AIRSS/Generating-Clusters/GAP-ML-2020/Only-C1/SD-CG/HFTN-CG
REM
REM
REM
REM
REM
REM ./C.cell (11c1c37f851c82e70ff6c80c92926a4b)
REM AIRSS Version 0.9.1 bugfix July 2018 build 013d7b7c2542+ Fri, 06 Jul 2018 19:26:36 +0100
REM compiler GCC version 9.3.0
REM options -cpp -mtune=generic -march=x86-64 -g -O0
REM seed -1137602735 470446162 -1943475349 -1727481157 1584863663 -714667410 -978567342 -819396122 -1391274092 -1056838205 1596672945 1955399425 1854766190 1639039288 1875919870 1038344285 45082987 716046194 -759590813 1792857232 2109092533 -651007086 244212930 2093092446 -920090181 -577221980 -1893485234 499590045 1362817019 -1530143034 -1029878340 564396047 2090636740
REM
CELL 1.54180   50.00000   50.00000   50.00000   90.00000   90.00000   90.00000
LATT -1
SFAC C  
C      1  0.5207660000000  0.5054690000000  0.5360060000000 1.0
C      1  0.4773660000000  0.4810810000000  0.5368440000000 1.0
C      1  0.5008820000000  0.5145270000000  0.4733310000000 1.0
C      1  0.4596220000000  0.5045650000000  0.5280920000000 1.0
C      1  0.5015340000000  0.4893730000000  0.5435530000000 1.0
C      1  0.5480480000000  0.5329210000000  0.5032560000000 1.0
C      1  0.4821790000000  0.4941000000000  0.4835900000000 1.0
C      1  0.4567240000000  0.4971210000000  0.4995770000000 1.0
C      1  0.4696810000000  0.4610290000000  0.5129570000000 1.0
C      1  0.4885440000000  0.4658100000000  0.4882230000000 1.0
C      1  0.5607520000000  0.5358150000000  0.4810940000000 1.0
C      1  0.5081470000000  0.4510960000000  0.4754250000000 1.0
C      1  0.4977360000000  0.5404330000000  0.4830210000000 1.0
C      1  0.5397160000000  0.4860710000000  0.4592470000000 1.0
C      1  0.5250300000000  0.5070350000000  0.4626820000000 1.0
C      1  0.5371060000000  0.5205360000000  0.5233610000000 1.0
C      1  0.5291260000000  0.4620060000000  0.4646630000000 1.0
C      1  0.5047300000000  0.5591340000000  0.4979230000000 1.0
C      1  0.4465940000000  0.5212040000000  0.5435560000000 1.0
C      1  0.4457180000000  0.4706730000000  0.5035990000000 1.0
END
