TITL C-56115-9728-4 -169.664956491532 125000 -939.978234118182 0 0 135 (C1) n - 1
REM
REM in /rds/project/t2_vol4/rds-t2-cs072/BORA/CARBON/from-Arr/AIRSS/Generating-Clusters/GAP-ML-2020/Only-C1/SD-CG/HFTN-CG
REM
REM
REM
REM
REM
REM ./C.cell (11c1c37f851c82e70ff6c80c92926a4b)
REM AIRSS Version 0.9.1 bugfix July 2018 build 013d7b7c2542+ Fri, 06 Jul 2018 19:26:36 +0100
REM compiler GCC version 9.3.0
REM options -cpp -mtune=generic -march=x86-64 -g -O0
REM seed 1185608012 -37211822 -1374342803 1893541220 -1296571861 -1425188980 213991089 511565661 -1690776542 -176782942 -272914996 -572175816 1481921200 -731879055 635072469 1946980437 854401591 -1858079498 -56311497 1622799389 113913931 1534776894 -2027871036 379456122 -1509907640 1862999214 2007711420 -1273616056 43248487 1195715967 1341601247 -797296215 1405360006
REM
CELL 1.54180   50.00000   50.00000   50.00000   90.00000   90.00000   90.00000
LATT -1
SFAC C  
C      1  0.5682290000000  0.4304250000000  0.4894630000000 1.0
C      1  0.4686190000000  0.5274980000000  0.4545190000000 1.0
C      1  0.4827350000000  0.5038500000000  0.4398750000000 1.0
C      1  0.5352240000000  0.5285450000000  0.5941730000000 1.0
C      1  0.4827320000000  0.5542850000000  0.4643200000000 1.0
C      1  0.5070280000000  0.5081910000000  0.4190920000000 1.0
C      1  0.5182130000000  0.5452400000000  0.5815510000000 1.0
C      1  0.5223490000000  0.5536730000000  0.4266860000000 1.0
C      1  0.4482890000000  0.5236310000000  0.5782720000000 1.0
C      1  0.4568080000000  0.5587130000000  0.4286170000000 1.0
C      1  0.4194550000000  0.4852340000000  0.5581380000000 1.0
C      1  0.5759750000000  0.5050450000000  0.4960310000000 1.0
C      1  0.4630430000000  0.5169620000000  0.4811180000000 1.0
C      1  0.5081470000000  0.5109850000000  0.4714860000000 1.0
C      1  0.4787620000000  0.5951950000000  0.5031710000000 1.0
C      1  0.4387870000000  0.5023530000000  0.4916140000000 1.0
C      1  0.4033640000000  0.4655080000000  0.5197240000000 1.0
C      1  0.4583480000000  0.5068560000000  0.5435900000000 1.0
C      1  0.4512940000000  0.4314530000000  0.4747100000000 1.0
C      1  0.5586910000000  0.4533220000000  0.4247180000000 1.0
C      1  0.4798850000000  0.5697650000000  0.5662640000000 1.0
C      1  0.5103260000000  0.5616820000000  0.4536070000000 1.0
C      1  0.5017360000000  0.4432140000000  0.5758410000000 1.0
C      1  0.5594060000000  0.4826990000000  0.5844860000000 1.0
C      1  0.5322330000000  0.5264710000000  0.5121300000000 1.0
C      1  0.5639570000000  0.4334200000000  0.4609980000000 1.0
C      1  0.5418180000000  0.5044790000000  0.5314360000000 1.0
C      1  0.5745240000000  0.5057460000000  0.5255100000000 1.0
C      1  0.5547240000000  0.4190070000000  0.5132180000000 1.0
C      1  0.4665410000000  0.4786410000000  0.5805590000000 1.0
C      1  0.5444110000000  0.5352090000000  0.5370690000000 1.0
C      1  0.5256140000000  0.4647230000000  0.5019990000000 1.0
C      1  0.5224970000000  0.5807350000000  0.4727120000000 1.0
C      1  0.5127710000000  0.4884240000000  0.5936000000000 1.0
C      1  0.4357100000000  0.5083850000000  0.4271590000000 1.0
C      1  0.5419130000000  0.4741630000000  0.4159660000000 1.0
C      1  0.5114930000000  0.4188800000000  0.5348390000000 1.0
C      1  0.5203410000000  0.5354590000000  0.4607980000000 1.0
C      1  0.5268020000000  0.5876570000000  0.5188340000000 1.0
C      1  0.5279370000000  0.4075530000000  0.5141300000000 1.0
C      1  0.4467880000000  0.5350070000000  0.5503410000000 1.0
C      1  0.4221960000000  0.5438460000000  0.5109380000000 1.0
C      1  0.5430340000000  0.4328600000000  0.4388070000000 1.0
C      1  0.4980440000000  0.4232180000000  0.4754790000000 1.0
C      1  0.5807920000000  0.4857450000000  0.5681470000000 1.0
C      1  0.4135100000000  0.4549240000000  0.4961580000000 1.0
C      1  0.4207520000000  0.5332290000000  0.5369610000000 1.0
C      1  0.5068830000000  0.5840120000000  0.4971230000000 1.0
C      1  0.4630090000000  0.4401770000000  0.4477070000000 1.0
C      1  0.4208440000000  0.5266230000000  0.4880800000000 1.0
C      1  0.4840020000000  0.4706300000000  0.4849980000000 1.0
C      1  0.4917160000000  0.4313250000000  0.4470560000000 1.0
C      1  0.5182800000000  0.4612890000000  0.5890250000000 1.0
C      1  0.4660790000000  0.5687250000000  0.5133110000000 1.0
C      1  0.5020890000000  0.5396590000000  0.4122130000000 1.0
C      1  0.5228450000000  0.5500140000000  0.5525820000000 1.0
C      1  0.4956020000000  0.5361340000000  0.5397280000000 1.0
C      1  0.4150460000000  0.4593540000000  0.5452910000000 1.0
C      1  0.5722070000000  0.4784560000000  0.4841370000000 1.0
C      1  0.5773960000000  0.5791680000000  0.5173980000000 1.0
C      1  0.5403810000000  0.4738010000000  0.4799620000000 1.0
C      1  0.5253580000000  0.4879170000000  0.4600510000000 1.0
C      1  0.5201350000000  0.4284430000000  0.5592990000000 1.0
C      1  0.4693940000000  0.5548760000000  0.5420490000000 1.0
C      1  0.4782620000000  0.5539000000000  0.4126480000000 1.0
C      1  0.4600530000000  0.5734660000000  0.4563680000000 1.0
C      1  0.4889590000000  0.4349810000000  0.5227170000000 1.0
C      1  0.4891940000000  0.5150760000000  0.4938330000000 1.0
C      1  0.5811020000000  0.4542920000000  0.4994260000000 1.0
C      1  0.5919740000000  0.5211230000000  0.4760790000000 1.0
C      1  0.5171960000000  0.4616260000000  0.4111710000000 1.0
C      1  0.4425150000000  0.5343810000000  0.4401000000000 1.0
C      1  0.4394630000000  0.4216110000000  0.5206700000000 1.0
C      1  0.4392460000000  0.5649510000000  0.5020180000000 1.0
C      1  0.4740970000000  0.5256760000000  0.5884230000000 1.0
C      1  0.5383160000000  0.5017290000000  0.5938490000000 1.0
C      1  0.4677670000000  0.4148000000000  0.5171090000000 1.0
C      1  0.4088170000000  0.5069880000000  0.5412300000000 1.0
C      1  0.5008470000000  0.4480560000000  0.4956440000000 1.0
C      1  0.4787750000000  0.4582820000000  0.5368710000000 1.0
C      1  0.4648550000000  0.6139760000000  0.4870260000000 1.0
C      1  0.5850910000000  0.5530780000000  0.5123770000000 1.0
C      1  0.4322920000000  0.4350210000000  0.5461570000000 1.0
C      1  0.5742960000000  0.5346400000000  0.5318360000000 1.0
C      1  0.4970520000000  0.5892860000000  0.5577970000000 1.0
C      1  0.4877250000000  0.5072000000000  0.5499940000000 1.0
C      1  0.4705790000000  0.4117950000000  0.4808470000000 1.0
C      1  0.4892820000000  0.5495990000000  0.5852660000000 1.0
C      1  0.5146890000000  0.4378280000000  0.4302030000000 1.0
C      1  0.5029750000000  0.5344900000000  0.5108020000000 1.0
C      1  0.4735630000000  0.4518360000000  0.5685050000000 1.0
C      1  0.4264450000000  0.4732510000000  0.4499920000000 1.0
C      1  0.4546220000000  0.4646920000000  0.5186670000000 1.0
C      1  0.5826550000000  0.5089460000000  0.4508200000000 1.0
C      1  0.4827920000000  0.4906390000000  0.5076980000000 1.0
C      1  0.5003070000000  0.4830430000000  0.4020650000000 1.0
C      1  0.5351880000000  0.4988940000000  0.4316740000000 1.0
C      1  0.4377680000000  0.5653580000000  0.4735610000000 1.0
C      1  0.5511420000000  0.5478590000000  0.4242100000000 1.0
C      1  0.4266270000000  0.5424200000000  0.4640540000000 1.0
C      1  0.4276100000000  0.4303330000000  0.4965140000000 1.0
C      1  0.4737100000000  0.4823390000000  0.3977590000000 1.0
C      1  0.4445850000000  0.4939280000000  0.5694650000000 1.0
C      1  0.5885680000000  0.5478150000000  0.4834100000000 1.0
C      1  0.4307910000000  0.4742520000000  0.4798340000000 1.0
C      1  0.5821670000000  0.4809530000000  0.4570070000000 1.0
C      1  0.4140130000000  0.4932900000000  0.4335900000000 1.0
C      1  0.5458790000000  0.4574310000000  0.5811610000000 1.0
C      1  0.4665520000000  0.5993320000000  0.4653500000000 1.0
C      1  0.5664020000000  0.5594860000000  0.4659220000000 1.0
C      1  0.4566280000000  0.4589030000000  0.4871750000000 1.0
C      1  0.5695960000000  0.5635100000000  0.4373250000000 1.0
C      1  0.5780660000000  0.4556510000000  0.4457140000000 1.0
C      1  0.4600940000000  0.4886150000000  0.4229910000000 1.0
C      1  0.5483200000000  0.5337660000000  0.4647700000000 1.0
C      1  0.4539380000000  0.4932740000000  0.5171660000000 1.0
C      1  0.4875980000000  0.4991640000000  0.5825540000000 1.0
C      1  0.5087330000000  0.4008540000000  0.4945180000000 1.0
C      1  0.4504590000000  0.4340860000000  0.5660670000000 1.0
C      1  0.5570780000000  0.5198720000000  0.4384640000000 1.0
C      1  0.4960890000000  0.4859020000000  0.4602310000000 1.0
C      1  0.5195490000000  0.5799250000000  0.5452850000000 1.0
C      1  0.4805330000000  0.3950970000000  0.5008450000000 1.0
C      1  0.4970730000000  0.4838760000000  0.5333430000000 1.0
C      1  0.3988580000000  0.4930120000000  0.5203060000000 1.0
C      1  0.5493260000000  0.5795270000000  0.4794110000000 1.0
C      1  0.5475000000000  0.4372010000000  0.5608320000000 1.0
C      1  0.4497050000000  0.4634590000000  0.4369190000000 1.0
C      1  0.5845800000000  0.4818940000000  0.5412920000000 1.0
C      1  0.4894240000000  0.5570160000000  0.4951390000000 1.0
C      1  0.5529030000000  0.5854660000000  0.5072950000000 1.0
C      1  0.5635580000000  0.4345200000000  0.5368110000000 1.0
C      1  0.5251830000000  0.4804990000000  0.5267080000000 1.0
C      1  0.5501770000000  0.5222390000000  0.4905900000000 1.0
C      1  0.5811140000000  0.4560160000000  0.5276670000000 1.0
END
