TITL C-56116-9796-4 188.49465217024 125000 -585.139439498115 0 0 83 (C1) n - 1
REM
REM in /rds/project/t2_vol4/rds-t2-cs072/BORA/CARBON/from-Arr/AIRSS/Generating-Clusters/GAP-ML-2020/Only-C1/SD-CG/HFTN-CG
REM
REM
REM
REM
REM
REM ./C.cell (11c1c37f851c82e70ff6c80c92926a4b)
REM AIRSS Version 0.9.1 bugfix July 2018 build 013d7b7c2542+ Fri, 06 Jul 2018 19:26:36 +0100
REM compiler GCC version 9.3.0
REM options -cpp -mtune=generic -march=x86-64 -g -O0
REM seed -267067133 544095491 1932158722 -401014857 -886582862 1454403008 1115346256 1975263077 -980344439 2145926138 2092430210 -1552446231 1252750180 273180889 1534758160 1934522782 -1879059817 -1213794986 1677889458 -1146566249 -1764218749 -1943996721 -431479881 -2011676972 56743229 -1310785976 1639160317 -121268190 -1309724718 -138766928 1286663957 -1641325061 573889422
REM
CELL 1.54180   50.00000   50.00000   50.00000   90.00000   90.00000   90.00000
LATT -1
SFAC C  
C      1  0.5737040000000  0.4536510000000  0.4885810000000 1.0
C      1  0.4376640000000  0.5041000000000  0.4390430000000 1.0
C      1  0.4757650000000  0.5379670000000  0.4411480000000 1.0
C      1  0.4658970000000  0.5724200000000  0.4811360000000 1.0
C      1  0.4725110000000  0.4350100000000  0.4692400000000 1.0
C      1  0.4448420000000  0.5833350000000  0.4957290000000 1.0
C      1  0.4688820000000  0.5200220000000  0.5192200000000 1.0
C      1  0.4729370000000  0.5324350000000  0.5606750000000 1.0
C      1  0.4632750000000  0.5210770000000  0.4912740000000 1.0
C      1  0.4724000000000  0.5019020000000  0.4753610000000 1.0
C      1  0.5443170000000  0.5365840000000  0.5482660000000 1.0
C      1  0.4768650000000  0.4391290000000  0.5449500000000 1.0
C      1  0.5494720000000  0.4737040000000  0.4511660000000 1.0
C      1  0.5797380000000  0.5010250000000  0.4718400000000 1.0
C      1  0.4691660000000  0.4803650000000  0.5663620000000 1.0
C      1  0.4943970000000  0.5027420000000  0.5268790000000 1.0
C      1  0.4171280000000  0.5009530000000  0.4802620000000 1.0
C      1  0.5159770000000  0.5663540000000  0.4889600000000 1.0
C      1  0.4920060000000  0.4864480000000  0.4854100000000 1.0
C      1  0.4625090000000  0.5147420000000  0.4290910000000 1.0
C      1  0.5593740000000  0.5500920000000  0.4945320000000 1.0
C      1  0.5260110000000  0.4519500000000  0.4890450000000 1.0
C      1  0.5223950000000  0.5228000000000  0.5616520000000 1.0
C      1  0.4459630000000  0.5023890000000  0.5336680000000 1.0
C      1  0.5445360000000  0.5014520000000  0.4420330000000 1.0
C      1  0.5011360000000  0.4487920000000  0.5568690000000 1.0
C      1  0.4140470000000  0.5209790000000  0.5004210000000 1.0
C      1  0.5141300000000  0.4948690000000  0.5527840000000 1.0
C      1  0.4284220000000  0.5650280000000  0.5076230000000 1.0
C      1  0.5514800000000  0.5420570000000  0.4676670000000 1.0
C      1  0.4582840000000  0.4595640000000  0.5482360000000 1.0
C      1  0.5213980000000  0.5448020000000  0.4679530000000 1.0
C      1  0.5621540000000  0.5181950000000  0.4569810000000 1.0
C      1  0.5092110000000  0.5241480000000  0.5153210000000 1.0
C      1  0.4579510000000  0.5547130000000  0.4576940000000 1.0
C      1  0.4437370000000  0.4593760000000  0.4986330000000 1.0
C      1  0.5063390000000  0.4598690000000  0.4411900000000 1.0
C      1  0.4538280000000  0.4739230000000  0.5227280000000 1.0
C      1  0.4971050000000  0.4750070000000  0.5670000000000 1.0
C      1  0.5064320000000  0.5624640000000  0.5446930000000 1.0
C      1  0.4618960000000  0.4674200000000  0.4359560000000 1.0
C      1  0.5775450000000  0.4973130000000  0.5412140000000 1.0
C      1  0.5381870000000  0.5646290000000  0.5071720000000 1.0
C      1  0.5184100000000  0.5095980000000  0.4345980000000 1.0
C      1  0.5276920000000  0.4565320000000  0.4585400000000 1.0
C      1  0.4866890000000  0.4772070000000  0.5130500000000 1.0
C      1  0.5034460000000  0.4517880000000  0.5115020000000 1.0
C      1  0.4849280000000  0.5668960000000  0.5270120000000 1.0
C      1  0.4228610000000  0.5180360000000  0.4567560000000 1.0
C      1  0.5199700000000  0.4955530000000  0.4879450000000 1.0
C      1  0.5871030000000  0.5088380000000  0.4977310000000 1.0
C      1  0.4390380000000  0.4766520000000  0.4490250000000 1.0
C      1  0.5745150000000  0.5317750000000  0.5098820000000 1.0
C      1  0.4628350000000  0.4370760000000  0.4941340000000 1.0
C      1  0.5908910000000  0.4885750000000  0.5175460000000 1.0
C      1  0.5856370000000  0.4605370000000  0.5131260000000 1.0
C      1  0.5357950000000  0.4786550000000  0.5040490000000 1.0
C      1  0.4640030000000  0.5467420000000  0.5360730000000 1.0
C      1  0.5002530000000  0.5403200000000  0.5623340000000 1.0
C      1  0.4800760000000  0.4483210000000  0.4468680000000 1.0
C      1  0.5031510000000  0.4861370000000  0.4279350000000 1.0
C      1  0.4830120000000  0.4295890000000  0.5169430000000 1.0
C      1  0.4306450000000  0.5446680000000  0.4627560000000 1.0
C      1  0.4759500000000  0.4900790000000  0.4245210000000 1.0
C      1  0.4243190000000  0.5218090000000  0.5268020000000 1.0
C      1  0.5287650000000  0.4111040000000  0.5265750000000 1.0
C      1  0.5336970000000  0.4775680000000  0.5376070000000 1.0
C      1  0.5463640000000  0.4343760000000  0.5252900000000 1.0
C      1  0.5205710000000  0.5222390000000  0.4912030000000 1.0
C      1  0.5616610000000  0.4740870000000  0.5474850000000 1.0
C      1  0.4898460000000  0.5721650000000  0.4983510000000 1.0
C      1  0.5500380000000  0.4389630000000  0.4965720000000 1.0
C      1  0.5701760000000  0.4495620000000  0.5352700000000 1.0
C      1  0.4593800000000  0.5060430000000  0.5605550000000 1.0
C      1  0.4179960000000  0.5471500000000  0.4883010000000 1.0
C      1  0.4350380000000  0.5487850000000  0.5306400000000 1.0
C      1  0.5051050000000  0.5341270000000  0.4448830000000 1.0
C      1  0.5674190000000  0.5244980000000  0.5370290000000 1.0
C      1  0.4303990000000  0.4748890000000  0.4774490000000 1.0
C      1  0.5043970000000  0.4088790000000  0.5189920000000 1.0
C      1  0.5718770000000  0.4734870000000  0.4680330000000 1.0
C      1  0.5334080000000  0.5601760000000  0.5350180000000 1.0
C      1  0.5216310000000  0.4507260000000  0.5359640000000 1.0
END
