TITL C-56105-9799-9 0.034691984177856 125000 -559.762313801005 0 0 80 (C1) n - 1
REM
REM in /rds/project/t2_vol4/rds-t2-cs072/BORA/CARBON/from-Arr/AIRSS/Generating-Clusters/GAP-ML-2020/Only-C1/SD-CG/HFTN-CG
REM
REM
REM
REM
REM
REM ./C.cell (11c1c37f851c82e70ff6c80c92926a4b)
REM AIRSS Version 0.9.1 bugfix July 2018 build 013d7b7c2542+ Fri, 06 Jul 2018 19:26:36 +0100
REM compiler GCC version 9.3.0
REM options -cpp -mtune=generic -march=x86-64 -g -O0
REM seed -1193042081 -2065510793 -1396334796 532013927 -712783650 1252015688 800915146 -836773132 -471187528 -917975920 2004870564 -706071049 -1227629047 1016874203 -683136252 -864621154 -935081356 1813164344 -416172656 -1857557625 668871927 1035211194 -53723884 -1016611903 601849683 -1589799503 376014917 -232165978 1012721941 -316150521 974468900 1099256338 2015828932
REM
CELL 1.54180   50.00000   50.00000   50.00000   90.00000   90.00000   90.00000
LATT -1
SFAC C  
C      1  0.5727320000000  0.4809980000000  0.4712640000000 1.0
C      1  0.5415690000000  0.5520250000000  0.4910200000000 1.0
C      1  0.5439380000000  0.4998470000000  0.4840200000000 1.0
C      1  0.4794250000000  0.4494750000000  0.4903770000000 1.0
C      1  0.4935490000000  0.4899480000000  0.4236750000000 1.0
C      1  0.4927470000000  0.4694360000000  0.4452900000000 1.0
C      1  0.5023680000000  0.5171650000000  0.4758640000000 1.0
C      1  0.4807190000000  0.4928790000000  0.5752500000000 1.0
C      1  0.5614040000000  0.4650620000000  0.5137690000000 1.0
C      1  0.5444470000000  0.5581190000000  0.5420150000000 1.0
C      1  0.4803770000000  0.4783290000000  0.4932080000000 1.0
C      1  0.4782310000000  0.4443590000000  0.5460040000000 1.0
C      1  0.5159940000000  0.4885500000000  0.5166220000000 1.0
C      1  0.5600160000000  0.5030620000000  0.4564830000000 1.0
C      1  0.4964800000000  0.5533950000000  0.5454870000000 1.0
C      1  0.4674150000000  0.5709490000000  0.4975100000000 1.0
C      1  0.5380660000000  0.4623000000000  0.4453730000000 1.0
C      1  0.5711750000000  0.4887550000000  0.5000340000000 1.0
C      1  0.4725570000000  0.5610550000000  0.4536420000000 1.0
C      1  0.5681920000000  0.5361410000000  0.4938170000000 1.0
C      1  0.4581190000000  0.5327500000000  0.5613130000000 1.0
C      1  0.5739580000000  0.5146930000000  0.5135120000000 1.0
C      1  0.4410840000000  0.4617020000000  0.5209160000000 1.0
C      1  0.5252310000000  0.4787400000000  0.4898670000000 1.0
C      1  0.4320150000000  0.4861960000000  0.5070980000000 1.0
C      1  0.4558970000000  0.4852370000000  0.5619090000000 1.0
C      1  0.4539980000000  0.5580380000000  0.5198060000000 1.0
C      1  0.4470080000000  0.5097410000000  0.5478030000000 1.0
C      1  0.5243820000000  0.4357770000000  0.5128030000000 1.0
C      1  0.5202220000000  0.5678430000000  0.5335110000000 1.0
C      1  0.5054130000000  0.4782830000000  0.5709330000000 1.0
C      1  0.5427620000000  0.4524750000000  0.4949450000000 1.0
C      1  0.5559620000000  0.4580180000000  0.4674710000000 1.0
C      1  0.4752800000000  0.4288120000000  0.5225750000000 1.0
C      1  0.5639680000000  0.5124750000000  0.5407710000000 1.0
C      1  0.4370510000000  0.5385800000000  0.4806580000000 1.0
C      1  0.5208720000000  0.5713290000000  0.5050320000000 1.0
C      1  0.4966540000000  0.5759830000000  0.4902970000000 1.0
C      1  0.5198640000000  0.5165150000000  0.5183240000000 1.0
C      1  0.5292530000000  0.4947430000000  0.5689160000000 1.0
C      1  0.4986750000000  0.5703760000000  0.4622000000000 1.0
C      1  0.5494110000000  0.5342370000000  0.5535580000000 1.0
C      1  0.4836630000000  0.5286790000000  0.4938690000000 1.0
C      1  0.4537060000000  0.5615700000000  0.4743600000000 1.0
C      1  0.5118190000000  0.4481990000000  0.4432850000000 1.0
C      1  0.4623800000000  0.4691860000000  0.4429360000000 1.0
C      1  0.4994060000000  0.4237610000000  0.4514730000000 1.0
C      1  0.4880680000000  0.4848120000000  0.5193030000000 1.0
C      1  0.4652780000000  0.4936720000000  0.4284470000000 1.0
C      1  0.4717660000000  0.4203510000000  0.4622120000000 1.0
C      1  0.4805550000000  0.5214190000000  0.5756980000000 1.0
C      1  0.4939310000000  0.5289460000000  0.5220580000000 1.0
C      1  0.5279480000000  0.5232520000000  0.5695720000000 1.0
C      1  0.5041880000000  0.4533230000000  0.5559690000000 1.0
C      1  0.5002690000000  0.4864000000000  0.4741860000000 1.0
C      1  0.5271730000000  0.4465320000000  0.5392660000000 1.0
C      1  0.4343040000000  0.4875360000000  0.4777660000000 1.0
C      1  0.4364250000000  0.5368920000000  0.5092790000000 1.0
C      1  0.5048700000000  0.5299910000000  0.4416270000000 1.0
C      1  0.5509630000000  0.4634960000000  0.5395550000000 1.0
C      1  0.4757870000000  0.5374440000000  0.4390850000000 1.0
C      1  0.5391840000000  0.4907820000000  0.4376270000000 1.0
C      1  0.5193200000000  0.5546970000000  0.4495300000000 1.0
C      1  0.4326130000000  0.5111310000000  0.5222170000000 1.0
C      1  0.4947150000000  0.4119860000000  0.4770340000000 1.0
C      1  0.5448330000000  0.5515040000000  0.4615890000000 1.0
C      1  0.4784990000000  0.5074800000000  0.5318330000000 1.0
C      1  0.4441490000000  0.4640830000000  0.4635200000000 1.0
C      1  0.5032300000000  0.5361280000000  0.5689720000000 1.0
C      1  0.4548690000000  0.4396450000000  0.4769970000000 1.0
C      1  0.4663120000000  0.5547620000000  0.5453310000000 1.0
C      1  0.5658200000000  0.5313900000000  0.4641020000000 1.0
C      1  0.5158920000000  0.5061030000000  0.4279760000000 1.0
C      1  0.4556340000000  0.5167030000000  0.4414650000000 1.0
C      1  0.4524590000000  0.4391370000000  0.5073470000000 1.0
C      1  0.5282630000000  0.5233740000000  0.4915680000000 1.0
C      1  0.5525320000000  0.4883270000000  0.5529740000000 1.0
C      1  0.4382030000000  0.5143620000000  0.4649780000000 1.0
C      1  0.4978990000000  0.4265320000000  0.5031650000000 1.0
C      1  0.4545970000000  0.4620280000000  0.5468900000000 1.0
END
