TITL C-56118-9744-5 -99.3752846225522 125000 -825.356870994955 0 0 116 (C1) n - 1
REM
REM in /rds/project/t2_vol4/rds-t2-cs072/BORA/CARBON/from-Arr/AIRSS/Generating-Clusters/GAP-ML-2020/Only-C1/SD-CG/HFTN-CG
REM
REM
REM
REM
REM
REM ./C.cell (11c1c37f851c82e70ff6c80c92926a4b)
REM AIRSS Version 0.9.1 bugfix July 2018 build 013d7b7c2542+ Fri, 06 Jul 2018 19:26:36 +0100
REM compiler GCC version 9.3.0
REM options -cpp -mtune=generic -march=x86-64 -g -O0
REM seed -487747575 1531944426 1476633212 -1931453308 1821675970 136080623 1219455120 -1828871218 -1813320923 1002550324 828485597 -1786879524 -1005695071 390504245 -269217445 762299905 -412131121 2122590564 -1682719359 -1203837855 550814989 651001397 -1639844189 55130315 -1127996007 -1272912339 225179954 -1873220734 -1505263220 -101924730 -1557247662 58504924 1350454089
REM
CELL 1.54180   50.00000   50.00000   50.00000   90.00000   90.00000   90.00000
LATT -1
SFAC C  
C      1  0.4398120000000  0.5357570000000  0.5464300000000 1.0
C      1  0.4681600000000  0.5812150000000  0.4975590000000 1.0
C      1  0.4273620000000  0.5326890000000  0.4976750000000 1.0
C      1  0.5535320000000  0.4453910000000  0.4424410000000 1.0
C      1  0.4678870000000  0.5174800000000  0.4188740000000 1.0
C      1  0.5429400000000  0.5776900000000  0.5509860000000 1.0
C      1  0.4765880000000  0.5506320000000  0.5008680000000 1.0
C      1  0.4960130000000  0.5292440000000  0.5829300000000 1.0
C      1  0.5352270000000  0.5068500000000  0.5154390000000 1.0
C      1  0.4215490000000  0.4505540000000  0.4617560000000 1.0
C      1  0.4642280000000  0.4783240000000  0.5006260000000 1.0
C      1  0.4336700000000  0.4458640000000  0.5341500000000 1.0
C      1  0.4321570000000  0.4900570000000  0.5538420000000 1.0
C      1  0.5265670000000  0.5868230000000  0.4966640000000 1.0
C      1  0.4051210000000  0.4926580000000  0.4830530000000 1.0
C      1  0.5368690000000  0.4177800000000  0.4992400000000 1.0
C      1  0.5274370000000  0.5619190000000  0.4481260000000 1.0
C      1  0.5398040000000  0.4919450000000  0.4210380000000 1.0
C      1  0.5562760000000  0.5014650000000  0.4460660000000 1.0
C      1  0.4826320000000  0.4813470000000  0.5772180000000 1.0
C      1  0.5156820000000  0.4456330000000  0.4298240000000 1.0
C      1  0.5279310000000  0.4620410000000  0.5707910000000 1.0
C      1  0.4163560000000  0.4982310000000  0.5309360000000 1.0
C      1  0.5275730000000  0.4730060000000  0.4795270000000 1.0
C      1  0.5142980000000  0.4380860000000  0.5631050000000 1.0
C      1  0.5612860000000  0.5722280000000  0.5293840000000 1.0
C      1  0.5777800000000  0.4833490000000  0.4552370000000 1.0
C      1  0.4080170000000  0.4807550000000  0.5098060000000 1.0
C      1  0.4754690000000  0.5096360000000  0.5688000000000 1.0
C      1  0.4855620000000  0.4359130000000  0.5603870000000 1.0
C      1  0.4092720000000  0.4761600000000  0.4602750000000 1.0
C      1  0.5313110000000  0.4245430000000  0.5444980000000 1.0
C      1  0.5039710000000  0.5438910000000  0.4853960000000 1.0
C      1  0.5061370000000  0.5032380000000  0.4505550000000 1.0
C      1  0.5366380000000  0.5591680000000  0.5717880000000 1.0
C      1  0.4466250000000  0.5131460000000  0.5628160000000 1.0
C      1  0.5321420000000  0.4270290000000  0.4460780000000 1.0
C      1  0.4421650000000  0.4755990000000  0.4277540000000 1.0
C      1  0.4549510000000  0.4296470000000  0.5243730000000 1.0
C      1  0.5564020000000  0.5550690000000  0.4498990000000 1.0
C      1  0.4662820000000  0.4898220000000  0.4250460000000 1.0
C      1  0.4614350000000  0.5543010000000  0.5447220000000 1.0
C      1  0.4242680000000  0.5184250000000  0.4465100000000 1.0
C      1  0.5227190000000  0.4092360000000  0.5228240000000 1.0
C      1  0.4674740000000  0.4367060000000  0.4474090000000 1.0
C      1  0.5841390000000  0.5071230000000  0.5568270000000 1.0
C      1  0.5039140000000  0.4699600000000  0.5180720000000 1.0
C      1  0.5817510000000  0.4797780000000  0.4997900000000 1.0
C      1  0.5890070000000  0.4952470000000  0.4776670000000 1.0
C      1  0.5138440000000  0.5426560000000  0.5300140000000 1.0
C      1  0.5533310000000  0.4407050000000  0.5365880000000 1.0
C      1  0.5086200000000  0.4497120000000  0.4752660000000 1.0
C      1  0.4229390000000  0.5256960000000  0.5252210000000 1.0
C      1  0.5307090000000  0.4940840000000  0.4624460000000 1.0
C      1  0.5073050000000  0.5558760000000  0.5758370000000 1.0
C      1  0.4424260000000  0.4633400000000  0.5553230000000 1.0
C      1  0.5663850000000  0.5285490000000  0.4561500000000 1.0
C      1  0.5172910000000  0.5698950000000  0.4746520000000 1.0
C      1  0.4765610000000  0.4187140000000  0.5397700000000 1.0
C      1  0.4546850000000  0.5351190000000  0.4901550000000 1.0
C      1  0.4927250000000  0.4533140000000  0.4474200000000 1.0
C      1  0.4144590000000  0.5188550000000  0.4755340000000 1.0
C      1  0.5757050000000  0.5334690000000  0.5553090000000 1.0
C      1  0.5065550000000  0.5536920000000  0.4290400000000 1.0
C      1  0.4211030000000  0.4912910000000  0.4388420000000 1.0
C      1  0.5761210000000  0.5471430000000  0.5296000000000 1.0
C      1  0.4808170000000  0.5924220000000  0.5201960000000 1.0
C      1  0.4884790000000  0.5110280000000  0.5378620000000 1.0
C      1  0.5205000000000  0.4204880000000  0.4728640000000 1.0
C      1  0.5530840000000  0.5370850000000  0.5720210000000 1.0
C      1  0.4954910000000  0.4472930000000  0.5018010000000 1.0
C      1  0.5241460000000  0.4831910000000  0.5049430000000 1.0
C      1  0.5184160000000  0.5902930000000  0.5457220000000 1.0
C      1  0.4502540000000  0.4265500000000  0.4904640000000 1.0
C      1  0.4841880000000  0.5527820000000  0.4456950000000 1.0
C      1  0.4917790000000  0.5271010000000  0.4636300000000 1.0
C      1  0.5545440000000  0.5845700000000  0.5041110000000 1.0
C      1  0.4687610000000  0.4588560000000  0.5670720000000 1.0
C      1  0.5794590000000  0.5265390000000  0.5094170000000 1.0
C      1  0.4672810000000  0.5163950000000  0.4740520000000 1.0
C      1  0.5822610000000  0.5230020000000  0.4805180000000 1.0
C      1  0.5703340000000  0.4866750000000  0.5470500000000 1.0
C      1  0.4679220000000  0.4179930000000  0.4684880000000 1.0
C      1  0.5352250000000  0.5154490000000  0.5701000000000 1.0
C      1  0.5149480000000  0.5071030000000  0.4216640000000 1.0
C      1  0.5729690000000  0.5771820000000  0.4586350000000 1.0
C      1  0.5201830000000  0.5151200000000  0.5415860000000 1.0
C      1  0.5736570000000  0.4531320000000  0.4907820000000 1.0
C      1  0.4670270000000  0.4884940000000  0.4748940000000 1.0
C      1  0.4973640000000  0.5279220000000  0.4146380000000 1.0
C      1  0.4830520000000  0.4883070000000  0.5201120000000 1.0
C      1  0.4891170000000  0.3929830000000  0.4990480000000 1.0
C      1  0.4177750000000  0.4537810000000  0.5114860000000 1.0
C      1  0.4671400000000  0.4475960000000  0.5030650000000 1.0
C      1  0.5095680000000  0.5948100000000  0.5186850000000 1.0
C      1  0.4841170000000  0.4818660000000  0.4486920000000 1.0
C      1  0.4730350000000  0.5806120000000  0.5465480000000 1.0
C      1  0.5240710000000  0.5331500000000  0.5044910000000 1.0
C      1  0.4249320000000  0.4392090000000  0.4872600000000 1.0
C      1  0.4545010000000  0.5898020000000  0.4751530000000 1.0
C      1  0.5381390000000  0.4631340000000  0.4236900000000 1.0
C      1  0.5160860000000  0.5095620000000  0.5891300000000 1.0
C      1  0.4932910000000  0.4061960000000  0.4760840000000 1.0
C      1  0.4566710000000  0.5578220000000  0.4394110000000 1.0
C      1  0.5584030000000  0.4351740000000  0.5079110000000 1.0
C      1  0.5101490000000  0.4816860000000  0.5830270000000 1.0
C      1  0.4453780000000  0.5327570000000  0.4315860000000 1.0
C      1  0.4430770000000  0.4503570000000  0.4420560000000 1.0
C      1  0.5723360000000  0.5864710000000  0.4819520000000 1.0
C      1  0.5674430000000  0.4994160000000  0.5186290000000 1.0
C      1  0.4971860000000  0.5792790000000  0.5619340000000 1.0
C      1  0.4478780000000  0.5813030000000  0.4516440000000 1.0
C      1  0.4947300000000  0.4024390000000  0.5237940000000 1.0
C      1  0.5714410000000  0.4561770000000  0.4614150000000 1.0
C      1  0.5532930000000  0.4639700000000  0.5542830000000 1.0
C      1  0.4829540000000  0.5407200000000  0.5284640000000 1.0
END
