TITL C-56116-9796-6 0.00240222300277558 125000 -155.483791041277 0 0 25 (C1) n - 1
REM
REM in /rds/project/t2_vol4/rds-t2-cs072/BORA/CARBON/from-Arr/AIRSS/Generating-Clusters/GAP-ML-2020/Only-C1/SD-CG/HFTN-CG
REM
REM
REM
REM
REM
REM ./C.cell (11c1c37f851c82e70ff6c80c92926a4b)
REM AIRSS Version 0.9.1 bugfix July 2018 build 013d7b7c2542+ Fri, 06 Jul 2018 19:26:36 +0100
REM compiler GCC version 9.3.0
REM options -cpp -mtune=generic -march=x86-64 -g -O0
REM seed -205843785 649395824 862474521 943039421 -82281213 -494487959 -1692910163 53921051 -1135549099 -810115519 -976810225 1391221809 -207893153 5518512 863682358 -921224761 -1553082234 474554177 1431818370 40380019 1197777610 1672843360 -670341154 1735692103 2039074845 -1277382846 1985508205 1320864683 797976163 1601726510 -496735968 743042880 -1085558405
REM
CELL 1.54180   50.00000   50.00000   50.00000   90.00000   90.00000   90.00000
LATT -1
SFAC C  
C      1  0.5167230000000  0.4543730000000  0.4897510000000 1.0
C      1  0.4809850000000  0.5212430000000  0.5621030000000 1.0
C      1  0.4508040000000  0.5320170000000  0.5353970000000 1.0
C      1  0.4943170000000  0.4526920000000  0.4521850000000 1.0
C      1  0.4706910000000  0.4979780000000  0.5089940000000 1.0
C      1  0.5441360000000  0.5093770000000  0.5016820000000 1.0
C      1  0.5412270000000  0.4557590000000  0.5023760000000 1.0
C      1  0.5375800000000  0.4939760000000  0.4768770000000 1.0
C      1  0.4516960000000  0.5219460000000  0.5089630000000 1.0
C      1  0.5199450000000  0.5095610000000  0.5170830000000 1.0
C      1  0.5086100000000  0.4859450000000  0.4808190000000 1.0
C      1  0.5362440000000  0.5472310000000  0.4638470000000 1.0
C      1  0.4420780000000  0.5347460000000  0.4859370000000 1.0
C      1  0.5385110000000  0.4898970000000  0.5236850000000 1.0
C      1  0.4968950000000  0.5055900000000  0.4988870000000 1.0
C      1  0.4791450000000  0.5386890000000  0.5395290000000 1.0
C      1  0.4667100000000  0.5401900000000  0.4807480000000 1.0
C      1  0.4619750000000  0.5049660000000  0.5493290000000 1.0
C      1  0.5128820000000  0.5429200000000  0.4717470000000 1.0
C      1  0.4921770000000  0.5302210000000  0.4833270000000 1.0
C      1  0.5447150000000  0.4643840000000  0.5291620000000 1.0
C      1  0.5496060000000  0.4684620000000  0.4772830000000 1.0
C      1  0.4637140000000  0.4837330000000  0.5328090000000 1.0
C      1  0.4917060000000  0.4779050000000  0.4570510000000 1.0
C      1  0.5069280000000  0.4361970000000  0.4704270000000 1.0
END
