TITL C-56097-9713-5 0.00884784966739044 125000 -486.597201410212 0 0 71 (C1) n - 1
REM
REM in /rds/project/t2_vol4/rds-t2-cs072/BORA/CARBON/from-Arr/AIRSS/Generating-Clusters/GAP-ML-2020/Only-C1/SD-CG/HFTN-CG
REM
REM
REM
REM
REM
REM ./C.cell (11c1c37f851c82e70ff6c80c92926a4b)
REM AIRSS Version 0.9.1 bugfix July 2018 build 013d7b7c2542+ Fri, 06 Jul 2018 19:26:36 +0100
REM compiler GCC version 9.3.0
REM options -cpp -mtune=generic -march=x86-64 -g -O0
REM seed -1718276320 -132661577 -430924500 -1550153852 -274587408 72784645 -503953504 -1007403741 1710132067 2008036620 914612121 424116006 -946342263 -1871958069 14647998 -954318108 632204832 59385732 1559960692 -405368696 1722525249 -1417683268 2083063385 1300423103 2053128744 1328090103 -261396087 1359358421 -108850935 1296265166 1470820390 2136604243 1483894852
REM
CELL 1.54180   50.00000   50.00000   50.00000   90.00000   90.00000   90.00000
LATT -1
SFAC C  
C      1  0.5432550000000  0.5000850000000  0.5582700000000 1.0
C      1  0.5640500000000  0.5374910000000  0.4825260000000 1.0
C      1  0.4320030000000  0.5139940000000  0.4796630000000 1.0
C      1  0.4823490000000  0.4283190000000  0.5272230000000 1.0
C      1  0.4824050000000  0.4499320000000  0.4297690000000 1.0
C      1  0.5153150000000  0.4582270000000  0.4676030000000 1.0
C      1  0.5105650000000  0.5493950000000  0.4535210000000 1.0
C      1  0.5173100000000  0.5033360000000  0.4399720000000 1.0
C      1  0.4447540000000  0.4846010000000  0.5599020000000 1.0
C      1  0.4684200000000  0.5250330000000  0.5421200000000 1.0
C      1  0.4519320000000  0.5582650000000  0.4910020000000 1.0
C      1  0.5157750000000  0.5115280000000  0.5618790000000 1.0
C      1  0.5698400000000  0.5598250000000  0.5229750000000 1.0
C      1  0.4886610000000  0.5671460000000  0.5288160000000 1.0
C      1  0.5596980000000  0.4733200000000  0.5227080000000 1.0
C      1  0.4969380000000  0.4663090000000  0.5571830000000 1.0
C      1  0.5230470000000  0.4553850000000  0.5525760000000 1.0
C      1  0.4879730000000  0.4732680000000  0.5103090000000 1.0
C      1  0.5667980000000  0.4996540000000  0.4655910000000 1.0
C      1  0.5564300000000  0.5446620000000  0.5415130000000 1.0
C      1  0.5109650000000  0.5410010000000  0.5613890000000 1.0
C      1  0.5292780000000  0.5289530000000  0.4452340000000 1.0
C      1  0.4849480000000  0.5471780000000  0.5495840000000 1.0
C      1  0.5095850000000  0.4927190000000  0.5118280000000 1.0
C      1  0.4312420000000  0.4529760000000  0.4904600000000 1.0
C      1  0.5206360000000  0.4313250000000  0.5370400000000 1.0
C      1  0.5720390000000  0.5113780000000  0.4925960000000 1.0
C      1  0.5605150000000  0.5161910000000  0.5420070000000 1.0
C      1  0.4670430000000  0.5023810000000  0.5601200000000 1.0
C      1  0.4640260000000  0.4893400000000  0.4994370000000 1.0
C      1  0.5307990000000  0.5714340000000  0.4976110000000 1.0
C      1  0.4869650000000  0.5772450000000  0.4815170000000 1.0
C      1  0.4746810000000  0.4316710000000  0.4731510000000 1.0
C      1  0.5463480000000  0.4584840000000  0.4733190000000 1.0
C      1  0.4177660000000  0.4920800000000  0.4902630000000 1.0
C      1  0.5446580000000  0.4732570000000  0.5481990000000 1.0
C      1  0.5573440000000  0.5603150000000  0.4983630000000 1.0
C      1  0.5117400000000  0.5379690000000  0.5138960000000 1.0
C      1  0.4431600000000  0.5329470000000  0.4970260000000 1.0
C      1  0.4998900000000  0.4135560000000  0.5412070000000 1.0
C      1  0.5547190000000  0.5258730000000  0.4578470000000 1.0
C      1  0.4905450000000  0.4996820000000  0.4316670000000 1.0
C      1  0.5130390000000  0.5691410000000  0.4752710000000 1.0
C      1  0.5686680000000  0.5002990000000  0.5185460000000 1.0
C      1  0.4561960000000  0.4989910000000  0.4678210000000 1.0
C      1  0.4773510000000  0.4573540000000  0.5356570000000 1.0
C      1  0.4815770000000  0.5424400000000  0.4513940000000 1.0
C      1  0.4518040000000  0.4465900000000  0.4718120000000 1.0
C      1  0.4920960000000  0.5281480000000  0.4946580000000 1.0
C      1  0.5308850000000  0.5559850000000  0.5478830000000 1.0
C      1  0.4803230000000  0.4762810000000  0.4204750000000 1.0
C      1  0.4179130000000  0.4707940000000  0.4718170000000 1.0
C      1  0.5174430000000  0.5674650000000  0.5241460000000 1.0
C      1  0.5151000000000  0.5141560000000  0.5292540000000 1.0
C      1  0.4490470000000  0.4691470000000  0.5382250000000 1.0
C      1  0.5502670000000  0.4550290000000  0.5023000000000 1.0
C      1  0.5124100000000  0.4877310000000  0.4631970000000 1.0
C      1  0.4676130000000  0.5615220000000  0.4670310000000 1.0
C      1  0.4854090000000  0.4286780000000  0.4983550000000 1.0
C      1  0.4727330000000  0.5156820000000  0.4476530000000 1.0
C      1  0.4465950000000  0.4723900000000  0.4566310000000 1.0
C      1  0.4728580000000  0.5729030000000  0.5065940000000 1.0
C      1  0.5634390000000  0.4739610000000  0.4579780000000 1.0
C      1  0.5272680000000  0.4408910000000  0.5111260000000 1.0
C      1  0.4394140000000  0.4751830000000  0.5092730000000 1.0
C      1  0.5087660000000  0.5042310000000  0.4865620000000 1.0
C      1  0.4947580000000  0.4411200000000  0.4532820000000 1.0
C      1  0.4936290000000  0.4925950000000  0.5667140000000 1.0
C      1  0.4658830000000  0.5186020000000  0.5110830000000 1.0
C      1  0.4569520000000  0.4643000000000  0.4307020000000 1.0
C      1  0.5041570000000  0.4506610000000  0.4956820000000 1.0
END
