TITL C-56105-9799-1 206.969789340228 125000 -512.060868651036 0 0 75 (C1) n - 1
REM
REM in /rds/project/t2_vol4/rds-t2-cs072/BORA/CARBON/from-Arr/AIRSS/Generating-Clusters/GAP-ML-2020/Only-C1/SD-CG/HFTN-CG
REM
REM
REM
REM
REM
REM ./C.cell (11c1c37f851c82e70ff6c80c92926a4b)
REM AIRSS Version 0.9.1 bugfix July 2018 build 013d7b7c2542+ Fri, 06 Jul 2018 19:26:36 +0100
REM compiler GCC version 9.3.0
REM options -cpp -mtune=generic -march=x86-64 -g -O0
REM seed 544443637 -889773127 445357760 -1417745380 -139443304 1947234432 -697376006 -1257161556 228729861 -1152154352 -496312575 -1347833512 355226619 531854954 -34912302 -2054729695 1633045037 -26843307 1302758812 211439705 -264792608 -1524135902 -1747665917 43250954 -1652702898 -1049812082 753138684 197697266 -1088831415 -411645402 714543758 -2088333990 -1932564516
REM
CELL 1.54180   50.00000   50.00000   50.00000   90.00000   90.00000   90.00000
LATT -1
SFAC C  
C      1  0.5452220000000  0.4928430000000  0.5403940000000 1.0
C      1  0.4428700000000  0.5218150000000  0.4665130000000 1.0
C      1  0.4868900000000  0.5667390000000  0.5595160000000 1.0
C      1  0.5228570000000  0.5017760000000  0.5599780000000 1.0
C      1  0.5536570000000  0.5261880000000  0.5039510000000 1.0
C      1  0.5080280000000  0.5311060000000  0.5150310000000 1.0
C      1  0.5326460000000  0.5067220000000  0.4398600000000 1.0
C      1  0.5420310000000  0.5289750000000  0.4551920000000 1.0
C      1  0.4519320000000  0.4463520000000  0.5138660000000 1.0
C      1  0.5620290000000  0.4599500000000  0.5150870000000 1.0
C      1  0.4705740000000  0.5740720000000  0.4608970000000 1.0
C      1  0.4759840000000  0.4352720000000  0.4689740000000 1.0
C      1  0.5578510000000  0.5556190000000  0.5427820000000 1.0
C      1  0.5511650000000  0.4642300000000  0.5422860000000 1.0
C      1  0.5736230000000  0.4846950000000  0.5051610000000 1.0
C      1  0.4461030000000  0.4701120000000  0.4582660000000 1.0
C      1  0.4957160000000  0.4999370000000  0.5448360000000 1.0
C      1  0.5211070000000  0.5565470000000  0.5078000000000 1.0
C      1  0.5453140000000  0.5452840000000  0.5627620000000 1.0
C      1  0.4790000000000  0.4519280000000  0.5552680000000 1.0
C      1  0.5243600000000  0.5112200000000  0.5030750000000 1.0
C      1  0.5451140000000  0.4723460000000  0.4691770000000 1.0
C      1  0.4487530000000  0.5284940000000  0.5582510000000 1.0
C      1  0.4465380000000  0.5255080000000  0.4951030000000 1.0
C      1  0.5186010000000  0.4874250000000  0.4599560000000 1.0
C      1  0.5268460000000  0.4846370000000  0.5151190000000 1.0
C      1  0.4949550000000  0.5229660000000  0.4667120000000 1.0
C      1  0.4741900000000  0.5550390000000  0.4426630000000 1.0
C      1  0.5387640000000  0.4587620000000  0.4963570000000 1.0
C      1  0.5161550000000  0.4744360000000  0.5718570000000 1.0
C      1  0.5229040000000  0.5301190000000  0.5708130000000 1.0
C      1  0.4470020000000  0.4861890000000  0.5300830000000 1.0
C      1  0.5055560000000  0.5018030000000  0.4825580000000 1.0
C      1  0.5596410000000  0.5198760000000  0.4755730000000 1.0
C      1  0.5149050000000  0.4252120000000  0.4668440000000 1.0
C      1  0.4343900000000  0.4952220000000  0.4619950000000 1.0
C      1  0.4612880000000  0.5295820000000  0.4460460000000 1.0
C      1  0.5480630000000  0.4546950000000  0.4449650000000 1.0
C      1  0.5019870000000  0.4486120000000  0.5366180000000 1.0
C      1  0.4925090000000  0.4796100000000  0.4426140000000 1.0
C      1  0.5167650000000  0.5452110000000  0.4595850000000 1.0
C      1  0.5203230000000  0.5032450000000  0.4150970000000 1.0
C      1  0.5263350000000  0.4549210000000  0.5537100000000 1.0
C      1  0.4843730000000  0.5736720000000  0.4850160000000 1.0
C      1  0.4338160000000  0.4690530000000  0.5075230000000 1.0
C      1  0.5200700000000  0.4363680000000  0.4932150000000 1.0
C      1  0.4730970000000  0.4346760000000  0.4988880000000 1.0
C      1  0.4907440000000  0.4137490000000  0.4598260000000 1.0
C      1  0.4701860000000  0.5688540000000  0.5386380000000 1.0
C      1  0.4833200000000  0.5102560000000  0.4411210000000 1.0
C      1  0.5023160000000  0.5492600000000  0.4335220000000 1.0
C      1  0.5662450000000  0.4916360000000  0.4779560000000 1.0
C      1  0.5284720000000  0.4553570000000  0.4249240000000 1.0
C      1  0.4873580000000  0.4714350000000  0.5748680000000 1.0
C      1  0.4717950000000  0.4600600000000  0.4534180000000 1.0
C      1  0.5096850000000  0.4752920000000  0.4179910000000 1.0
C      1  0.5119450000000  0.5643030000000  0.4825760000000 1.0
C      1  0.4645300000000  0.5062400000000  0.5101360000000 1.0
C      1  0.4746260000000  0.4967450000000  0.5684400000000 1.0
C      1  0.4464540000000  0.5492370000000  0.5104320000000 1.0
C      1  0.4468370000000  0.5491170000000  0.5397740000000 1.0
C      1  0.5655420000000  0.5053220000000  0.5218330000000 1.0
C      1  0.5292490000000  0.4346850000000  0.4447070000000 1.0
C      1  0.4846240000000  0.5221450000000  0.5276070000000 1.0
C      1  0.4572230000000  0.4577190000000  0.5392710000000 1.0
C      1  0.4729550000000  0.5256610000000  0.5752550000000 1.0
C      1  0.4471780000000  0.4999640000000  0.5546460000000 1.0
C      1  0.4986190000000  0.4339920000000  0.5113760000000 1.0
C      1  0.4954260000000  0.5428840000000  0.5715840000000 1.0
C      1  0.4997790000000  0.4789540000000  0.5237670000000 1.0
C      1  0.4683680000000  0.5691610000000  0.5093110000000 1.0
C      1  0.4296470000000  0.4755100000000  0.4814120000000 1.0
C      1  0.4851980000000  0.4887770000000  0.4990110000000 1.0
C      1  0.5014360000000  0.5225210000000  0.4222460000000 1.0
C      1  0.5483460000000  0.5521070000000  0.5165160000000 1.0
END
