TITL C-56108-9690-4 -81.7630589614604 125000 -501.000887312904 0 0 73 (C1) n - 1
REM
REM in /rds/project/t2_vol4/rds-t2-cs072/BORA/CARBON/from-Arr/AIRSS/Generating-Clusters/GAP-ML-2020/Only-C1/SD-CG/HFTN-CG
REM
REM
REM
REM
REM
REM ./C.cell (11c1c37f851c82e70ff6c80c92926a4b)
REM AIRSS Version 0.9.1 bugfix July 2018 build 013d7b7c2542+ Fri, 06 Jul 2018 19:26:36 +0100
REM compiler GCC version 9.3.0
REM options -cpp -mtune=generic -march=x86-64 -g -O0
REM seed -1263325584 86353939 -484529625 -685097374 569235267 -1395911096 -989786429 -1348270492 -1614120466 -691647857 1226175286 351112205 1301248193 598423476 -1328111009 -1704419316 -1265236779 1338539590 2029503363 1321783821 -1464180159 911716956 -128814639 -142164252 -1689816829 -1997660611 -1804898085 -1817269425 -676363079 74282691 1534048017 578042306 -1302343438
REM
CELL 1.54180   50.00000   50.00000   50.00000   90.00000   90.00000   90.00000
LATT -1
SFAC C  
C      1  0.4542640000000  0.5425120000000  0.4626370000000 1.0
C      1  0.4556440000000  0.4647310000000  0.4671620000000 1.0
C      1  0.5901260000000  0.4870850000000  0.5146970000000 1.0
C      1  0.5224480000000  0.4593180000000  0.5147770000000 1.0
C      1  0.5228120000000  0.5211590000000  0.5631150000000 1.0
C      1  0.5018110000000  0.4175560000000  0.5232330000000 1.0
C      1  0.4932250000000  0.5667820000000  0.4937010000000 1.0
C      1  0.4664380000000  0.4452780000000  0.5117060000000 1.0
C      1  0.5253300000000  0.5261690000000  0.4993210000000 1.0
C      1  0.4984850000000  0.4874420000000  0.4817290000000 1.0
C      1  0.4606880000000  0.5028730000000  0.4356980000000 1.0
C      1  0.5098200000000  0.5614180000000  0.4266790000000 1.0
C      1  0.4939370000000  0.4378990000000  0.4774370000000 1.0
C      1  0.4858620000000  0.4906660000000  0.4347220000000 1.0
C      1  0.5723800000000  0.4917890000000  0.4690500000000 1.0
C      1  0.4849500000000  0.4255430000000  0.5019460000000 1.0
C      1  0.4260670000000  0.5048910000000  0.4705850000000 1.0
C      1  0.4819460000000  0.4834270000000  0.5744670000000 1.0
C      1  0.4298100000000  0.5339740000000  0.4735990000000 1.0
C      1  0.5348560000000  0.4428380000000  0.4730500000000 1.0
C      1  0.4734420000000  0.5290690000000  0.5571390000000 1.0
C      1  0.4442840000000  0.4893400000000  0.4545770000000 1.0
C      1  0.5813040000000  0.5033850000000  0.4945480000000 1.0
C      1  0.4615350000000  0.5680670000000  0.5307450000000 1.0
C      1  0.5686570000000  0.4757770000000  0.5284770000000 1.0
C      1  0.5593390000000  0.4488940000000  0.4881490000000 1.0
C      1  0.5524630000000  0.4888410000000  0.5487230000000 1.0
C      1  0.5219940000000  0.5657550000000  0.4925670000000 1.0
C      1  0.4266020000000  0.4957520000000  0.4969670000000 1.0
C      1  0.4790110000000  0.5423450000000  0.4818030000000 1.0
C      1  0.5012970000000  0.5384240000000  0.5559860000000 1.0
C      1  0.5520890000000  0.5083680000000  0.4583080000000 1.0
C      1  0.4905520000000  0.5438100000000  0.4342620000000 1.0
C      1  0.4466690000000  0.4550930000000  0.4934780000000 1.0
C      1  0.5368390000000  0.5581750000000  0.4687210000000 1.0
C      1  0.5678140000000  0.4640890000000  0.4658040000000 1.0
C      1  0.5057860000000  0.4827590000000  0.5244140000000 1.0
C      1  0.4684550000000  0.4847290000000  0.4851640000000 1.0
C      1  0.5255620000000  0.4697860000000  0.4374650000000 1.0
C      1  0.4250500000000  0.5482150000000  0.4976750000000 1.0
C      1  0.5467790000000  0.5172650000000  0.5477650000000 1.0
C      1  0.5324890000000  0.4751690000000  0.5638750000000 1.0
C      1  0.5183180000000  0.4967420000000  0.5773820000000 1.0
C      1  0.5301080000000  0.4970760000000  0.4446370000000 1.0
C      1  0.4981280000000  0.4913010000000  0.5948370000000 1.0
C      1  0.4545870000000  0.5463890000000  0.5453740000000 1.0
C      1  0.5295800000000  0.5512440000000  0.5172020000000 1.0
C      1  0.4562740000000  0.5013850000000  0.5060580000000 1.0
C      1  0.5034150000000  0.5038580000000  0.4552740000000 1.0
C      1  0.5526210000000  0.4578320000000  0.5136090000000 1.0
C      1  0.5451540000000  0.4541410000000  0.4491250000000 1.0
C      1  0.4762900000000  0.4652460000000  0.5322860000000 1.0
C      1  0.5524800000000  0.5339450000000  0.5246060000000 1.0
C      1  0.4877260000000  0.5702090000000  0.5214410000000 1.0
C      1  0.4875200000000  0.4599130000000  0.5590110000000 1.0
C      1  0.5081130000000  0.5571570000000  0.5358410000000 1.0
C      1  0.5132100000000  0.4581270000000  0.4860930000000 1.0
C      1  0.5149230000000  0.4524180000000  0.5584160000000 1.0
C      1  0.5167560000000  0.4373520000000  0.5338730000000 1.0
C      1  0.4638210000000  0.5321230000000  0.4380930000000 1.0
C      1  0.5031690000000  0.5051730000000  0.5049940000000 1.0
C      1  0.5298890000000  0.5667420000000  0.4431080000000 1.0
C      1  0.4959920000000  0.4644340000000  0.4377550000000 1.0
C      1  0.4791180000000  0.4500480000000  0.4561610000000 1.0
C      1  0.4965190000000  0.5316720000000  0.4595700000000 1.0
C      1  0.5473180000000  0.5309150000000  0.4772120000000 1.0
C      1  0.4282810000000  0.4768860000000  0.5305030000000 1.0
C      1  0.4247620000000  0.4690930000000  0.5052320000000 1.0
C      1  0.4403270000000  0.5536910000000  0.5181800000000 1.0
C      1  0.4556550000000  0.4873420000000  0.5348200000000 1.0
C      1  0.4776030000000  0.5219670000000  0.5046690000000 1.0
C      1  0.5666940000000  0.5274270000000  0.4999710000000 1.0
C      1  0.4667380000000  0.5016940000000  0.5587390000000 1.0
END
