TITL C-57623-9820-5 29.7785810933416 125000 -419.894483904531 0 0 62 (C1) n - 1
REM
REM in /rds/project/t2_vol4/rds-t2-cs072/BORA/CARBON/from-Arr/AIRSS/Generating-Clusters/GAP-ML-2020/Only-C1/SD-CG/HFTN-CG
REM
REM
REM
REM
REM
REM ./C.cell (11c1c37f851c82e70ff6c80c92926a4b)
REM AIRSS Version 0.9.1 bugfix July 2018 build 013d7b7c2542+ Fri, 06 Jul 2018 19:26:36 +0100
REM compiler GCC version 9.3.0
REM options -cpp -mtune=generic -march=x86-64 -g -O0
REM seed -1909006921 1519165243 -642475761 -1038313817 219210157 -2076179752 -544648471 1754019230 -104065273 1782678734 -599495617 1867615025 299008386 1078136605 -943842891 -145587411 1644973018 1585889815 -9539910 1060253931 -703875612 1748145486 -1356052329 -1611601478 -1165669879 834512976 1775889463 -438470123 -1945239400 1144448459 210033575 1148602786 636434526
REM
CELL 1.54180   50.00000   50.00000   50.00000   90.00000   90.00000   90.00000
LATT -1
SFAC C  
C      1  0.5149730000000  0.4464290000000  0.4950860000000 1.0
C      1  0.5270820000000  0.4877120000000  0.5828160000000 1.0
C      1  0.5222490000000  0.4956950000000  0.5001650000000 1.0
C      1  0.4621500000000  0.4786630000000  0.4647460000000 1.0
C      1  0.5003740000000  0.4699320000000  0.4333230000000 1.0
C      1  0.4841310000000  0.4767940000000  0.5649190000000 1.0
C      1  0.4964300000000  0.4553430000000  0.5505630000000 1.0
C      1  0.5058440000000  0.5114180000000  0.5440410000000 1.0
C      1  0.4756960000000  0.4598860000000  0.4450030000000 1.0
C      1  0.5457750000000  0.5023060000000  0.4511880000000 1.0
C      1  0.4899730000000  0.5488480000000  0.4374670000000 1.0
C      1  0.5472180000000  0.5147900000000  0.5003260000000 1.0
C      1  0.4592680000000  0.5681850000000  0.5313860000000 1.0
C      1  0.5603510000000  0.5070850000000  0.4751670000000 1.0
C      1  0.4619340000000  0.5036590000000  0.5308410000000 1.0
C      1  0.5499920000000  0.5042850000000  0.5456230000000 1.0
C      1  0.5108050000000  0.5707710000000  0.4829910000000 1.0
C      1  0.4886230000000  0.4383830000000  0.5068760000000 1.0
C      1  0.5311330000000  0.5280920000000  0.5428550000000 1.0
C      1  0.4778800000000  0.4443400000000  0.5323540000000 1.0
C      1  0.4994870000000  0.5573300000000  0.5621570000000 1.0
C      1  0.5092190000000  0.4888570000000  0.5253540000000 1.0
C      1  0.5228450000000  0.4552270000000  0.4457000000000 1.0
C      1  0.5110800000000  0.4366230000000  0.4650930000000 1.0
C      1  0.4394090000000  0.4979500000000  0.5125010000000 1.0
C      1  0.5296360000000  0.5378850000000  0.5121500000000 1.0
C      1  0.4823710000000  0.5266990000000  0.5330960000000 1.0
C      1  0.5219680000000  0.4644770000000  0.5389940000000 1.0
C      1  0.5379080000000  0.4818560000000  0.5588090000000 1.0
C      1  0.4410720000000  0.4693200000000  0.5101800000000 1.0
C      1  0.4381890000000  0.5421480000000  0.4965100000000 1.0
C      1  0.4604920000000  0.4821350000000  0.5511700000000 1.0
C      1  0.5260210000000  0.5117090000000  0.4372450000000 1.0
C      1  0.5172340000000  0.4742030000000  0.4808150000000 1.0
C      1  0.5041370000000  0.4963290000000  0.5703420000000 1.0
C      1  0.5405100000000  0.4732040000000  0.4608750000000 1.0
C      1  0.4593410000000  0.5249690000000  0.4508380000000 1.0
C      1  0.5233580000000  0.5487010000000  0.5625180000000 1.0
C      1  0.4369350000000  0.5150460000000  0.4901310000000 1.0
C      1  0.4818280000000  0.5212710000000  0.4328200000000 1.0
C      1  0.5356310000000  0.4481870000000  0.5175090000000 1.0
C      1  0.4827250000000  0.4879720000000  0.5126740000000 1.0
C      1  0.4702270000000  0.4395020000000  0.4857790000000 1.0
C      1  0.5169320000000  0.5723940000000  0.4568370000000 1.0
C      1  0.5606100000000  0.4983590000000  0.5211180000000 1.0
C      1  0.4761130000000  0.5531060000000  0.5468310000000 1.0
C      1  0.4565350000000  0.5607590000000  0.5046230000000 1.0
C      1  0.5626050000000  0.4726030000000  0.5074430000000 1.0
C      1  0.5630380000000  0.4464730000000  0.5172440000000 1.0
C      1  0.4834760000000  0.4374990000000  0.4609280000000 1.0
C      1  0.4514590000000  0.4603900000000  0.4855100000000 1.0
C      1  0.4538270000000  0.4594160000000  0.5340250000000 1.0
C      1  0.4716440000000  0.5495410000000  0.4604100000000 1.0
C      1  0.5111910000000  0.5653790000000  0.4324860000000 1.0
C      1  0.4948840000000  0.5066990000000  0.4934750000000 1.0
C      1  0.4962530000000  0.5329860000000  0.5055690000000 1.0
C      1  0.5305510000000  0.5636810000000  0.5007170000000 1.0
C      1  0.4930600000000  0.4893810000000  0.4698750000000 1.0
C      1  0.5003660000000  0.4997300000000  0.4399460000000 1.0
C      1  0.5628550000000  0.4782110000000  0.4796210000000 1.0
C      1  0.4836450000000  0.5548400000000  0.4876660000000 1.0
C      1  0.4474530000000  0.5043350000000  0.4646800000000 1.0
END
