TITL C-57361-9000-3 0.00554023278131369 125000 -484.018371455558 0 0 70 (C1) n - 1
REM
REM in /rds/project/t2_vol4/rds-t2-cs072/BORA/CARBON/from-Arr/AIRSS/Generating-Clusters/GAP-ML-2020/Only-C1/SD-CG/HFTN-CG
REM
REM
REM
REM
REM
REM ./C.cell (11c1c37f851c82e70ff6c80c92926a4b)
REM AIRSS Version 0.9.1 bugfix July 2018 build 013d7b7c2542+ Fri, 06 Jul 2018 19:26:36 +0100
REM compiler GCC version 9.3.0
REM options -cpp -mtune=generic -march=x86-64 -g -O0
REM seed 2066302633 -899615064 1883482604 -756934959 -2059976691 1103993647 -834345135 1527151348 1666855203 -1411595553 -94543462 -1603871599 -1762812242 -132150986 299771443 -302688723 1828670749 1989025540 -561702917 -408949110 958225455 -985728460 -1433081798 1569471511 -570639947 -298953339 1095991484 -797599895 2109841045 -1097782346 -1966181994 1834228879 -1134762306
REM
CELL 1.54180   50.00000   50.00000   50.00000   90.00000   90.00000   90.00000
LATT -1
SFAC C  
C      1  0.4393360000000  0.5256750000000  0.5203100000000 1.0
C      1  0.4405700000000  0.4684030000000  0.5257890000000 1.0
C      1  0.4571450000000  0.5125170000000  0.4979230000000 1.0
C      1  0.4508300000000  0.4461890000000  0.5108290000000 1.0
C      1  0.4562080000000  0.5012580000000  0.4326360000000 1.0
C      1  0.5422400000000  0.4810810000000  0.5260920000000 1.0
C      1  0.5286510000000  0.5633240000000  0.4749580000000 1.0
C      1  0.4950000000000  0.5404320000000  0.5035520000000 1.0
C      1  0.5561720000000  0.5223810000000  0.4624520000000 1.0
C      1  0.4789910000000  0.5282690000000  0.4808040000000 1.0
C      1  0.5381120000000  0.4525790000000  0.4671390000000 1.0
C      1  0.4232380000000  0.4865430000000  0.5120210000000 1.0
C      1  0.4731800000000  0.4327740000000  0.5221060000000 1.0
C      1  0.4947260000000  0.4791780000000  0.4975270000000 1.0
C      1  0.5696800000000  0.4868350000000  0.5234200000000 1.0
C      1  0.4540140000000  0.5323570000000  0.5438200000000 1.0
C      1  0.4922720000000  0.5304930000000  0.5851120000000 1.0
C      1  0.5022380000000  0.5159630000000  0.4367420000000 1.0
C      1  0.5676960000000  0.4925540000000  0.4958950000000 1.0
C      1  0.5250070000000  0.4839110000000  0.5675490000000 1.0
C      1  0.4954170000000  0.4259440000000  0.4776840000000 1.0
C      1  0.5407920000000  0.5360310000000  0.5580760000000 1.0
C      1  0.4882770000000  0.4432350000000  0.5443340000000 1.0
C      1  0.5319710000000  0.4648170000000  0.5471050000000 1.0
C      1  0.4835140000000  0.5669060000000  0.4497580000000 1.0
C      1  0.5284190000000  0.4573720000000  0.4403110000000 1.0
C      1  0.4849000000000  0.4824600000000  0.4709020000000 1.0
C      1  0.5156720000000  0.5659720000000  0.5279900000000 1.0
C      1  0.4610680000000  0.4828600000000  0.5417700000000 1.0
C      1  0.5383030000000  0.4839400000000  0.4312670000000 1.0
C      1  0.4709790000000  0.5430510000000  0.4562070000000 1.0
C      1  0.4986140000000  0.5079380000000  0.4683060000000 1.0
C      1  0.4535230000000  0.4767500000000  0.4436430000000 1.0
C      1  0.4737590000000  0.4390520000000  0.4657680000000 1.0
C      1  0.5016850000000  0.4647230000000  0.4302700000000 1.0
C      1  0.5426620000000  0.5073860000000  0.5644820000000 1.0
C      1  0.4162570000000  0.5112820000000  0.5221770000000 1.0
C      1  0.5116470000000  0.4913170000000  0.4234500000000 1.0
C      1  0.4594630000000  0.5078390000000  0.5575340000000 1.0
C      1  0.4511230000000  0.4475580000000  0.4815040000000 1.0
C      1  0.5599870000000  0.5321240000000  0.5363230000000 1.0
C      1  0.5190530000000  0.4299470000000  0.5119510000000 1.0
C      1  0.4791390000000  0.4613560000000  0.4474520000000 1.0
C      1  0.5258440000000  0.5064750000000  0.5152130000000 1.0
C      1  0.4733230000000  0.5532730000000  0.5466610000000 1.0
C      1  0.5651020000000  0.5048760000000  0.5445950000000 1.0
C      1  0.4991960000000  0.5165180000000  0.5226690000000 1.0
C      1  0.5464170000000  0.5317990000000  0.5102960000000 1.0
C      1  0.5192610000000  0.4952100000000  0.4887690000000 1.0
C      1  0.4398430000000  0.4714270000000  0.4691100000000 1.0
C      1  0.4721390000000  0.5223730000000  0.4349110000000 1.0
C      1  0.4795750000000  0.4662610000000  0.5574730000000 1.0
C      1  0.5163510000000  0.4431900000000  0.5375870000000 1.0
C      1  0.4811060000000  0.5073000000000  0.5762130000000 1.0
C      1  0.5061280000000  0.5654970000000  0.4334420000000 1.0
C      1  0.4966700000000  0.4833100000000  0.5722870000000 1.0
C      1  0.4919610000000  0.4210040000000  0.5052770000000 1.0
C      1  0.5391730000000  0.5437330000000  0.4556640000000 1.0
C      1  0.5243130000000  0.4340450000000  0.4831030000000 1.0
C      1  0.4875710000000  0.5614690000000  0.5235490000000 1.0
C      1  0.5467200000000  0.4800400000000  0.4769010000000 1.0
C      1  0.5085200000000  0.5779080000000  0.4593490000000 1.0
C      1  0.4940580000000  0.5496220000000  0.5661340000000 1.0
C      1  0.5253180000000  0.5527220000000  0.5023420000000 1.0
C      1  0.5515610000000  0.4957630000000  0.4526860000000 1.0
C      1  0.5202180000000  0.5548890000000  0.5534450000000 1.0
C      1  0.5193390000000  0.5399200000000  0.4353710000000 1.0
C      1  0.4788030000000  0.4961780000000  0.5153020000000 1.0
C      1  0.5639640000000  0.5199050000000  0.4896420000000 1.0
C      1  0.4359990000000  0.4927200000000  0.4870690000000 1.0
END
