TITL C-57615-9939-2 229.462872816608 125000 -394.79567230248 0 0 59 (C1) n - 1
REM
REM in /rds/project/t2_vol4/rds-t2-cs072/BORA/CARBON/from-Arr/AIRSS/Generating-Clusters/GAP-ML-2020/Only-C1/SD-CG/HFTN-CG
REM
REM
REM
REM
REM
REM ./C.cell (11c1c37f851c82e70ff6c80c92926a4b)
REM AIRSS Version 0.9.1 bugfix July 2018 build 013d7b7c2542+ Fri, 06 Jul 2018 19:26:36 +0100
REM compiler GCC version 9.3.0
REM options -cpp -mtune=generic -march=x86-64 -g -O0
REM seed 1870329990 -855754846 425643855 1607038365 117920244 -470502416 162242231 -1369395959 -204545652 -310479998 -1025196495 -2107186789 434202591 609403910 -646800205 -958961099 68183369 2135931901 -1333552908 -2028612607 1365384504 2084597488 -744594770 32959117 -1660849525 1714614194 -2146559143 -1622440420 1561001567 784502605 -1518337113 1744919238 678024149
REM
CELL 1.54180   50.00000   50.00000   50.00000   90.00000   90.00000   90.00000
LATT -1
SFAC C  
C      1  0.5290720000000  0.4514030000000  0.4540090000000 1.0
C      1  0.5171580000000  0.4232670000000  0.5292880000000 1.0
C      1  0.4662560000000  0.4932370000000  0.4783370000000 1.0
C      1  0.5327670000000  0.5600390000000  0.5011080000000 1.0
C      1  0.5783230000000  0.5008490000000  0.4762140000000 1.0
C      1  0.4647890000000  0.5001940000000  0.5078530000000 1.0
C      1  0.4644400000000  0.4846450000000  0.5517140000000 1.0
C      1  0.5109600000000  0.5675190000000  0.5150610000000 1.0
C      1  0.4969320000000  0.4220490000000  0.5142860000000 1.0
C      1  0.4425090000000  0.5356780000000  0.4819470000000 1.0
C      1  0.4328160000000  0.5257250000000  0.5287900000000 1.0
C      1  0.4768060000000  0.5197030000000  0.4410040000000 1.0
C      1  0.4966570000000  0.4934230000000  0.4759460000000 1.0
C      1  0.5619210000000  0.4932110000000  0.4548160000000 1.0
C      1  0.5292180000000  0.4944970000000  0.5551180000000 1.0
C      1  0.4621770000000  0.5200840000000  0.4652110000000 1.0
C      1  0.4660080000000  0.5552220000000  0.5240510000000 1.0
C      1  0.4941860000000  0.5553530000000  0.5335060000000 1.0
C      1  0.4412800000000  0.5503130000000  0.5362360000000 1.0
C      1  0.5438300000000  0.4725040000000  0.4632970000000 1.0
C      1  0.4962810000000  0.4965980000000  0.4435450000000 1.0
C      1  0.5327360000000  0.4461200000000  0.5348750000000 1.0
C      1  0.4760930000000  0.4320260000000  0.4987960000000 1.0
C      1  0.5779910000000  0.4970830000000  0.5027980000000 1.0
C      1  0.4860780000000  0.4697670000000  0.4412100000000 1.0
C      1  0.5039030000000  0.5170810000000  0.4926500000000 1.0
C      1  0.4824000000000  0.4957330000000  0.5682550000000 1.0
C      1  0.5098070000000  0.4723490000000  0.4938220000000 1.0
C      1  0.4455220000000  0.4984610000000  0.5311350000000 1.0
C      1  0.4754560000000  0.4634260000000  0.5343850000000 1.0
C      1  0.4998230000000  0.4770740000000  0.5216330000000 1.0
C      1  0.4792930000000  0.4433150000000  0.4728550000000 1.0
C      1  0.4639750000000  0.5505150000000  0.4955400000000 1.0
C      1  0.5041270000000  0.5530090000000  0.4609870000000 1.0
C      1  0.4242400000000  0.4812680000000  0.5167100000000 1.0
C      1  0.4581520000000  0.4482880000000  0.5167630000000 1.0
C      1  0.5362830000000  0.5358360000000  0.5431280000000 1.0
C      1  0.5021190000000  0.4483760000000  0.4538070000000 1.0
C      1  0.4245020000000  0.5226380000000  0.4994470000000 1.0
C      1  0.5191430000000  0.5149410000000  0.4343430000000 1.0
C      1  0.5300500000000  0.5562380000000  0.4726150000000 1.0
C      1  0.5510180000000  0.5110870000000  0.5467440000000 1.0
C      1  0.5009500000000  0.5379090000000  0.4369010000000 1.0
C      1  0.5451660000000  0.5355010000000  0.5144260000000 1.0
C      1  0.5337540000000  0.5157230000000  0.4925800000000 1.0
C      1  0.5607660000000  0.4737560000000  0.5071500000000 1.0
C      1  0.5098230000000  0.5374330000000  0.5519480000000 1.0
C      1  0.5054630000000  0.5103460000000  0.5635250000000 1.0
C      1  0.4313710000000  0.4548350000000  0.5150490000000 1.0
C      1  0.4113280000000  0.4989140000000  0.4994060000000 1.0
C      1  0.4915750000000  0.5052280000000  0.5164700000000 1.0
C      1  0.5207380000000  0.4713360000000  0.5413500000000 1.0
C      1  0.5661780000000  0.5153350000000  0.5222640000000 1.0
C      1  0.5444300000000  0.5318110000000  0.4689620000000 1.0
C      1  0.4662020000000  0.4673310000000  0.4623980000000 1.0
C      1  0.5371480000000  0.4832980000000  0.4907760000000 1.0
C      1  0.4860980000000  0.5393870000000  0.4805210000000 1.0
C      1  0.5567780000000  0.4562900000000  0.5268230000000 1.0
C      1  0.5451370000000  0.5154240000000  0.4456180000000 1.0
END
