TITL C-57532-5561-6 0.0461883475932968 125000 -212.720423416483 0 0 32 (C1) n - 1
REM
REM in /rds/project/t2_vol4/rds-t2-cs072/BORA/CARBON/from-Arr/AIRSS/Generating-Clusters/GAP-ML-2020/Only-C1/SD-CG/HFTN-CG
REM
REM
REM
REM
REM
REM ./C.cell (11c1c37f851c82e70ff6c80c92926a4b)
REM AIRSS Version 0.9.1 bugfix July 2018 build 013d7b7c2542+ Fri, 06 Jul 2018 19:26:36 +0100
REM compiler GCC version 9.3.0
REM options -cpp -mtune=generic -march=x86-64 -g -O0
REM seed 632136707 -1889540683 -1585734459 -1251077189 -1090397443 1712758380 936158091 2076295563 356823617 -2002881531 1939621765 1807081921 -2098339488 1916215991 512180691 -1932296778 1632985893 -186457225 -1510201263 552272290 -1507725947 -346489119 2055607985 -1485240520 -505279939 1478646464 -267046714 1035705165 -765768959 1752877136 1765449623 -1580983879 28624733
REM
CELL 1.54180   50.00000   50.00000   50.00000   90.00000   90.00000   90.00000
LATT -1
SFAC C  
C      1  0.5465610000000  0.4954000000000  0.4778420000000 1.0
C      1  0.5324030000000  0.4744550000000  0.5181810000000 1.0
C      1  0.4854480000000  0.4650210000000  0.5561270000000 1.0
C      1  0.4813820000000  0.5395920000000  0.4665760000000 1.0
C      1  0.5319200000000  0.4789860000000  0.4613220000000 1.0
C      1  0.4767560000000  0.5624000000000  0.5091460000000 1.0
C      1  0.5007940000000  0.5576410000000  0.5205420000000 1.0
C      1  0.5095930000000  0.5311600000000  0.5299030000000 1.0
C      1  0.5404190000000  0.4986510000000  0.5050400000000 1.0
C      1  0.4711180000000  0.4593750000000  0.5310560000000 1.0
C      1  0.4657950000000  0.5093890000000  0.5299860000000 1.0
C      1  0.5154030000000  0.4583630000000  0.4732060000000 1.0
C      1  0.5214600000000  0.5696100000000  0.5056590000000 1.0
C      1  0.5284240000000  0.5412460000000  0.4680070000000 1.0
C      1  0.5163700000000  0.4553070000000  0.5021300000000 1.0
C      1  0.4703560000000  0.4633510000000  0.4596880000000 1.0
C      1  0.5049560000000  0.5322850000000  0.4546940000000 1.0
C      1  0.4918790000000  0.5123120000000  0.5420240000000 1.0
C      1  0.4533320000000  0.4794870000000  0.4712600000000 1.0
C      1  0.5018470000000  0.4893850000000  0.5556850000000 1.0
C      1  0.4927820000000  0.4511460000000  0.4578860000000 1.0
C      1  0.5318620000000  0.5249230000000  0.5136580000000 1.0
C      1  0.4963150000000  0.4445990000000  0.5208280000000 1.0
C      1  0.4692070000000  0.5415310000000  0.4909000000000 1.0
C      1  0.5236050000000  0.4901940000000  0.4356360000000 1.0
C      1  0.4504750000000  0.4923430000000  0.4948730000000 1.0
C      1  0.5099740000000  0.5108770000000  0.4343190000000 1.0
C      1  0.4571550000000  0.4819390000000  0.5223710000000 1.0
C      1  0.5246550000000  0.4726280000000  0.5460770000000 1.0
C      1  0.4566570000000  0.5197280000000  0.5044670000000 1.0
C      1  0.5076900000000  0.4491190000000  0.5471190000000 1.0
C      1  0.5334060000000  0.5475590000000  0.4937900000000 1.0
END
