TITL C-57618-9818-9 45.7350161743311 125000 -417.58064957184 0 0 60 (C1) n - 1
REM
REM in /rds/project/t2_vol4/rds-t2-cs072/BORA/CARBON/from-Arr/AIRSS/Generating-Clusters/GAP-ML-2020/Only-C1/SD-CG/HFTN-CG
REM
REM
REM
REM
REM
REM ./C.cell (11c1c37f851c82e70ff6c80c92926a4b)
REM AIRSS Version 0.9.1 bugfix July 2018 build 013d7b7c2542+ Fri, 06 Jul 2018 19:26:36 +0100
REM compiler GCC version 9.3.0
REM options -cpp -mtune=generic -march=x86-64 -g -O0
REM seed 273840775 1797920067 -1321391578 384729669 809559265 391345394 -185782664 -843175298 632143929 -2125065891 661383828 2085848718 343255762 -815867376 242725397 -1629165862 -646851261 1815667953 587269158 -12220138 428720954 -323996143 613390348 -1638468471 507242367 -1736827161 -832468836 1448533779 -309467132 601381143 -675830151 -879357804 723781000
REM
CELL 1.54180   50.00000   50.00000   50.00000   90.00000   90.00000   90.00000
LATT -1
SFAC C  
C      1  0.5066040000000  0.5173620000000  0.5472470000000 1.0
C      1  0.5165870000000  0.4970580000000  0.5660450000000 1.0
C      1  0.5373650000000  0.5716650000000  0.5055950000000 1.0
C      1  0.5306660000000  0.4518160000000  0.4514960000000 1.0
C      1  0.4684610000000  0.4490080000000  0.5070280000000 1.0
C      1  0.4492720000000  0.4868280000000  0.4463520000000 1.0
C      1  0.4293570000000  0.4686050000000  0.4493040000000 1.0
C      1  0.4963850000000  0.4744490000000  0.5634390000000 1.0
C      1  0.5296340000000  0.4938460000000  0.5117130000000 1.0
C      1  0.4484510000000  0.4777920000000  0.5449120000000 1.0
C      1  0.5073910000000  0.4443100000000  0.4661590000000 1.0
C      1  0.5074250000000  0.4615930000000  0.5389460000000 1.0
C      1  0.4623180000000  0.4497330000000  0.4789750000000 1.0
C      1  0.4401910000000  0.5060860000000  0.5468420000000 1.0
C      1  0.4736070000000  0.5522310000000  0.5377270000000 1.0
C      1  0.5183700000000  0.5124400000000  0.4368910000000 1.0
C      1  0.5322550000000  0.4684410000000  0.4298150000000 1.0
C      1  0.5657940000000  0.5052180000000  0.5353890000000 1.0
C      1  0.4893220000000  0.5016010000000  0.5041900000000 1.0
C      1  0.4414090000000  0.5245360000000  0.4785320000000 1.0
C      1  0.5192410000000  0.5653720000000  0.5251120000000 1.0
C      1  0.4573900000000  0.5452500000000  0.4912860000000 1.0
C      1  0.4811410000000  0.5293870000000  0.5549430000000 1.0
C      1  0.5512930000000  0.4590400000000  0.4704140000000 1.0
C      1  0.5365840000000  0.4626760000000  0.5420990000000 1.0
C      1  0.5358070000000  0.5543460000000  0.4605860000000 1.0
C      1  0.4624360000000  0.5112200000000  0.5646560000000 1.0
C      1  0.5654840000000  0.4968140000000  0.5609720000000 1.0
C      1  0.5589140000000  0.5280640000000  0.4953580000000 1.0
C      1  0.5450680000000  0.5198030000000  0.5197570000000 1.0
C      1  0.5147170000000  0.4422360000000  0.4943350000000 1.0
C      1  0.5047150000000  0.4919150000000  0.5283110000000 1.0
C      1  0.4699160000000  0.4825570000000  0.5642040000000 1.0
C      1  0.4480780000000  0.4655980000000  0.5195910000000 1.0
C      1  0.4818210000000  0.4537470000000  0.4583340000000 1.0
C      1  0.5171770000000  0.5401640000000  0.4471840000000 1.0
C      1  0.5721040000000  0.4864910000000  0.5126640000000 1.0
C      1  0.5426910000000  0.4496080000000  0.4955840000000 1.0
C      1  0.5584400000000  0.4860630000000  0.4653900000000 1.0
C      1  0.5688480000000  0.5016220000000  0.4873550000000 1.0
C      1  0.5117470000000  0.5022570000000  0.4893190000000 1.0
C      1  0.4908860000000  0.5026580000000  0.4354510000000 1.0
C      1  0.4495190000000  0.5146930000000  0.4533880000000 1.0
C      1  0.5474310000000  0.5535250000000  0.4855150000000 1.0
C      1  0.5201690000000  0.5341600000000  0.5259880000000 1.0
C      1  0.4358650000000  0.5216750000000  0.5242930000000 1.0
C      1  0.5410920000000  0.4854750000000  0.5585640000000 1.0
C      1  0.4851130000000  0.5471300000000  0.4834640000000 1.0
C      1  0.4738730000000  0.5245370000000  0.4430970000000 1.0
C      1  0.4929910000000  0.5714770000000  0.5325600000000 1.0
C      1  0.4520580000000  0.5450560000000  0.5194860000000 1.0
C      1  0.4303770000000  0.5079250000000  0.4994070000000 1.0
C      1  0.4959500000000  0.4455830000000  0.5161680000000 1.0
C      1  0.4893400000000  0.5448720000000  0.4552180000000 1.0
C      1  0.5402710000000  0.4932890000000  0.4411040000000 1.0
C      1  0.4385620000000  0.4653310000000  0.4749660000000 1.0
C      1  0.5496470000000  0.4674190000000  0.5162350000000 1.0
C      1  0.5030070000000  0.5288480000000  0.5000510000000 1.0
C      1  0.4327610000000  0.4794920000000  0.4990830000000 1.0
C      1  0.4766120000000  0.4780030000000  0.4419080000000 1.0
END
