TITL C-57363-8956-6 0.124380825330607 125000 -606.298493468284 0 0 86 (C1) n - 1
REM
REM in /rds/project/t2_vol4/rds-t2-cs072/BORA/CARBON/from-Arr/AIRSS/Generating-Clusters/GAP-ML-2020/Only-C1/SD-CG/HFTN-CG
REM
REM
REM
REM
REM
REM ./C.cell (11c1c37f851c82e70ff6c80c92926a4b)
REM AIRSS Version 0.9.1 bugfix July 2018 build 013d7b7c2542+ Fri, 06 Jul 2018 19:26:36 +0100
REM compiler GCC version 9.3.0
REM options -cpp -mtune=generic -march=x86-64 -g -O0
REM seed -78262402 -538339013 -756656874 -2085402795 204380000 1922997614 -844717377 2137017559 1576056716 1529546127 285858013 12170235 -226490185 596493208 -207522599 1526357416 1974493359 1041981872 1440936556 1001069788 -601750948 -758186818 -710769998 -1709866026 -1604463222 690690736 -1303986766 -1670743844 -850278572 1229381306 192153847 1419993179 -867119940
REM
CELL 1.54180   50.00000   50.00000   50.00000   90.00000   90.00000   90.00000
LATT -1
SFAC C  
C      1  0.5311400000000  0.4917680000000  0.4906190000000 1.0
C      1  0.5555040000000  0.5624610000000  0.4978570000000 1.0
C      1  0.4738330000000  0.4442810000000  0.4804640000000 1.0
C      1  0.4557570000000  0.5060160000000  0.4274500000000 1.0
C      1  0.5118900000000  0.5440100000000  0.5034610000000 1.0
C      1  0.5595640000000  0.4606610000000  0.5374190000000 1.0
C      1  0.4868540000000  0.5691740000000  0.4541100000000 1.0
C      1  0.5014370000000  0.4348450000000  0.4747740000000 1.0
C      1  0.5160410000000  0.5062450000000  0.5773460000000 1.0
C      1  0.4381760000000  0.4853620000000  0.4311030000000 1.0
C      1  0.5029130000000  0.4774750000000  0.5170910000000 1.0
C      1  0.5565530000000  0.4672150000000  0.4559470000000 1.0
C      1  0.5228970000000  0.5239910000000  0.5215820000000 1.0
C      1  0.5303970000000  0.5475710000000  0.4563090000000 1.0
C      1  0.4772760000000  0.5458690000000  0.4396570000000 1.0
C      1  0.5239270000000  0.5684580000000  0.5370020000000 1.0
C      1  0.5575860000000  0.4591970000000  0.5089030000000 1.0
C      1  0.5228440000000  0.4576380000000  0.5684860000000 1.0
C      1  0.5710790000000  0.5540680000000  0.5190590000000 1.0
C      1  0.5617230000000  0.4936600000000  0.4448630000000 1.0
C      1  0.5277590000000  0.5699530000000  0.5057230000000 1.0
C      1  0.4216790000000  0.5083430000000  0.4820430000000 1.0
C      1  0.4521730000000  0.5300350000000  0.4427210000000 1.0
C      1  0.5644880000000  0.5370180000000  0.5390990000000 1.0
C      1  0.5331210000000  0.4843850000000  0.5702020000000 1.0
C      1  0.5280450000000  0.4647400000000  0.5028830000000 1.0
C      1  0.4969540000000  0.5627310000000  0.5440020000000 1.0
C      1  0.4584480000000  0.4292960000000  0.5012230000000 1.0
C      1  0.5122280000000  0.5833870000000  0.4848930000000 1.0
C      1  0.4857910000000  0.4571300000000  0.4373450000000 1.0
C      1  0.5108340000000  0.5330930000000  0.4769840000000 1.0
C      1  0.5574050000000  0.5502870000000  0.4707570000000 1.0
C      1  0.4236170000000  0.4902460000000  0.5249100000000 1.0
C      1  0.4835300000000  0.5795010000000  0.4816570000000 1.0
C      1  0.4941950000000  0.5455080000000  0.5662350000000 1.0
C      1  0.5441080000000  0.5087510000000  0.5103170000000 1.0
C      1  0.4419600000000  0.4461810000000  0.5183210000000 1.0
C      1  0.4401870000000  0.4946260000000  0.5476100000000 1.0
C      1  0.4264450000000  0.4795000000000  0.4798250000000 1.0
C      1  0.5329210000000  0.4586350000000  0.4421520000000 1.0
C      1  0.4432940000000  0.5554230000000  0.5073170000000 1.0
C      1  0.5251070000000  0.5292820000000  0.4319950000000 1.0
C      1  0.5193550000000  0.4363020000000  0.4962800000000 1.0
C      1  0.4204420000000  0.5143470000000  0.5109260000000 1.0
C      1  0.5391340000000  0.5041560000000  0.4294780000000 1.0
C      1  0.5085350000000  0.5048810000000  0.4775870000000 1.0
C      1  0.4961040000000  0.4793870000000  0.4216380000000 1.0
C      1  0.5241680000000  0.4802330000000  0.4252690000000 1.0
C      1  0.5559090000000  0.4862290000000  0.5508790000000 1.0
C      1  0.5812620000000  0.5067070000000  0.4622010000000 1.0
C      1  0.4389900000000  0.4702550000000  0.4543420000000 1.0
C      1  0.5007910000000  0.5050640000000  0.5265110000000 1.0
C      1  0.4808830000000  0.4726500000000  0.4990520000000 1.0
C      1  0.4818180000000  0.4963200000000  0.4826000000000 1.0
C      1  0.4884940000000  0.4168840000000  0.5303100000000 1.0
C      1  0.4537440000000  0.4483800000000  0.5443590000000 1.0
C      1  0.4530920000000  0.5208400000000  0.5455290000000 1.0
C      1  0.4945110000000  0.4531800000000  0.5675730000000 1.0
C      1  0.5202050000000  0.5337580000000  0.5698900000000 1.0
C      1  0.4730910000000  0.5257770000000  0.5682590000000 1.0
C      1  0.5156320000000  0.5728880000000  0.4576660000000 1.0
C      1  0.5362140000000  0.5434790000000  0.5465230000000 1.0
C      1  0.4629240000000  0.4533930000000  0.4542420000000 1.0
C      1  0.4499240000000  0.5399420000000  0.4849100000000 1.0
C      1  0.4664200000000  0.5158270000000  0.4962290000000 1.0
C      1  0.4791160000000  0.4359480000000  0.5501920000000 1.0
C      1  0.5623210000000  0.5079260000000  0.5339950000000 1.0
C      1  0.5349140000000  0.4198420000000  0.5396270000000 1.0
C      1  0.5714680000000  0.4655650000000  0.4838020000000 1.0
C      1  0.4685930000000  0.5681960000000  0.5037630000000 1.0
C      1  0.4776540000000  0.4757350000000  0.5734690000000 1.0
C      1  0.5905080000000  0.4853330000000  0.4796490000000 1.0
C      1  0.4861850000000  0.5512010000000  0.5194110000000 1.0
C      1  0.4341630000000  0.5356590000000  0.5251100000000 1.0
C      1  0.5088290000000  0.4447630000000  0.4496090000000 1.0
C      1  0.5416820000000  0.4427380000000  0.5517230000000 1.0
C      1  0.4274540000000  0.4682660000000  0.5069380000000 1.0
C      1  0.5786430000000  0.5337570000000  0.4653270000000 1.0
C      1  0.4532620000000  0.4728620000000  0.5589200000000 1.0
C      1  0.4762460000000  0.5213390000000  0.5224070000000 1.0
C      1  0.4831700000000  0.5045120000000  0.4193960000000 1.0
C      1  0.5159710000000  0.4208900000000  0.5202400000000 1.0
C      1  0.4870280000000  0.5019850000000  0.5782850000000 1.0
C      1  0.4334460000000  0.5290420000000  0.4649180000000 1.0
C      1  0.4969140000000  0.5287140000000  0.4264760000000 1.0
C      1  0.4691100000000  0.4068340000000  0.5127730000000 1.0
END
