TITL C-57620-9844-7 -0.0294067126237434 125000 -169.5281248072 0 0 26 (C1) n - 1
REM
REM in /rds/project/t2_vol4/rds-t2-cs072/BORA/CARBON/from-Arr/AIRSS/Generating-Clusters/GAP-ML-2020/Only-C1/SD-CG/HFTN-CG
REM
REM
REM
REM
REM
REM ./C.cell (11c1c37f851c82e70ff6c80c92926a4b)
REM AIRSS Version 0.9.1 bugfix July 2018 build 013d7b7c2542+ Fri, 06 Jul 2018 19:26:36 +0100
REM compiler GCC version 9.3.0
REM options -cpp -mtune=generic -march=x86-64 -g -O0
REM seed 789921014 -1370696996 757881254 -1064504337 -57385744 -1870044534 -1195473910 -1413405009 -1275971514 -595629603 1897015624 273882901 1223493648 -1636134694 945345002 568121252 -1973442605 -343198056 752231067 -1953028021 -1378855766 -1550005857 1536797266 742322000 -2092380643 1922303196 -1997069845 -474145981 1418675994 -813680774 -1575849372 1146703652 1737206256
REM
CELL 1.54180   50.00000   50.00000   50.00000   90.00000   90.00000   90.00000
LATT -1
SFAC C  
C      1  0.4583270000000  0.5190890000000  0.4943750000000 1.0
C      1  0.5235830000000  0.4461930000000  0.4926170000000 1.0
C      1  0.5350680000000  0.5102960000000  0.4591600000000 1.0
C      1  0.5159770000000  0.4447720000000  0.5415410000000 1.0
C      1  0.5427790000000  0.4844310000000  0.4649420000000 1.0
C      1  0.5407860000000  0.5353480000000  0.4759190000000 1.0
C      1  0.4879700000000  0.5034830000000  0.4563000000000 1.0
C      1  0.4834410000000  0.4762780000000  0.4640120000000 1.0
C      1  0.5020600000000  0.4839670000000  0.5629430000000 1.0
C      1  0.4707160000000  0.5403720000000  0.5280720000000 1.0
C      1  0.4720580000000  0.4717770000000  0.4877600000000 1.0
C      1  0.4946850000000  0.5454070000000  0.4792180000000 1.0
C      1  0.4814760000000  0.4593540000000  0.5124440000000 1.0
C      1  0.4870160000000  0.4989430000000  0.5458640000000 1.0
C      1  0.5180410000000  0.5421730000000  0.4942890000000 1.0
C      1  0.4760910000000  0.5257430000000  0.4731190000000 1.0
C      1  0.5118170000000  0.5119390000000  0.4448420000000 1.0
C      1  0.4933410000000  0.5265140000000  0.5365600000000 1.0
C      1  0.4579240000000  0.4928610000000  0.5036250000000 1.0
C      1  0.4707780000000  0.4827740000000  0.5277800000000 1.0
C      1  0.5066680000000  0.4469030000000  0.5151790000000 1.0
C      1  0.5596110000000  0.5523800000000  0.4690510000000 1.0
C      1  0.5138880000000  0.5333290000000  0.5200140000000 1.0
C      1  0.4503610000000  0.5408140000000  0.5126490000000 1.0
C      1  0.5316930000000  0.4639810000000  0.4761300000000 1.0
C      1  0.5138460000000  0.4608790000000  0.5615950000000 1.0
END
