TITL C-57629-9811-3 0.143111582378165 125000 -868.901919856965 0 0 123 (C1) n - 1
REM
REM in /rds/project/t2_vol4/rds-t2-cs072/BORA/CARBON/from-Arr/AIRSS/Generating-Clusters/GAP-ML-2020/Only-C1/SD-CG/HFTN-CG
REM
REM
REM
REM
REM
REM ./C.cell (11c1c37f851c82e70ff6c80c92926a4b)
REM AIRSS Version 0.9.1 bugfix July 2018 build 013d7b7c2542+ Fri, 06 Jul 2018 19:26:36 +0100
REM compiler GCC version 9.3.0
REM options -cpp -mtune=generic -march=x86-64 -g -O0
REM seed -505226982 -454879651 378793092 1292785268 1749299993 734513140 1249582556 795764313 409395983 1186048782 -703997964 1306226230 206336703 -417050728 -738904377 -38865133 -937865195 -1296230863 -2138432411 2144305894 -833501715 -1678596422 1080813619 630751706 889731829 1021889113 1379299039 1400634965 -891027917 -2091509444 -1744517985 -769887894 -2022410322
REM
CELL 1.54180   50.00000   50.00000   50.00000   90.00000   90.00000   90.00000
LATT -1
SFAC C  
C      1  0.5150840000000  0.4191170000000  0.5208960000000 1.0
C      1  0.4695960000000  0.5571580000000  0.4392720000000 1.0
C      1  0.4147570000000  0.4816270000000  0.4542650000000 1.0
C      1  0.4725670000000  0.5850010000000  0.4870110000000 1.0
C      1  0.5044950000000  0.5900020000000  0.5299010000000 1.0
C      1  0.5006210000000  0.4694650000000  0.5523400000000 1.0
C      1  0.4774670000000  0.4543300000000  0.4317520000000 1.0
C      1  0.5297460000000  0.4900020000000  0.4698260000000 1.0
C      1  0.5794620000000  0.5467540000000  0.4696640000000 1.0
C      1  0.5382610000000  0.4157850000000  0.5054880000000 1.0
C      1  0.4813950000000  0.5231090000000  0.5838540000000 1.0
C      1  0.4288430000000  0.4469740000000  0.5164520000000 1.0
C      1  0.4820240000000  0.4628590000000  0.5872390000000 1.0
C      1  0.4913450000000  0.4829320000000  0.6029820000000 1.0
C      1  0.4828850000000  0.4865490000000  0.4850030000000 1.0
C      1  0.5734300000000  0.4364260000000  0.4819520000000 1.0
C      1  0.4456670000000  0.5025810000000  0.4828430000000 1.0
C      1  0.5635690000000  0.4305960000000  0.5080850000000 1.0
C      1  0.5604070000000  0.4598200000000  0.4314950000000 1.0
C      1  0.4314100000000  0.5203470000000  0.4347960000000 1.0
C      1  0.5263020000000  0.5164240000000  0.5826140000000 1.0
C      1  0.4216210000000  0.4883960000000  0.5476170000000 1.0
C      1  0.5886070000000  0.4976530000000  0.4570300000000 1.0
C      1  0.4589490000000  0.5341600000000  0.5090970000000 1.0
C      1  0.5368230000000  0.5621990000000  0.5613750000000 1.0
C      1  0.5661480000000  0.5067380000000  0.5561580000000 1.0
C      1  0.5457000000000  0.5540810000000  0.4364050000000 1.0
C      1  0.4443560000000  0.4851860000000  0.5647250000000 1.0
C      1  0.4113800000000  0.5107960000000  0.4528340000000 1.0
C      1  0.5124170000000  0.4594970000000  0.4967280000000 1.0
C      1  0.4651100000000  0.4405000000000  0.5493640000000 1.0
C      1  0.4507610000000  0.5043970000000  0.5105400000000 1.0
C      1  0.4823500000000  0.4567560000000  0.5291390000000 1.0
C      1  0.4576670000000  0.5784670000000  0.5121010000000 1.0
C      1  0.4584830000000  0.4609300000000  0.5702900000000 1.0
C      1  0.5878490000000  0.4593750000000  0.4736560000000 1.0
C      1  0.5952760000000  0.4958230000000  0.5103900000000 1.0
C      1  0.5413730000000  0.5194770000000  0.5042540000000 1.0
C      1  0.4314590000000  0.4473150000000  0.4876290000000 1.0
C      1  0.5442790000000  0.4784310000000  0.4180220000000 1.0
C      1  0.4632890000000  0.5090690000000  0.5640320000000 1.0
C      1  0.4356510000000  0.5587020000000  0.4638810000000 1.0
C      1  0.4020850000000  0.4809110000000  0.5012010000000 1.0
C      1  0.4897920000000  0.5716790000000  0.5634160000000 1.0
C      1  0.5251240000000  0.5312560000000  0.4830100000000 1.0
C      1  0.4643630000000  0.5650650000000  0.4678430000000 1.0
C      1  0.4360370000000  0.5536180000000  0.5113870000000 1.0
C      1  0.4884220000000  0.4960200000000  0.5506260000000 1.0
C      1  0.4759010000000  0.5364500000000  0.4835330000000 1.0
C      1  0.5073500000000  0.4197270000000  0.4646660000000 1.0
C      1  0.4711300000000  0.5089950000000  0.4705120000000 1.0
C      1  0.4956900000000  0.5499080000000  0.4307610000000 1.0
C      1  0.5810690000000  0.5473580000000  0.4992260000000 1.0
C      1  0.5543220000000  0.4250600000000  0.4641590000000 1.0
C      1  0.5317020000000  0.4387980000000  0.5649050000000 1.0
C      1  0.5856850000000  0.4739500000000  0.5284300000000 1.0
C      1  0.5021720000000  0.5058290000000  0.5947130000000 1.0
C      1  0.5406780000000  0.4927970000000  0.4972630000000 1.0
C      1  0.5579950000000  0.5284280000000  0.4299690000000 1.0
C      1  0.5020710000000  0.5298880000000  0.5234200000000 1.0
C      1  0.4496670000000  0.4989380000000  0.4292030000000 1.0
C      1  0.4377520000000  0.4746410000000  0.4395540000000 1.0
C      1  0.5367690000000  0.5067950000000  0.5563300000000 1.0
C      1  0.4539690000000  0.5334880000000  0.5510420000000 1.0
C      1  0.5535740000000  0.5503490000000  0.5388830000000 1.0
C      1  0.5460590000000  0.5842000000000  0.5000720000000 1.0
C      1  0.5753820000000  0.5287950000000  0.5413730000000 1.0
C      1  0.3968620000000  0.5089140000000  0.4988280000000 1.0
C      1  0.5215580000000  0.4812460000000  0.5160290000000 1.0
C      1  0.5032180000000  0.4478240000000  0.5745500000000 1.0
C      1  0.4503210000000  0.4049230000000  0.5157180000000 1.0
C      1  0.4779270000000  0.5746410000000  0.5332460000000 1.0
C      1  0.5221320000000  0.5156600000000  0.4596840000000 1.0
C      1  0.5174080000000  0.4314120000000  0.4390890000000 1.0
C      1  0.5164420000000  0.5057210000000  0.4125240000000 1.0
C      1  0.5011500000000  0.5915750000000  0.4831000000000 1.0
C      1  0.5155880000000  0.5808370000000  0.5547160000000 1.0
C      1  0.4535160000000  0.4514580000000  0.4454950000000 1.0
C      1  0.5690050000000  0.4494800000000  0.5283390000000 1.0
C      1  0.5459410000000  0.5834430000000  0.4717560000000 1.0
C      1  0.4052440000000  0.5250780000000  0.4768090000000 1.0
C      1  0.4777720000000  0.5031370000000  0.4403250000000 1.0
C      1  0.5155620000000  0.4202400000000  0.5488090000000 1.0
C      1  0.4140990000000  0.4704060000000  0.5252810000000 1.0
C      1  0.4121180000000  0.4673680000000  0.4785270000000 1.0
C      1  0.5228330000000  0.5443290000000  0.5794480000000 1.0
C      1  0.5807820000000  0.4706000000000  0.4480620000000 1.0
C      1  0.5457400000000  0.4366010000000  0.4406040000000 1.0
C      1  0.4945270000000  0.5481470000000  0.5791780000000 1.0
C      1  0.4290680000000  0.5396910000000  0.5387080000000 1.0
C      1  0.5626550000000  0.5648700000000  0.5139200000000 1.0
C      1  0.4132160000000  0.5162840000000  0.5437890000000 1.0
C      1  0.4657280000000  0.3997160000000  0.4959590000000 1.0
C      1  0.5889590000000  0.5246370000000  0.5171020000000 1.0
C      1  0.5022080000000  0.4473080000000  0.4206180000000 1.0
C      1  0.5188640000000  0.5653750000000  0.4384790000000 1.0
C      1  0.5734570000000  0.4804210000000  0.5530100000000 1.0
C      1  0.4929410000000  0.4775690000000  0.4417620000000 1.0
C      1  0.4426740000000  0.5460510000000  0.4384660000000 1.0
C      1  0.5192090000000  0.5845970000000  0.4607650000000 1.0
C      1  0.4200060000000  0.5494540000000  0.4846180000000 1.0
C      1  0.4444220000000  0.4279760000000  0.5315360000000 1.0
C      1  0.5009570000000  0.5208080000000  0.4322370000000 1.0
C      1  0.5618110000000  0.5654460000000  0.4574500000000 1.0
C      1  0.5056450000000  0.4746530000000  0.4720930000000 1.0
C      1  0.5020480000000  0.5386710000000  0.4955190000000 1.0
C      1  0.5317590000000  0.4139480000000  0.4780060000000 1.0
C      1  0.4965490000000  0.5007010000000  0.5235830000000 1.0
C      1  0.5512040000000  0.4580060000000  0.5515220000000 1.0
C      1  0.5791560000000  0.5241210000000  0.4507860000000 1.0
C      1  0.5185700000000  0.5930410000000  0.5060180000000 1.0
C      1  0.4955490000000  0.4382170000000  0.5077800000000 1.0
C      1  0.4540920000000  0.4387200000000  0.4715410000000 1.0
C      1  0.4804050000000  0.4246290000000  0.4824150000000 1.0
C      1  0.3987070000000  0.5218590000000  0.5224450000000 1.0
C      1  0.4901010000000  0.4268420000000  0.5607580000000 1.0
C      1  0.5451650000000  0.5071050000000  0.4153270000000 1.0
C      1  0.4759570000000  0.5438380000000  0.5330810000000 1.0
C      1  0.4742820000000  0.4851180000000  0.5131510000000 1.0
C      1  0.5314160000000  0.5282390000000  0.5323860000000 1.0
C      1  0.5148680000000  0.4761540000000  0.4178440000000 1.0
C      1  0.5958550000000  0.4861630000000  0.4834840000000 1.0
C      1  0.5291110000000  0.4779850000000  0.5452340000000 1.0
END
