TITL C-57381-9011-3 0.0180578903847731 125000 -105.7241920347 0 0 17 (C1) n - 1
REM
REM in /rds/project/t2_vol4/rds-t2-cs072/BORA/CARBON/from-Arr/AIRSS/Generating-Clusters/GAP-ML-2020/Only-C1/SD-CG/HFTN-CG
REM
REM
REM
REM
REM
REM ./C.cell (11c1c37f851c82e70ff6c80c92926a4b)
REM AIRSS Version 0.9.1 bugfix July 2018 build 013d7b7c2542+ Fri, 06 Jul 2018 19:26:36 +0100
REM compiler GCC version 9.3.0
REM options -cpp -mtune=generic -march=x86-64 -g -O0
REM seed 665712729 -1931433447 137831226 8126300 2010264692 -1464522430 -604060213 -503518440 -1731163027 682204632 -1246302996 682592951 -379486885 -16550074 -933625823 -1610761701 418948318 499092733 1547056141 -310271979 1497287770 -1703283049 713479574 1243275117 -207016341 -2015887515 -399369803 -355554402 -986860299 -1864487444 -355625289 1299770485 -1474512495
REM
CELL 1.54180   50.00000   50.00000   50.00000   90.00000   90.00000   90.00000
LATT -1
SFAC C  
C      1  0.5380620000000  0.4753800000000  0.5376360000000 1.0
C      1  0.4767070000000  0.4797830000000  0.5073130000000 1.0
C      1  0.4674010000000  0.4646760000000  0.4653970000000 1.0
C      1  0.4584180000000  0.4728300000000  0.4889210000000 1.0
C      1  0.4788890000000  0.4607650000000  0.4428860000000 1.0
C      1  0.5345440000000  0.5207450000000  0.4961970000000 1.0
C      1  0.5144870000000  0.5009930000000  0.4844880000000 1.0
C      1  0.4994280000000  0.5072010000000  0.4629240000000 1.0
C      1  0.4775760000000  0.5140860000000  0.5451890000000 1.0
C      1  0.5020510000000  0.5466060000000  0.5165460000000 1.0
C      1  0.4813840000000  0.5112760000000  0.4455270000000 1.0
C      1  0.4844840000000  0.4889730000000  0.5367100000000 1.0
C      1  0.4856480000000  0.5356500000000  0.5335590000000 1.0
C      1  0.5588660000000  0.5114970000000  0.5027430000000 1.0
C      1  0.5135640000000  0.4814320000000  0.5304520000000 1.0
C      1  0.5052100000000  0.4815170000000  0.5013490000000 1.0
C      1  0.5232820000000  0.5465910000000  0.5021630000000 1.0
END
