TITL C-57621-9871-8 -0.0922152155089227 125000 -185.439545861914 0 0 29 (C1) n - 1
REM
REM in /rds/project/t2_vol4/rds-t2-cs072/BORA/CARBON/from-Arr/AIRSS/Generating-Clusters/GAP-ML-2020/Only-C1/SD-CG/HFTN-CG
REM
REM
REM
REM
REM
REM ./C.cell (11c1c37f851c82e70ff6c80c92926a4b)
REM AIRSS Version 0.9.1 bugfix July 2018 build 013d7b7c2542+ Fri, 06 Jul 2018 19:26:36 +0100
REM compiler GCC version 9.3.0
REM options -cpp -mtune=generic -march=x86-64 -g -O0
REM seed -1372262743 1190099129 -713103440 929464737 121032600 1649529608 -2010419524 56721838 499712117 2028949124 -74332361 2069761402 1845207965 -1367681384 -960456737 -1260327617 1485795137 -1889611743 1926460225 -215886539 1967361235 1942405099 -1362932484 -1796607619 -290563360 -28756953 919925196 569666963 -241594938 -436875055 -1214758459 890639910 -1513170399
REM
CELL 1.54180   50.00000   50.00000   50.00000   90.00000   90.00000   90.00000
LATT -1
SFAC C  
C      1  0.4762610000000  0.5187560000000  0.5562610000000 1.0
C      1  0.4972430000000  0.4494840000000  0.4861670000000 1.0
C      1  0.4925650000000  0.4950390000000  0.4888440000000 1.0
C      1  0.5643850000000  0.4788420000000  0.4976470000000 1.0
C      1  0.4770720000000  0.4686340000000  0.4895270000000 1.0
C      1  0.4507500000000  0.4801150000000  0.4978600000000 1.0
C      1  0.4951270000000  0.5410900000000  0.4997970000000 1.0
C      1  0.5190290000000  0.4567410000000  0.5052850000000 1.0
C      1  0.5182970000000  0.5321740000000  0.5132120000000 1.0
C      1  0.5599470000000  0.5038980000000  0.5021390000000 1.0
C      1  0.5289500000000  0.4739390000000  0.4658330000000 1.0
C      1  0.4666650000000  0.5292770000000  0.4744450000000 1.0
C      1  0.4903630000000  0.5469330000000  0.4721300000000 1.0
C      1  0.5348980000000  0.5155710000000  0.4971710000000 1.0
C      1  0.5421720000000  0.4631350000000  0.4895630000000 1.0
C      1  0.5128210000000  0.5303600000000  0.5421720000000 1.0
C      1  0.5153530000000  0.4612970000000  0.5323860000000 1.0
C      1  0.5031370000000  0.5137830000000  0.4535940000000 1.0
C      1  0.5099010000000  0.4795320000000  0.5497760000000 1.0
C      1  0.4756220000000  0.5044760000000  0.4624630000000 1.0
C      1  0.4564970000000  0.5025800000000  0.5164810000000 1.0
C      1  0.4540950000000  0.5079290000000  0.5431810000000 1.0
C      1  0.5186970000000  0.5005880000000  0.4744670000000 1.0
C      1  0.4771740000000  0.5176990000000  0.5005380000000 1.0
C      1  0.5035340000000  0.5413860000000  0.4483270000000 1.0
C      1  0.5036850000000  0.5054560000000  0.5555670000000 1.0
C      1  0.5084410000000  0.4567340000000  0.4615060000000 1.0
C      1  0.4581940000000  0.4805250000000  0.4711070000000 1.0
C      1  0.4891250000000  0.5440250000000  0.5525530000000 1.0
END
