TITL C-57536-5782-4 -145.387640708432 125000 -474.298011371523 0 0 68 (C1) n - 1
REM
REM in /rds/project/t2_vol4/rds-t2-cs072/BORA/CARBON/from-Arr/AIRSS/Generating-Clusters/GAP-ML-2020/Only-C1/SD-CG/HFTN-CG
REM
REM
REM
REM
REM
REM ./C.cell (11c1c37f851c82e70ff6c80c92926a4b)
REM AIRSS Version 0.9.1 bugfix July 2018 build 013d7b7c2542+ Fri, 06 Jul 2018 19:26:36 +0100
REM compiler GCC version 9.3.0
REM options -cpp -mtune=generic -march=x86-64 -g -O0
REM seed -2011401436 -810596820 389478129 -1950755463 -934640557 73976860 -1363311011 -1613936697 260920869 -147325529 803812693 625817721 -649275641 449964035 -854423445 -1512020675 2072577933 876878407 -251259983 707946468 -1084027458 916162246 -41796634 -1222525985 -968019411 1060448633 549135995 -1600740897 976966687 -1152864426 1297345068 206274165 -1587291934
REM
CELL 1.54180   50.00000   50.00000   50.00000   90.00000   90.00000   90.00000
LATT -1
SFAC C  
C      1  0.5427020000000  0.4645590000000  0.5555060000000 1.0
C      1  0.4317760000000  0.5398420000000  0.5143470000000 1.0
C      1  0.5382570000000  0.4497300000000  0.4602340000000 1.0
C      1  0.4775860000000  0.4705150000000  0.4801270000000 1.0
C      1  0.4461010000000  0.4685140000000  0.5198630000000 1.0
C      1  0.4578190000000  0.4932500000000  0.5554530000000 1.0
C      1  0.4556480000000  0.5474240000000  0.4727780000000 1.0
C      1  0.5508110000000  0.5287860000000  0.5427440000000 1.0
C      1  0.5177070000000  0.5079700000000  0.5751890000000 1.0
C      1  0.4940790000000  0.5209240000000  0.5669310000000 1.0
C      1  0.4403920000000  0.5030190000000  0.4845690000000 1.0
C      1  0.4459110000000  0.5610870000000  0.5246060000000 1.0
C      1  0.4349820000000  0.4933680000000  0.5115520000000 1.0
C      1  0.4430040000000  0.4558640000000  0.4709370000000 1.0
C      1  0.4723420000000  0.4992430000000  0.4790190000000 1.0
C      1  0.4573420000000  0.4660650000000  0.5462600000000 1.0
C      1  0.4352890000000  0.5094370000000  0.5554750000000 1.0
C      1  0.5615920000000  0.4644490000000  0.5092530000000 1.0
C      1  0.5165960000000  0.5402480000000  0.4360780000000 1.0
C      1  0.5287700000000  0.4368480000000  0.4832170000000 1.0
C      1  0.4700260000000  0.5366410000000  0.4502760000000 1.0
C      1  0.4918400000000  0.4445190000000  0.4533130000000 1.0
C      1  0.5601030000000  0.4759520000000  0.5363830000000 1.0
C      1  0.5107640000000  0.5241480000000  0.4145650000000 1.0
C      1  0.5179020000000  0.4798170000000  0.5641150000000 1.0
C      1  0.4805780000000  0.4498290000000  0.5518690000000 1.0
C      1  0.5132690000000  0.5015450000000  0.4957550000000 1.0
C      1  0.5004390000000  0.4338560000000  0.4798800000000 1.0
C      1  0.4847400000000  0.4473550000000  0.5000050000000 1.0
C      1  0.5030440000000  0.4540610000000  0.5697880000000 1.0
C      1  0.5234960000000  0.5601110000000  0.5148640000000 1.0
C      1  0.4369700000000  0.5321460000000  0.4871230000000 1.0
C      1  0.5223120000000  0.5659920000000  0.4868590000000 1.0
C      1  0.4547810000000  0.4840770000000  0.4423050000000 1.0
C      1  0.5481660000000  0.5453250000000  0.5194110000000 1.0
C      1  0.5241130000000  0.4957110000000  0.5200040000000 1.0
C      1  0.5236550000000  0.4405570000000  0.5300820000000 1.0
C      1  0.5306310000000  0.5319060000000  0.5630550000000 1.0
C      1  0.4827110000000  0.5052040000000  0.5443530000000 1.0
C      1  0.4290080000000  0.5146920000000  0.5296440000000 1.0
C      1  0.5440860000000  0.5525740000000  0.4745170000000 1.0
C      1  0.5668860000000  0.4818030000000  0.4857650000000 1.0
C      1  0.5157950000000  0.4570970000000  0.4437220000000 1.0
C      1  0.5521720000000  0.5026120000000  0.5329140000000 1.0
C      1  0.5287900000000  0.4407280000000  0.5576490000000 1.0
C      1  0.5593530000000  0.5373460000000  0.4936060000000 1.0
C      1  0.5419320000000  0.5395090000000  0.4498430000000 1.0
C      1  0.4983840000000  0.5537240000000  0.5297550000000 1.0
C      1  0.4737100000000  0.5071560000000  0.4463200000000 1.0
C      1  0.4942620000000  0.5515460000000  0.4496270000000 1.0
C      1  0.5419060000000  0.4428090000000  0.5076670000000 1.0
C      1  0.5002000000000  0.5039440000000  0.4305760000000 1.0
C      1  0.5570220000000  0.4707350000000  0.4612360000000 1.0
C      1  0.5560080000000  0.5150870000000  0.4530310000000 1.0
C      1  0.4968670000000  0.4525470000000  0.5264030000000 1.0
C      1  0.4557840000000  0.4543530000000  0.4970410000000 1.0
C      1  0.4973190000000  0.5663690000000  0.4736490000000 1.0
C      1  0.5667280000000  0.5116530000000  0.4801580000000 1.0
C      1  0.5476160000000  0.4905340000000  0.4424810000000 1.0
C      1  0.4720540000000  0.5649790000000  0.5166480000000 1.0
C      1  0.4667440000000  0.4589220000000  0.4537510000000 1.0
C      1  0.4895050000000  0.5136720000000  0.4961650000000 1.0
C      1  0.5205430000000  0.4833760000000  0.4342060000000 1.0
C      1  0.4728730000000  0.5651010000000  0.4878480000000 1.0
C      1  0.5047130000000  0.4844040000000  0.5369970000000 1.0
C      1  0.4815180000000  0.5244820000000  0.5213100000000 1.0
C      1  0.5059310000000  0.5453880000000  0.5567010000000 1.0
C      1  0.4340460000000  0.4829650000000  0.4626260000000 1.0
END
