TITL C-57625-9947-1 -145.517168789263 125000 -786.458213681752 0 0 113 (C1) n - 1
REM
REM in /rds/project/t2_vol4/rds-t2-cs072/BORA/CARBON/from-Arr/AIRSS/Generating-Clusters/GAP-ML-2020/Only-C1/SD-CG/HFTN-CG
REM
REM
REM
REM
REM
REM ./C.cell (11c1c37f851c82e70ff6c80c92926a4b)
REM AIRSS Version 0.9.1 bugfix July 2018 build 013d7b7c2542+ Fri, 06 Jul 2018 19:26:36 +0100
REM compiler GCC version 9.3.0
REM options -cpp -mtune=generic -march=x86-64 -g -O0
REM seed 1589643271 -779342970 1700414552 440791655 447300089 -679243975 -279922901 1965636206 -43051645 -706427384 -1999488698 -411590116 -1754493746 1386795958 1256853742 1747480393 1434791998 -1270883714 -1051995784 -1224660330 1999226579 1873755815 -1070375621 354306472 2061237869 1220133259 1004849547 247116135 1661158848 -1255167418 -1190728791 1193066372 573490944
REM
CELL 1.54180   50.00000   50.00000   50.00000   90.00000   90.00000   90.00000
LATT -1
SFAC C  
C      1  0.5225670000000  0.5196420000000  0.5107040000000 1.0
C      1  0.4620230000000  0.4983170000000  0.4733010000000 1.0
C      1  0.5568060000000  0.5320960000000  0.5487350000000 1.0
C      1  0.5353160000000  0.5462630000000  0.4394310000000 1.0
C      1  0.5879570000000  0.5283310000000  0.4825060000000 1.0
C      1  0.5723610000000  0.5528290000000  0.4791220000000 1.0
C      1  0.5642830000000  0.5621690000000  0.5053920000000 1.0
C      1  0.5201920000000  0.4861340000000  0.4768680000000 1.0
C      1  0.4211150000000  0.5242170000000  0.4740450000000 1.0
C      1  0.4787030000000  0.4327970000000  0.4524180000000 1.0
C      1  0.5895230000000  0.5053940000000  0.4647240000000 1.0
C      1  0.5097030000000  0.5597250000000  0.5640910000000 1.0
C      1  0.4706170000000  0.5765870000000  0.5014300000000 1.0
C      1  0.4723950000000  0.5681880000000  0.5296110000000 1.0
C      1  0.4631650000000  0.5607350000000  0.4529780000000 1.0
C      1  0.4912310000000  0.4411240000000  0.5407420000000 1.0
C      1  0.5381080000000  0.5095690000000  0.5337440000000 1.0
C      1  0.4807310000000  0.5174610000000  0.4799280000000 1.0
C      1  0.4732800000000  0.5278020000000  0.5808090000000 1.0
C      1  0.4577490000000  0.4671510000000  0.5053530000000 1.0
C      1  0.4950790000000  0.4220240000000  0.5187040000000 1.0
C      1  0.5423460000000  0.5810020000000  0.5020110000000 1.0
C      1  0.4985970000000  0.5007440000000  0.5172170000000 1.0
C      1  0.5600610000000  0.4989610000000  0.4945680000000 1.0
C      1  0.5506580000000  0.4339100000000  0.4699530000000 1.0
C      1  0.5060410000000  0.4758730000000  0.4995390000000 1.0
C      1  0.5242260000000  0.5309100000000  0.4645070000000 1.0
C      1  0.4121240000000  0.4729810000000  0.5330890000000 1.0
C      1  0.5196190000000  0.5107180000000  0.5580140000000 1.0
C      1  0.5005900000000  0.5766680000000  0.5415340000000 1.0
C      1  0.4322820000000  0.5458650000000  0.4899530000000 1.0
C      1  0.4689140000000  0.4857720000000  0.5516200000000 1.0
C      1  0.4962600000000  0.5377180000000  0.4134660000000 1.0
C      1  0.4514960000000  0.5394580000000  0.4364140000000 1.0
C      1  0.5064830000000  0.5799780000000  0.4705520000000 1.0
C      1  0.5603210000000  0.4495090000000  0.5403520000000 1.0
C      1  0.4460400000000  0.4383180000000  0.5427500000000 1.0
C      1  0.4867590000000  0.5449250000000  0.5186740000000 1.0
C      1  0.5761610000000  0.4696740000000  0.5264710000000 1.0
C      1  0.5514810000000  0.4497510000000  0.4462910000000 1.0
C      1  0.5788310000000  0.4801600000000  0.4778810000000 1.0
C      1  0.5033100000000  0.4867300000000  0.5928310000000 1.0
C      1  0.4904470000000  0.5703080000000  0.4476160000000 1.0
C      1  0.4696340000000  0.5266490000000  0.4181070000000 1.0
C      1  0.5014340000000  0.5136710000000  0.4613170000000 1.0
C      1  0.4306580000000  0.5218150000000  0.4467700000000 1.0
C      1  0.4447940000000  0.4280070000000  0.5142320000000 1.0
C      1  0.5772120000000  0.4970650000000  0.4388150000000 1.0
C      1  0.4478280000000  0.5068580000000  0.5455290000000 1.0
C      1  0.4743780000000  0.4518860000000  0.5816340000000 1.0
C      1  0.5844580000000  0.4968950000000  0.5345610000000 1.0
C      1  0.4496380000000  0.5532130000000  0.5400460000000 1.0
C      1  0.4980240000000  0.4914380000000  0.5454080000000 1.0
C      1  0.4128200000000  0.4710280000000  0.5055420000000 1.0
C      1  0.4539890000000  0.5317870000000  0.5591320000000 1.0
C      1  0.5154920000000  0.5802580000000  0.5162100000000 1.0
C      1  0.4912560000000  0.5484480000000  0.5819360000000 1.0
C      1  0.4444420000000  0.4936710000000  0.4967660000000 1.0
C      1  0.4309580000000  0.4937080000000  0.4391530000000 1.0
C      1  0.4167490000000  0.4932020000000  0.4844110000000 1.0
C      1  0.5627620000000  0.4400450000000  0.4944240000000 1.0
C      1  0.5126030000000  0.5482950000000  0.5080880000000 1.0
C      1  0.5207710000000  0.4220340000000  0.5046960000000 1.0
C      1  0.5692930000000  0.5065970000000  0.5572160000000 1.0
C      1  0.4953130000000  0.5882460000000  0.4957840000000 1.0
C      1  0.5437100000000  0.4379170000000  0.5159380000000 1.0
C      1  0.5302790000000  0.5398510000000  0.5620620000000 1.0
C      1  0.4591620000000  0.4562260000000  0.4473560000000 1.0
C      1  0.5076720000000  0.4322210000000  0.4518520000000 1.0
C      1  0.4595240000000  0.4774830000000  0.5800660000000 1.0
C      1  0.4764310000000  0.4299140000000  0.4799940000000 1.0
C      1  0.5080110000000  0.5570310000000  0.4301360000000 1.0
C      1  0.4776140000000  0.5201200000000  0.5091210000000 1.0
C      1  0.5812890000000  0.4602690000000  0.4990810000000 1.0
C      1  0.5416050000000  0.5257260000000  0.4179170000000 1.0
C      1  0.4811540000000  0.4613730000000  0.4887350000000 1.0
C      1  0.5151440000000  0.5175830000000  0.4074760000000 1.0
C      1  0.4697060000000  0.4186750000000  0.5045950000000 1.0
C      1  0.4350380000000  0.4548480000000  0.4657830000000 1.0
C      1  0.5001980000000  0.4608620000000  0.5844230000000 1.0
C      1  0.5653480000000  0.5116670000000  0.4181260000000 1.0
C      1  0.5489370000000  0.4849560000000  0.5191860000000 1.0
C      1  0.4721070000000  0.4978260000000  0.4146660000000 1.0
C      1  0.5119400000000  0.4734570000000  0.4270540000000 1.0
C      1  0.4534240000000  0.4805990000000  0.4274880000000 1.0
C      1  0.5434980000000  0.4614730000000  0.5596490000000 1.0
C      1  0.5244070000000  0.4239020000000  0.4753990000000 1.0
C      1  0.5273220000000  0.4974470000000  0.5820040000000 1.0
C      1  0.4310680000000  0.4737100000000  0.5721230000000 1.0
C      1  0.5138150000000  0.5525250000000  0.4801040000000 1.0
C      1  0.4201430000000  0.4780940000000  0.4599640000000 1.0
C      1  0.5025830000000  0.4856590000000  0.4530890000000 1.0
C      1  0.4356400000000  0.5407450000000  0.5176150000000 1.0
C      1  0.5706670000000  0.5416500000000  0.5245000000000 1.0
C      1  0.5343780000000  0.5107110000000  0.4847290000000 1.0
C      1  0.4699130000000  0.4336340000000  0.5608830000000 1.0
C      1  0.4535540000000  0.5641240000000  0.4806570000000 1.0
C      1  0.4762140000000  0.4750220000000  0.4627570000000 1.0
C      1  0.4239580000000  0.4533590000000  0.5529890000000 1.0
C      1  0.5809540000000  0.5179110000000  0.5107430000000 1.0
C      1  0.5534070000000  0.5633670000000  0.4587580000000 1.0
C      1  0.4769300000000  0.4996240000000  0.5898560000000 1.0
C      1  0.4336930000000  0.4498010000000  0.4958010000000 1.0
C      1  0.5011300000000  0.4923380000000  0.4090220000000 1.0
C      1  0.5358990000000  0.5800650000000  0.4739400000000 1.0
C      1  0.5506310000000  0.4866080000000  0.5708780000000 1.0
C      1  0.5132170000000  0.4627640000000  0.5478260000000 1.0
C      1  0.5245770000000  0.4492100000000  0.4347120000000 1.0
C      1  0.5269880000000  0.4646330000000  0.5181110000000 1.0
C      1  0.4653290000000  0.4622280000000  0.5334560000000 1.0
C      1  0.4224850000000  0.4922380000000  0.5520730000000 1.0
C      1  0.5703200000000  0.4707730000000  0.4503800000000 1.0
C      1  0.4485330000000  0.5144720000000  0.5172160000000 1.0
END
