TITL C-57614-9816-1 -585.43492796003 125000 -841.949454528509 0 0 121 (C1) n - 1
REM
REM in /rds/project/t2_vol4/rds-t2-cs072/BORA/CARBON/from-Arr/AIRSS/Generating-Clusters/GAP-ML-2020/Only-C1/SD-CG/HFTN-CG
REM
REM
REM
REM
REM
REM ./C.cell (11c1c37f851c82e70ff6c80c92926a4b)
REM AIRSS Version 0.9.1 bugfix July 2018 build 013d7b7c2542+ Fri, 06 Jul 2018 19:26:36 +0100
REM compiler GCC version 9.3.0
REM options -cpp -mtune=generic -march=x86-64 -g -O0
REM seed 1748486616 -1561587131 2023338965 -363840306 1006819817 550300296 -816026222 -1771623051 1236473523 1783601843 489267395 -1317584554 -252107597 -82179807 -676788369 -1739650562 -554201350 -261685348 -1347854885 1730147330 -1901011669 1905630291 -976782402 -679275523 -1740575120 826061518 137578085 1833330275 -1489025138 -1688822457 177918952 -1591360048 111012565
REM
CELL 1.54180   50.00000   50.00000   50.00000   90.00000   90.00000   90.00000
LATT -1
SFAC C  
C      1  0.4348550000000  0.5478500000000  0.5017860000000 1.0
C      1  0.4550100000000  0.5237190000000  0.4237910000000 1.0
C      1  0.4109830000000  0.5319050000000  0.5063470000000 1.0
C      1  0.5788520000000  0.4931010000000  0.5025890000000 1.0
C      1  0.5254060000000  0.4143680000000  0.5129830000000 1.0
C      1  0.4711880000000  0.5535140000000  0.5586860000000 1.0
C      1  0.5357370000000  0.5025460000000  0.5903120000000 1.0
C      1  0.5101330000000  0.5196940000000  0.5568290000000 1.0
C      1  0.4637360000000  0.5822970000000  0.4654630000000 1.0
C      1  0.5656480000000  0.5045850000000  0.5471250000000 1.0
C      1  0.5493090000000  0.4584890000000  0.5050570000000 1.0
C      1  0.4781120000000  0.5298590000000  0.4717010000000 1.0
C      1  0.4206890000000  0.4459010000000  0.4739890000000 1.0
C      1  0.4967590000000  0.4129350000000  0.5212180000000 1.0
C      1  0.5304380000000  0.4734850000000  0.5470570000000 1.0
C      1  0.5868040000000  0.5203670000000  0.4966170000000 1.0
C      1  0.5356010000000  0.4013280000000  0.4892960000000 1.0
C      1  0.4576060000000  0.5085800000000  0.4853950000000 1.0
C      1  0.5196770000000  0.4659230000000  0.4309410000000 1.0
C      1  0.4842290000000  0.4802220000000  0.5193390000000 1.0
C      1  0.4858450000000  0.5271050000000  0.5146450000000 1.0
C      1  0.5339580000000  0.4609690000000  0.4579270000000 1.0
C      1  0.4694630000000  0.4801030000000  0.4238640000000 1.0
C      1  0.4179480000000  0.4894180000000  0.5300070000000 1.0
C      1  0.4701870000000  0.5299410000000  0.5759530000000 1.0
C      1  0.5763160000000  0.4843740000000  0.5307950000000 1.0
C      1  0.5706210000000  0.5444170000000  0.5070410000000 1.0
C      1  0.5215330000000  0.5572530000000  0.5010750000000 1.0
C      1  0.5261380000000  0.5322900000000  0.4519440000000 1.0
C      1  0.4900100000000  0.4686280000000  0.4673120000000 1.0
C      1  0.5538090000000  0.4390280000000  0.4630030000000 1.0
C      1  0.4308810000000  0.5178540000000  0.4675860000000 1.0
C      1  0.4159350000000  0.4640130000000  0.5427610000000 1.0
C      1  0.4941580000000  0.4336640000000  0.5411950000000 1.0
C      1  0.5041120000000  0.5140880000000  0.4117430000000 1.0
C      1  0.5451850000000  0.4150670000000  0.5358060000000 1.0
C      1  0.4433120000000  0.5209710000000  0.5798160000000 1.0
C      1  0.4468900000000  0.5627860000000  0.4534880000000 1.0
C      1  0.5622360000000  0.4329110000000  0.5420450000000 1.0
C      1  0.5115930000000  0.4489020000000  0.4752740000000 1.0
C      1  0.4424500000000  0.5076350000000  0.5342600000000 1.0
C      1  0.5345970000000  0.4877440000000  0.4707340000000 1.0
C      1  0.5023820000000  0.5900960000000  0.4741020000000 1.0
C      1  0.4900030000000  0.4634760000000  0.4366930000000 1.0
C      1  0.4627940000000  0.4603350000000  0.4742310000000 1.0
C      1  0.5666510000000  0.5346080000000  0.5815110000000 1.0
C      1  0.5260500000000  0.4918800000000  0.4171690000000 1.0
C      1  0.4402440000000  0.4954680000000  0.5882450000000 1.0
C      1  0.4599990000000  0.5507230000000  0.4302930000000 1.0
C      1  0.4865640000000  0.5608440000000  0.4273850000000 1.0
C      1  0.5603020000000  0.5864950000000  0.4462360000000 1.0
C      1  0.5733010000000  0.5638410000000  0.4838600000000 1.0
C      1  0.5695120000000  0.4523200000000  0.4824050000000 1.0
C      1  0.4620230000000  0.4297030000000  0.4667250000000 1.0
C      1  0.4450040000000  0.5549020000000  0.5474350000000 1.0
C      1  0.4545520000000  0.5223200000000  0.5110160000000 1.0
C      1  0.4354650000000  0.4255210000000  0.5267720000000 1.0
C      1  0.4365340000000  0.5085950000000  0.4395730000000 1.0
C      1  0.5429340000000  0.5486420000000  0.5749890000000 1.0
C      1  0.4781120000000  0.4097590000000  0.5004610000000 1.0
C      1  0.4484940000000  0.4141570000000  0.5041830000000 1.0
C      1  0.4883790000000  0.5690890000000  0.5398340000000 1.0
C      1  0.5417040000000  0.5343200000000  0.4987210000000 1.0
C      1  0.5225100000000  0.4459610000000  0.5040360000000 1.0
C      1  0.5326430000000  0.5491220000000  0.4293830000000 1.0
C      1  0.5275620000000  0.5808760000000  0.4837490000000 1.0
C      1  0.5485150000000  0.5322220000000  0.4697040000000 1.0
C      1  0.4686050000000  0.4924380000000  0.5423060000000 1.0
C      1  0.5082490000000  0.5438740000000  0.4164890000000 1.0
C      1  0.5676910000000  0.5497100000000  0.5362370000000 1.0
C      1  0.4876770000000  0.5815210000000  0.4494930000000 1.0
C      1  0.4452130000000  0.5670450000000  0.5216910000000 1.0
C      1  0.4950430000000  0.4800330000000  0.5804070000000 1.0
C      1  0.4848320000000  0.4151390000000  0.4728220000000 1.0
C      1  0.4711690000000  0.5788180000000  0.5177350000000 1.0
C      1  0.4643310000000  0.4789460000000  0.4963470000000 1.0
C      1  0.5428410000000  0.5589070000000  0.5477280000000 1.0
C      1  0.4858320000000  0.5048400000000  0.5654460000000 1.0
C      1  0.4751950000000  0.4597050000000  0.5792530000000 1.0
C      1  0.5770230000000  0.5294460000000  0.5556630000000 1.0
C      1  0.5576280000000  0.4611860000000  0.5338740000000 1.0
C      1  0.4143570000000  0.4445440000000  0.5219120000000 1.0
C      1  0.5578300000000  0.5620920000000  0.4351470000000 1.0
C      1  0.4340800000000  0.5296730000000  0.5540350000000 1.0
C      1  0.4315500000000  0.4538680000000  0.5641290000000 1.0
C      1  0.5341250000000  0.5033910000000  0.5421440000000 1.0
C      1  0.5017770000000  0.5201230000000  0.4636990000000 1.0
C      1  0.4775420000000  0.5882210000000  0.4907600000000 1.0
C      1  0.5474330000000  0.4875480000000  0.4978370000000 1.0
C      1  0.5596690000000  0.5117860000000  0.5982770000000 1.0
C      1  0.5440390000000  0.5082660000000  0.4522700000000 1.0
C      1  0.5183900000000  0.5616540000000  0.5309260000000 1.0
C      1  0.4985420000000  0.5404500000000  0.5385120000000 1.0
C      1  0.4374530000000  0.4225680000000  0.4792630000000 1.0
C      1  0.5374660000000  0.4157640000000  0.4668440000000 1.0
C      1  0.5799560000000  0.4929630000000  0.4294420000000 1.0
C      1  0.4766390000000  0.5061810000000  0.4144690000000 1.0
C      1  0.5053450000000  0.4397960000000  0.4321460000000 1.0
C      1  0.5230750000000  0.4786110000000  0.5772820000000 1.0
C      1  0.4083460000000  0.4575730000000  0.4969190000000 1.0
C      1  0.4097400000000  0.5108910000000  0.4887930000000 1.0
C      1  0.5313410000000  0.5077910000000  0.5130710000000 1.0
C      1  0.5020180000000  0.5024620000000  0.5072310000000 1.0
C      1  0.4468650000000  0.4328260000000  0.5529410000000 1.0
C      1  0.4936590000000  0.5431090000000  0.4923130000000 1.0
C      1  0.4074950000000  0.4862720000000  0.5032820000000 1.0
C      1  0.5056010000000  0.4943370000000  0.4763970000000 1.0
C      1  0.5917270000000  0.5215080000000  0.4690630000000 1.0
C      1  0.5088540000000  0.4241470000000  0.4579240000000 1.0
C      1  0.5071080000000  0.4583600000000  0.5285890000000 1.0
C      1  0.5233050000000  0.5284720000000  0.5809390000000 1.0
C      1  0.4477190000000  0.4704040000000  0.5816870000000 1.0
C      1  0.4742920000000  0.4368890000000  0.5611960000000 1.0
C      1  0.5738500000000  0.5449540000000  0.4612770000000 1.0
C      1  0.5541480000000  0.5838620000000  0.4741280000000 1.0
C      1  0.5850460000000  0.4761990000000  0.4784660000000 1.0
C      1  0.4430440000000  0.4809940000000  0.4361850000000 1.0
C      1  0.5538910000000  0.4996950000000  0.4258070000000 1.0
C      1  0.4337330000000  0.5467350000000  0.4719380000000 1.0
C      1  0.5902210000000  0.4949180000000  0.4565280000000 1.0
C      1  0.4372170000000  0.4633950000000  0.4572360000000 1.0
END
