TITL C-57530-5536-5 -0.0574103814134496 125000 -726.948635778753 0 0 104 (C1) n - 1
REM
REM in /rds/project/t2_vol4/rds-t2-cs072/BORA/CARBON/from-Arr/AIRSS/Generating-Clusters/GAP-ML-2020/Only-C1/SD-CG/HFTN-CG
REM
REM
REM
REM
REM
REM ./C.cell (11c1c37f851c82e70ff6c80c92926a4b)
REM AIRSS Version 0.9.1 bugfix July 2018 build 013d7b7c2542+ Fri, 06 Jul 2018 19:26:36 +0100
REM compiler GCC version 9.3.0
REM options -cpp -mtune=generic -march=x86-64 -g -O0
REM seed -2070559356 -734167454 -1056104684 -1151191406 -1314634876 1846127482 -164200165 -731899184 176502472 91121652 1848753896 -927234133 -509926101 -368859166 -539400995 1617947314 996994010 -1763723552 75948744 -668403512 2116070502 -2019528022 -1791787074 1813090957 877911481 -21674665 -657610693 -1521754601 891933664 -1008211964 346556671 1577833999 -1294296791
REM
CELL 1.54180   50.00000   50.00000   50.00000   90.00000   90.00000   90.00000
LATT -1
SFAC C  
C      1  0.4840650000000  0.5120460000000  0.5427690000000 1.0
C      1  0.5179290000000  0.5534940000000  0.4340630000000 1.0
C      1  0.4636620000000  0.5030630000000  0.4476530000000 1.0
C      1  0.5174750000000  0.4467930000000  0.5693480000000 1.0
C      1  0.5904130000000  0.4538470000000  0.5353110000000 1.0
C      1  0.5428680000000  0.5737860000000  0.5125110000000 1.0
C      1  0.5424760000000  0.5683930000000  0.4630120000000 1.0
C      1  0.5303670000000  0.4203050000000  0.5114760000000 1.0
C      1  0.4922470000000  0.5426540000000  0.4306820000000 1.0
C      1  0.5720400000000  0.4948140000000  0.5577100000000 1.0
C      1  0.4901530000000  0.5235820000000  0.4966370000000 1.0
C      1  0.5493750000000  0.5383720000000  0.5456710000000 1.0
C      1  0.4108970000000  0.5269130000000  0.5062190000000 1.0
C      1  0.4885920000000  0.5376800000000  0.5746390000000 1.0
C      1  0.5281100000000  0.5281150000000  0.5258430000000 1.0
C      1  0.5790500000000  0.4968940000000  0.4893360000000 1.0
C      1  0.4261270000000  0.5374290000000  0.5284650000000 1.0
C      1  0.5492510000000  0.4849780000000  0.5705910000000 1.0
C      1  0.5359390000000  0.4702820000000  0.5096480000000 1.0
C      1  0.5417000000000  0.5414970000000  0.4488960000000 1.0
C      1  0.4343620000000  0.4667580000000  0.4526640000000 1.0
C      1  0.4644230000000  0.5100570000000  0.4991620000000 1.0
C      1  0.4956460000000  0.4786360000000  0.4029240000000 1.0
C      1  0.5035920000000  0.5439950000000  0.5196460000000 1.0
C      1  0.5881340000000  0.4801510000000  0.5377830000000 1.0
C      1  0.4421830000000  0.5224000000000  0.4446960000000 1.0
C      1  0.5255000000000  0.5015820000000  0.5687640000000 1.0
C      1  0.4820340000000  0.4240360000000  0.4792100000000 1.0
C      1  0.4901100000000  0.5879490000000  0.5098410000000 1.0
C      1  0.5141380000000  0.3991740000000  0.5044910000000 1.0
C      1  0.5275060000000  0.4438370000000  0.4946340000000 1.0
C      1  0.4640770000000  0.4908190000000  0.4779140000000 1.0
C      1  0.5396920000000  0.4351880000000  0.5552060000000 1.0
C      1  0.4839050000000  0.4704100000000  0.5177320000000 1.0
C      1  0.4696170000000  0.4568980000000  0.5606500000000 1.0
C      1  0.5780570000000  0.5216570000000  0.4728100000000 1.0
C      1  0.4188020000000  0.5147220000000  0.4586640000000 1.0
C      1  0.4287730000000  0.5151000000000  0.5484250000000 1.0
C      1  0.4181740000000  0.4560020000000  0.4961570000000 1.0
C      1  0.5479400000000  0.4935950000000  0.4933220000000 1.0
C      1  0.5648780000000  0.5209950000000  0.4480330000000 1.0
C      1  0.5668030000000  0.5402820000000  0.4915380000000 1.0
C      1  0.4937190000000  0.4009580000000  0.4893650000000 1.0
C      1  0.5459530000000  0.4497150000000  0.4526270000000 1.0
C      1  0.4160040000000  0.4872660000000  0.4631330000000 1.0
C      1  0.5812010000000  0.4702420000000  0.4756220000000 1.0
C      1  0.4860480000000  0.4725100000000  0.4866950000000 1.0
C      1  0.4139930000000  0.4934100000000  0.5370190000000 1.0
C      1  0.5657440000000  0.4708370000000  0.4504880000000 1.0
C      1  0.5142560000000  0.5047360000000  0.5391280000000 1.0
C      1  0.4428840000000  0.5596930000000  0.5214270000000 1.0
C      1  0.5276320000000  0.5280830000000  0.4728010000000 1.0
C      1  0.5506820000000  0.4375580000000  0.4777120000000 1.0
C      1  0.4344290000000  0.5555520000000  0.4738080000000 1.0
C      1  0.5429280000000  0.5245000000000  0.5001300000000 1.0
C      1  0.4680530000000  0.4957470000000  0.5234640000000 1.0
C      1  0.5128580000000  0.4950890000000  0.4429320000000 1.0
C      1  0.5155310000000  0.5745620000000  0.4532100000000 1.0
C      1  0.4730040000000  0.4466010000000  0.5334360000000 1.0
C      1  0.4776310000000  0.5096020000000  0.5726270000000 1.0
C      1  0.4989510000000  0.4901620000000  0.5803520000000 1.0
C      1  0.4482510000000  0.5694000000000  0.4936890000000 1.0
C      1  0.4072070000000  0.4808210000000  0.4896980000000 1.0
C      1  0.5560070000000  0.5671400000000  0.4876080000000 1.0
C      1  0.5847290000000  0.5024820000000  0.5191470000000 1.0
C      1  0.5331930000000  0.5301020000000  0.5725650000000 1.0
C      1  0.4760060000000  0.5904500000000  0.5332840000000 1.0
C      1  0.4647600000000  0.5657360000000  0.5386150000000 1.0
C      1  0.5434680000000  0.4578690000000  0.5705100000000 1.0
C      1  0.4051660000000  0.4994980000000  0.5107620000000 1.0
C      1  0.5193210000000  0.4899720000000  0.3991790000000 1.0
C      1  0.4483180000000  0.5496450000000  0.4494690000000 1.0
C      1  0.5502110000000  0.4264380000000  0.5302450000000 1.0
C      1  0.5135160000000  0.5713830000000  0.5121090000000 1.0
C      1  0.5710140000000  0.5177270000000  0.5406610000000 1.0
C      1  0.4837650000000  0.5433800000000  0.5445800000000 1.0
C      1  0.4519200000000  0.4357090000000  0.5172980000000 1.0
C      1  0.5267470000000  0.4979650000000  0.4715650000000 1.0
C      1  0.4483470000000  0.5023200000000  0.5673170000000 1.0
C      1  0.5550530000000  0.5650770000000  0.5356940000000 1.0
C      1  0.5597170000000  0.4956020000000  0.4359640000000 1.0
C      1  0.5128680000000  0.5421000000000  0.5861950000000 1.0
C      1  0.4781370000000  0.4672490000000  0.4210310000000 1.0
C      1  0.4156910000000  0.5346260000000  0.4795140000000 1.0
C      1  0.4942660000000  0.4629750000000  0.5733680000000 1.0
C      1  0.4554330000000  0.4769810000000  0.4352500000000 1.0
C      1  0.5057520000000  0.4946160000000  0.4916530000000 1.0
C      1  0.4465920000000  0.4736570000000  0.5623910000000 1.0
C      1  0.4728760000000  0.5604580000000  0.4423560000000 1.0
C      1  0.4867920000000  0.5783340000000  0.4605090000000 1.0
C      1  0.4280210000000  0.4499800000000  0.5222350000000 1.0
C      1  0.4738240000000  0.5822050000000  0.4863360000000 1.0
C      1  0.5013530000000  0.4685020000000  0.4383920000000 1.0
C      1  0.4906890000000  0.5161990000000  0.4446230000000 1.0
C      1  0.5742590000000  0.4458890000000  0.4902770000000 1.0
C      1  0.4987500000000  0.5314600000000  0.4714770000000 1.0
C      1  0.4553420000000  0.4316240000000  0.4876890000000 1.0
C      1  0.5337510000000  0.4964960000000  0.4223870000000 1.0
C      1  0.4253990000000  0.4684620000000  0.5437200000000 1.0
C      1  0.5741000000000  0.4392070000000  0.5184390000000 1.0
C      1  0.5124630000000  0.4818660000000  0.5205170000000 1.0
C      1  0.5023340000000  0.4466500000000  0.4761980000000 1.0
C      1  0.4347220000000  0.4463040000000  0.4745080000000 1.0
C      1  0.5172880000000  0.4494410000000  0.4502500000000 1.0
END
