TITL C-57618-9818-2 -0.0336080272712773 125000 -217.035323245179 0 0 33 (C1) n - 1
REM
REM in /rds/project/t2_vol4/rds-t2-cs072/BORA/CARBON/from-Arr/AIRSS/Generating-Clusters/GAP-ML-2020/Only-C1/SD-CG/HFTN-CG
REM
REM
REM
REM
REM
REM ./C.cell (11c1c37f851c82e70ff6c80c92926a4b)
REM AIRSS Version 0.9.1 bugfix July 2018 build 013d7b7c2542+ Fri, 06 Jul 2018 19:26:36 +0100
REM compiler GCC version 9.3.0
REM options -cpp -mtune=generic -march=x86-64 -g -O0
REM seed 1291357721 -661991212 -336394936 1577745974 -2122850663 -533335406 -1073535296 523240327 -1431637993 393780917 -1033724159 1095942286 -269521025 -580277175 1921101151 -1769056312 2122021520 -1207477736 907518029 811162297 267255947 -288791285 1073298574 1249665597 -165154706 -399757519 -1060785324 1363679308 -1946754209 -275165872 1570952934 1360022419 1871680853
REM
CELL 1.54180   50.00000   50.00000   50.00000   90.00000   90.00000   90.00000
LATT -1
SFAC C  
C      1  0.5069600000000  0.4657950000000  0.5542320000000 1.0
C      1  0.4702470000000  0.4806070000000  0.5293300000000 1.0
C      1  0.4918200000000  0.5244590000000  0.4565660000000 1.0
C      1  0.5100790000000  0.5330150000000  0.5286950000000 1.0
C      1  0.5458700000000  0.5067890000000  0.4693570000000 1.0
C      1  0.5108900000000  0.5400400000000  0.4735300000000 1.0
C      1  0.5299640000000  0.5221650000000  0.5124670000000 1.0
C      1  0.4502590000000  0.5113740000000  0.4997310000000 1.0
C      1  0.5011620000000  0.4561040000000  0.5013850000000 1.0
C      1  0.4631530000000  0.4525610000000  0.4636090000000 1.0
C      1  0.4969590000000  0.4984400000000  0.4645350000000 1.0
C      1  0.4692150000000  0.5345770000000  0.4726580000000 1.0
C      1  0.4730960000000  0.4620140000000  0.4871230000000 1.0
C      1  0.5718140000000  0.4981320000000  0.4711930000000 1.0
C      1  0.4642800000000  0.5502500000000  0.5275860000000 1.0
C      1  0.5159850000000  0.4825220000000  0.4983430000000 1.0
C      1  0.4594680000000  0.4578510000000  0.4388510000000 1.0
C      1  0.5323920000000  0.5272360000000  0.4853320000000 1.0
C      1  0.4919490000000  0.5007550000000  0.4973290000000 1.0
C      1  0.5143940000000  0.4321630000000  0.4939770000000 1.0
C      1  0.5235300000000  0.4905930000000  0.4710650000000 1.0
C      1  0.4657380000000  0.4859540000000  0.5010860000000 1.0
C      1  0.4724760000000  0.5058640000000  0.5418490000000 1.0
C      1  0.4893170000000  0.5489860000000  0.5161720000000 1.0
C      1  0.5177870000000  0.4890420000000  0.5442480000000 1.0
C      1  0.5619800000000  0.4860260000000  0.5153860000000 1.0
C      1  0.4888700000000  0.5500560000000  0.4882100000000 1.0
C      1  0.5793650000000  0.4862120000000  0.4962900000000 1.0
C      1  0.4594000000000  0.5243110000000  0.5238040000000 1.0
C      1  0.4443890000000  0.5277310000000  0.4783020000000 1.0
C      1  0.5348090000000  0.4932160000000  0.5198430000000 1.0
C      1  0.5005190000000  0.5121360000000  0.5458590000000 1.0
C      1  0.4918640000000  0.4630230000000  0.5320550000000 1.0
END
