TITL C-57558-5535-1 -0.00359911692460306 125000 -161.462005616448 0 0 25 (C1) n - 1
REM
REM in /rds/project/t2_vol4/rds-t2-cs072/BORA/CARBON/from-Arr/AIRSS/Generating-Clusters/GAP-ML-2020/Only-C1/SD-CG/HFTN-CG
REM
REM
REM
REM
REM
REM ./C.cell (11c1c37f851c82e70ff6c80c92926a4b)
REM AIRSS Version 0.9.1 bugfix July 2018 build 013d7b7c2542+ Fri, 06 Jul 2018 19:26:36 +0100
REM compiler GCC version 9.3.0
REM options -cpp -mtune=generic -march=x86-64 -g -O0
REM seed 1379030487 961248547 2047629492 1347280996 880310168 -2047891029 1666779952 1141760221 -1276793032 -1454587798 -1653714950 1244288095 617086569 1845942508 -490178765 -1448558032 1719301435 1095767651 -320277774 1641758493 1941928434 459977718 -136418863 147397802 -20986589 787815171 1692276983 -1789778465 98503203 290043275 417344899 -1352150548 -1280750321
REM
CELL 1.54180   50.00000   50.00000   50.00000   90.00000   90.00000   90.00000
LATT -1
SFAC C  
C      1  0.5323220000000  0.4592610000000  0.5091310000000 1.0
C      1  0.5154820000000  0.5535950000000  0.4997840000000 1.0
C      1  0.4681030000000  0.5386200000000  0.5077330000000 1.0
C      1  0.5391130000000  0.4874450000000  0.5068710000000 1.0
C      1  0.5579720000000  0.5304720000000  0.5007150000000 1.0
C      1  0.4847350000000  0.4634350000000  0.5026450000000 1.0
C      1  0.4962650000000  0.5384320000000  0.5125200000000 1.0
C      1  0.5228490000000  0.4452590000000  0.4861390000000 1.0
C      1  0.4576410000000  0.5189350000000  0.5258900000000 1.0
C      1  0.4793560000000  0.5110320000000  0.5442000000000 1.0
C      1  0.4930420000000  0.4461680000000  0.4823760000000 1.0
C      1  0.4986140000000  0.4630240000000  0.4586750000000 1.0
C      1  0.4590370000000  0.5460010000000  0.4821710000000 1.0
C      1  0.4926710000000  0.4907430000000  0.4648820000000 1.0
C      1  0.4462670000000  0.4943120000000  0.5309560000000 1.0
C      1  0.5407280000000  0.5500180000000  0.4968220000000 1.0
C      1  0.4814510000000  0.5131530000000  0.4522140000000 1.0
C      1  0.5118570000000  0.4947930000000  0.5128450000000 1.0
C      1  0.5032220000000  0.5165110000000  0.5295500000000 1.0
C      1  0.5260160000000  0.4547720000000  0.4597810000000 1.0
C      1  0.5603270000000  0.5056070000000  0.5072370000000 1.0
C      1  0.4671360000000  0.4875070000000  0.5510190000000 1.0
C      1  0.4684770000000  0.5338040000000  0.4612770000000 1.0
C      1  0.5067840000000  0.4666110000000  0.5211470000000 1.0
C      1  0.4905330000000  0.4904890000000  0.4934210000000 1.0
END
