TITL C-57374-1555-490 -4.12696284925737 125000 -219.019929737643 0 0 34 (C1) n - 1
REM
REM in /rds/project/t2_vol4/rds-t2-cs072/BORA/CARBON/from-Arr/AIRSS/Generating-Clusters/GAP-ML-2020/Only-C1/SD-CG/HFTN-CG
REM
REM
REM
REM
REM
REM ./C.cell (11c1c37f851c82e70ff6c80c92926a4b)
REM AIRSS Version 0.9.1 bugfix July 2018 build 013d7b7c2542+ Fri, 06 Jul 2018 19:26:36 +0100
REM compiler GCC version 9.3.0
REM options -cpp -mtune=generic -march=x86-64 -g -O0
REM seed 168050484 879508000 -925636874 -1131953336 -280897391 -493716966 -536686961 -574514075 -1914637082 -677389581 -1671114932 2142642292 -230631433 1846662719 -1087722501 2129978344 -1219514669 -305062510 830423294 -1919698860 1947430107 132934161 -724790176 -2010280871 -1326219757 1985417647 -417892175 -286756881 390261437 1235671177 -891583017 -679666476 968905754
REM
CELL 1.54180   50.00000   50.00000   50.00000   90.00000   90.00000   90.00000
LATT -1
SFAC C  
C      1  0.5561510000000  0.4892630000000  0.4867440000000 1.0
C      1  0.4562400000000  0.5103710000000  0.5397520000000 1.0
C      1  0.4757800000000  0.5401960000000  0.4734840000000 1.0
C      1  0.4550380000000  0.4761870000000  0.5141040000000 1.0
C      1  0.4829760000000  0.5236120000000  0.5438710000000 1.0
C      1  0.4846950000000  0.5294610000000  0.4497400000000 1.0
C      1  0.4906740000000  0.5544420000000  0.4949760000000 1.0
C      1  0.5215870000000  0.4447240000000  0.4563880000000 1.0
C      1  0.5454640000000  0.4767670000000  0.5124000000000 1.0
C      1  0.5301600000000  0.4512050000000  0.5051480000000 1.0
C      1  0.4488940000000  0.5307130000000  0.5199540000000 1.0
C      1  0.5065590000000  0.4917900000000  0.4629330000000 1.0
C      1  0.4769870000000  0.4596760000000  0.5147200000000 1.0
C      1  0.5562390000000  0.5170490000000  0.4844210000000 1.0
C      1  0.5582840000000  0.4812650000000  0.5376100000000 1.0
C      1  0.5503400000000  0.4958630000000  0.5571480000000 1.0
C      1  0.4850780000000  0.5160920000000  0.4973990000000 1.0
C      1  0.4819890000000  0.5012220000000  0.4520830000000 1.0
C      1  0.5175750000000  0.5506330000000  0.4921340000000 1.0
C      1  0.4371250000000  0.5196290000000  0.4972870000000 1.0
C      1  0.4444770000000  0.4860560000000  0.5395430000000 1.0
C      1  0.5104010000000  0.5044060000000  0.4899040000000 1.0
C      1  0.4787040000000  0.5379360000000  0.5179450000000 1.0
C      1  0.5386060000000  0.4461350000000  0.4782760000000 1.0
C      1  0.5045080000000  0.5180500000000  0.5588980000000 1.0
C      1  0.5311770000000  0.5275960000000  0.4893810000000 1.0
C      1  0.5516330000000  0.4714660000000  0.4659740000000 1.0
C      1  0.5282570000000  0.5094760000000  0.5610720000000 1.0
C      1  0.5035280000000  0.4601000000000  0.5125230000000 1.0
C      1  0.4493090000000  0.5277050000000  0.4726330000000 1.0
C      1  0.5250400000000  0.4739030000000  0.4523480000000 1.0
C      1  0.5163600000000  0.4864060000000  0.5111880000000 1.0
C      1  0.4439450000000  0.4910880000000  0.4914640000000 1.0
C      1  0.4562190000000  0.4995160000000  0.4665540000000 1.0
END
