TITL C-57632-9854-4 -527.180512998272 125000 -246.934496853097 0 0 38 (C1) n - 1
REM
REM in /rds/project/t2_vol4/rds-t2-cs072/BORA/CARBON/from-Arr/AIRSS/Generating-Clusters/GAP-ML-2020/Only-C1/SD-CG/HFTN-CG
REM
REM
REM
REM
REM
REM ./C.cell (11c1c37f851c82e70ff6c80c92926a4b)
REM AIRSS Version 0.9.1 bugfix July 2018 build 013d7b7c2542+ Fri, 06 Jul 2018 19:26:36 +0100
REM compiler GCC version 9.3.0
REM options -cpp -mtune=generic -march=x86-64 -g -O0
REM seed 1621942753 272834613 219745249 -740231096 2002961329 -41524153 1497774487 48519675 432783731 -1143538929 462920128 260767937 1427020595 -2069981130 -740017053 2142608681 -560772173 -785757534 994776143 -1391989232 -46677578 -1580379315 -666095748 -300932890 -1386689208 1651888336 1244756840 -237971082 -819907797 -954616770 -689879489 16148187 231027092
REM
CELL 1.54180   50.00000   50.00000   50.00000   90.00000   90.00000   90.00000
LATT -1
SFAC C  
C      1  0.4906810000000  0.5331580000000  0.4489670000000 1.0
C      1  0.5685310000000  0.5118660000000  0.5284580000000 1.0
C      1  0.5120270000000  0.5021190000000  0.5009560000000 1.0
C      1  0.5614370000000  0.5204180000000  0.5034870000000 1.0
C      1  0.5292110000000  0.5417310000000  0.5138650000000 1.0
C      1  0.5443670000000  0.4704490000000  0.5166980000000 1.0
C      1  0.4843230000000  0.4877770000000  0.4725070000000 1.0
C      1  0.4634920000000  0.5225190000000  0.5063930000000 1.0
C      1  0.5096500000000  0.4737750000000  0.4857490000000 1.0
C      1  0.5142200000000  0.4469170000000  0.4562800000000 1.0
C      1  0.5002100000000  0.5083050000000  0.4577390000000 1.0
C      1  0.4932340000000  0.5506090000000  0.4761450000000 1.0
C      1  0.4798130000000  0.4887140000000  0.5452880000000 1.0
C      1  0.5001010000000  0.4553750000000  0.5072270000000 1.0
C      1  0.4813380000000  0.5007400000000  0.4997360000000 1.0
C      1  0.4672930000000  0.4646830000000  0.4660610000000 1.0
C      1  0.5559150000000  0.5454790000000  0.5152470000000 1.0
C      1  0.4965550000000  0.5125360000000  0.5457080000000 1.0
C      1  0.4759460000000  0.5315380000000  0.5524010000000 1.0
C      1  0.5308970000000  0.4637070000000  0.4685100000000 1.0
C      1  0.5166480000000  0.5426230000000  0.4876680000000 1.0
C      1  0.4645350000000  0.5370930000000  0.4408380000000 1.0
C      1  0.4878180000000  0.4422500000000  0.4633320000000 1.0
C      1  0.4510460000000  0.4915110000000  0.5386250000000 1.0
C      1  0.5225540000000  0.5159650000000  0.4768640000000 1.0
C      1  0.5255530000000  0.4513980000000  0.5209680000000 1.0
C      1  0.4815310000000  0.4380060000000  0.4919700000000 1.0
C      1  0.4523290000000  0.5195430000000  0.5329420000000 1.0
C      1  0.5488610000000  0.4762770000000  0.4877380000000 1.0
C      1  0.5485780000000  0.5048680000000  0.4833800000000 1.0
C      1  0.4525420000000  0.4698470000000  0.5176500000000 1.0
C      1  0.4504480000000  0.5436060000000  0.4621670000000 1.0
C      1  0.4650600000000  0.5424410000000  0.4868090000000 1.0
C      1  0.4820370000000  0.4767540000000  0.5192720000000 1.0
C      1  0.4680360000000  0.5491910000000  0.5702540000000 1.0
C      1  0.5206290000000  0.5137500000000  0.5267550000000 1.0
C      1  0.5457970000000  0.4967200000000  0.5319600000000 1.0
C      1  0.4567590000000  0.4557410000000  0.4933890000000 1.0
END
