TITL C-57638-9835-6 0.106482763170406 125000 -562.540810108284 0 0 83 (C1) n - 1
REM
REM in /rds/project/t2_vol4/rds-t2-cs072/BORA/CARBON/from-Arr/AIRSS/Generating-Clusters/GAP-ML-2020/Only-C1/SD-CG/HFTN-CG
REM
REM
REM
REM
REM
REM ./C.cell (11c1c37f851c82e70ff6c80c92926a4b)
REM AIRSS Version 0.9.1 bugfix July 2018 build 013d7b7c2542+ Fri, 06 Jul 2018 19:26:36 +0100
REM compiler GCC version 9.3.0
REM options -cpp -mtune=generic -march=x86-64 -g -O0
REM seed 2120801664 1164578935 1391409910 2142862870 -421787392 -58292166 -2102613891 179961383 815279954 258416393 -1398363771 1311417951 1684579828 1292090923 -288206920 1838375840 -1918922933 -605890690 1234415626 1451586085 1900171422 -1282731534 -472330171 -1744418068 1401883697 -1002658097 1010071145 580954300 698833726 604815367 -618296482 -1557897373 -609922532
REM
CELL 1.54180   50.00000   50.00000   50.00000   90.00000   90.00000   90.00000
LATT -1
SFAC C  
C      1  0.5194940000000  0.5289230000000  0.5141380000000 1.0
C      1  0.5244390000000  0.4493090000000  0.4563700000000 1.0
C      1  0.4151750000000  0.5250530000000  0.4740480000000 1.0
C      1  0.4874750000000  0.4792540000000  0.5282220000000 1.0
C      1  0.5111240000000  0.5731440000000  0.4695920000000 1.0
C      1  0.5817390000000  0.5018200000000  0.5396230000000 1.0
C      1  0.4266160000000  0.4804390000000  0.4890410000000 1.0
C      1  0.5121790000000  0.4506880000000  0.5029260000000 1.0
C      1  0.5148240000000  0.4652280000000  0.5300480000000 1.0
C      1  0.5825440000000  0.4812210000000  0.5207140000000 1.0
C      1  0.4770880000000  0.4457780000000  0.5583620000000 1.0
C      1  0.4995050000000  0.5574870000000  0.4476610000000 1.0
C      1  0.4628570000000  0.4605010000000  0.5375070000000 1.0
C      1  0.4563940000000  0.5567810000000  0.5471210000000 1.0
C      1  0.4623490000000  0.5735700000000  0.4760190000000 1.0
C      1  0.5637930000000  0.4803700000000  0.5418890000000 1.0
C      1  0.4282040000000  0.4929540000000  0.5159540000000 1.0
C      1  0.4205840000000  0.4991370000000  0.4672480000000 1.0
C      1  0.4254190000000  0.5404380000000  0.4947510000000 1.0
C      1  0.5523200000000  0.5455950000000  0.4639970000000 1.0
C      1  0.4717290000000  0.4153330000000  0.5210520000000 1.0
C      1  0.5002750000000  0.4883200000000  0.5697550000000 1.0
C      1  0.4426720000000  0.4592470000000  0.4764670000000 1.0
C      1  0.5255870000000  0.4235850000000  0.4677870000000 1.0
C      1  0.5391610000000  0.5514890000000  0.5220450000000 1.0
C      1  0.5636020000000  0.4930480000000  0.4515980000000 1.0
C      1  0.5236430000000  0.4219900000000  0.5096550000000 1.0
C      1  0.4843070000000  0.4704130000000  0.4554070000000 1.0
C      1  0.4833640000000  0.5639270000000  0.5588780000000 1.0
C      1  0.4746400000000  0.5521680000000  0.4618470000000 1.0
C      1  0.4778330000000  0.4151130000000  0.4924730000000 1.0
C      1  0.4611530000000  0.4416820000000  0.4905190000000 1.0
C      1  0.5706410000000  0.5270640000000  0.5349480000000 1.0
C      1  0.4845580000000  0.5002320000000  0.4578180000000 1.0
C      1  0.5470370000000  0.4271610000000  0.4917520000000 1.0
C      1  0.4797240000000  0.5339380000000  0.4871100000000 1.0
C      1  0.5186450000000  0.4907520000000  0.4901430000000 1.0
C      1  0.5033400000000  0.5139580000000  0.4217550000000 1.0
C      1  0.5656310000000  0.5393760000000  0.5093910000000 1.0
C      1  0.5208530000000  0.4911340000000  0.4268360000000 1.0
C      1  0.4955660000000  0.5302550000000  0.5321500000000 1.0
C      1  0.4712500000000  0.5063170000000  0.4843190000000 1.0
C      1  0.4857140000000  0.4595550000000  0.4860580000000 1.0
C      1  0.5177240000000  0.4469570000000  0.5525120000000 1.0
C      1  0.4875320000000  0.4218120000000  0.5432710000000 1.0
C      1  0.4879250000000  0.4860250000000  0.4995170000000 1.0
C      1  0.5458850000000  0.5043890000000  0.4349130000000 1.0
C      1  0.5242880000000  0.5757670000000  0.5270550000000 1.0
C      1  0.4421860000000  0.5644590000000  0.4958960000000 1.0
C      1  0.5304150000000  0.4638200000000  0.4822710000000 1.0
C      1  0.5486390000000  0.5386190000000  0.5482230000000 1.0
C      1  0.4499040000000  0.5077550000000  0.4259790000000 1.0
C      1  0.5756250000000  0.4760950000000  0.4940790000000 1.0
C      1  0.5574050000000  0.4541120000000  0.4891600000000 1.0
C      1  0.5039290000000  0.5766290000000  0.5436090000000 1.0
C      1  0.5669980000000  0.5289990000000  0.4833060000000 1.0
C      1  0.4882010000000  0.5773150000000  0.4883900000000 1.0
C      1  0.5328820000000  0.5031330000000  0.5126580000000 1.0
C      1  0.4813400000000  0.5528290000000  0.5110420000000 1.0
C      1  0.4559820000000  0.5061080000000  0.5495490000000 1.0
C      1  0.4430170000000  0.4833260000000  0.5382300000000 1.0
C      1  0.4373350000000  0.4910380000000  0.4439740000000 1.0
C      1  0.5417180000000  0.5330580000000  0.4398480000000 1.0
C      1  0.5099080000000  0.4661550000000  0.4389550000000 1.0
C      1  0.5726490000000  0.4999850000000  0.4761750000000 1.0
C      1  0.5346990000000  0.4864320000000  0.5372140000000 1.0
C      1  0.5128620000000  0.5088390000000  0.4690130000000 1.0
C      1  0.5091240000000  0.5310650000000  0.4866620000000 1.0
C      1  0.5271060000000  0.5289870000000  0.5636140000000 1.0
C      1  0.5374740000000  0.5675750000000  0.4728110000000 1.0
C      1  0.4993460000000  0.4595600000000  0.5703160000000 1.0
C      1  0.4449260000000  0.5309000000000  0.5412470000000 1.0
C      1  0.4531280000000  0.4685080000000  0.4525870000000 1.0
C      1  0.4559060000000  0.4387050000000  0.5192770000000 1.0
C      1  0.5148560000000  0.5388910000000  0.4317680000000 1.0
C      1  0.4766040000000  0.5100100000000  0.4296580000000 1.0
C      1  0.5150600000000  0.4219080000000  0.5390080000000 1.0
C      1  0.5019630000000  0.5429070000000  0.5582190000000 1.0
C      1  0.4291160000000  0.5225600000000  0.5180980000000 1.0
C      1  0.5057020000000  0.4133980000000  0.4871010000000 1.0
C      1  0.4849610000000  0.5020450000000  0.5469860000000 1.0
C      1  0.5240050000000  0.5005860000000  0.5623560000000 1.0
C      1  0.4566280000000  0.5649930000000  0.5204560000000 1.0
END
