TITL C-57363-8956-7 -0.0644231898359808 125000 -424.380113485966 0 0 62 (C1) n - 1
REM
REM in /rds/project/t2_vol4/rds-t2-cs072/BORA/CARBON/from-Arr/AIRSS/Generating-Clusters/GAP-ML-2020/Only-C1/SD-CG/HFTN-CG
REM
REM
REM
REM
REM
REM ./C.cell (11c1c37f851c82e70ff6c80c92926a4b)
REM AIRSS Version 0.9.1 bugfix July 2018 build 013d7b7c2542+ Fri, 06 Jul 2018 19:26:36 +0100
REM compiler GCC version 9.3.0
REM options -cpp -mtune=generic -march=x86-64 -g -O0
REM seed -537531243 1755121205 1963311865 1820381222 1575053772 1558634315 -1503269812 756888968 843849977 76693199 665694800 -418800642 1359609599 -243258248 1167094662 -201976851 -1691022359 -500018688 1255376540 -1744705734 541144917 -2145370614 957602021 -1384727170 -159036061 1734437973 799784732 -1488137632 1517057833 -1265648929 -712324859 -1985866795 -656243801
REM
CELL 1.54180   50.00000   50.00000   50.00000   90.00000   90.00000   90.00000
LATT -1
SFAC C  
C      1  0.4252800000000  0.4896710000000  0.4677620000000 1.0
C      1  0.4367710000000  0.5089380000000  0.4833200000000 1.0
C      1  0.4563580000000  0.5511390000000  0.4650950000000 1.0
C      1  0.5001080000000  0.4924220000000  0.4369920000000 1.0
C      1  0.4586240000000  0.5363610000000  0.5565660000000 1.0
C      1  0.5556430000000  0.5276010000000  0.5340660000000 1.0
C      1  0.4764130000000  0.4475360000000  0.5459820000000 1.0
C      1  0.4945180000000  0.5425300000000  0.4348650000000 1.0
C      1  0.5479050000000  0.4498630000000  0.4671960000000 1.0
C      1  0.4600540000000  0.4636460000000  0.5029460000000 1.0
C      1  0.4899160000000  0.4745160000000  0.4572910000000 1.0
C      1  0.4729880000000  0.5708440000000  0.4784700000000 1.0
C      1  0.4723460000000  0.4546240000000  0.5719040000000 1.0
C      1  0.4702490000000  0.5647510000000  0.5073470000000 1.0
C      1  0.4976960000000  0.4377900000000  0.4818530000000 1.0
C      1  0.5053130000000  0.5373940000000  0.5365780000000 1.0
C      1  0.4899460000000  0.5261050000000  0.4804510000000 1.0
C      1  0.5400370000000  0.4377130000000  0.5053780000000 1.0
C      1  0.4984210000000  0.4815080000000  0.4852420000000 1.0
C      1  0.4404480000000  0.5370860000000  0.4848890000000 1.0
C      1  0.5451640000000  0.5173420000000  0.4483690000000 1.0
C      1  0.5470390000000  0.4624570000000  0.5442560000000 1.0
C      1  0.4837750000000  0.5267360000000  0.5569240000000 1.0
C      1  0.4862510000000  0.4989660000000  0.5600330000000 1.0
C      1  0.4449110000000  0.4808010000000  0.5452160000000 1.0
C      1  0.5192020000000  0.5339650000000  0.4845970000000 1.0
C      1  0.5013220000000  0.4578990000000  0.5307800000000 1.0
C      1  0.4535460000000  0.4532360000000  0.4748580000000 1.0
C      1  0.5356120000000  0.4869370000000  0.5546510000000 1.0
C      1  0.5583630000000  0.5023550000000  0.5460630000000 1.0
C      1  0.5438900000000  0.4770370000000  0.4596430000000 1.0
C      1  0.5007330000000  0.5721570000000  0.4718980000000 1.0
C      1  0.5721810000000  0.4758050000000  0.5043240000000 1.0
C      1  0.5125740000000  0.5583110000000  0.4491560000000 1.0
C      1  0.4471500000000  0.5471230000000  0.5106540000000 1.0
C      1  0.5287830000000  0.4468440000000  0.5293880000000 1.0
C      1  0.4527210000000  0.4568500000000  0.5303410000000 1.0
C      1  0.5333440000000  0.5421050000000  0.5420140000000 1.0
C      1  0.5574070000000  0.5206010000000  0.5061160000000 1.0
C      1  0.4742820000000  0.5307320000000  0.4538970000000 1.0
C      1  0.5621980000000  0.4516890000000  0.4929190000000 1.0
C      1  0.4787320000000  0.4486070000000  0.4614010000000 1.0
C      1  0.5078950000000  0.4882660000000  0.5427090000000 1.0
C      1  0.5679850000000  0.4778730000000  0.5324050000000 1.0
C      1  0.4870060000000  0.5166950000000  0.4309270000000 1.0
C      1  0.5286530000000  0.4940210000000  0.4402610000000 1.0
C      1  0.5269480000000  0.4855320000000  0.4873000000000 1.0
C      1  0.5627080000000  0.4999330000000  0.4637360000000 1.0
C      1  0.5068050000000  0.5097690000000  0.5208810000000 1.0
C      1  0.4959240000000  0.5591030000000  0.5178630000000 1.0
C      1  0.5322330000000  0.5397800000000  0.4589410000000 1.0
C      1  0.4432190000000  0.5025020000000  0.5280850000000 1.0
C      1  0.4851970000000  0.5046550000000  0.4987290000000 1.0
C      1  0.5133270000000  0.5614070000000  0.4954690000000 1.0
C      1  0.5722500000000  0.5012850000000  0.4903350000000 1.0
C      1  0.5300240000000  0.5120190000000  0.5006970000000 1.0
C      1  0.4441010000000  0.5304360000000  0.5338440000000 1.0
C      1  0.4896300000000  0.4582240000000  0.5027140000000 1.0
C      1  0.5250940000000  0.4358560000000  0.4808330000000 1.0
C      1  0.4649810000000  0.4813690000000  0.5669750000000 1.0
C      1  0.4559300000000  0.4955850000000  0.5025850000000 1.0
C      1  0.4318780000000  0.4650970000000  0.4630190000000 1.0
END
