TITL C-57557-5540-1 -14.2793154977608 125000 -349.565937190335 0 0 52 (C1) n - 1
REM
REM in /rds/project/t2_vol4/rds-t2-cs072/BORA/CARBON/from-Arr/AIRSS/Generating-Clusters/GAP-ML-2020/Only-C1/SD-CG/HFTN-CG
REM
REM
REM
REM
REM
REM ./C.cell (11c1c37f851c82e70ff6c80c92926a4b)
REM AIRSS Version 0.9.1 bugfix July 2018 build 013d7b7c2542+ Fri, 06 Jul 2018 19:26:36 +0100
REM compiler GCC version 9.3.0
REM options -cpp -mtune=generic -march=x86-64 -g -O0
REM seed -153724122 -1538326907 -1889901660 -2062020506 -2115220664 -76836541 1434659939 -1559132165 1026112877 2143235816 1988690628 967232348 1748822467 -1341836022 -1949882419 -1490622776 1078471496 1778587995 -1830129824 -562726445 1156524027 112606366 -709249681 -109100479 659000122 -1686260183 1726719047 -1703969398 94576313 -1408267194 -899872602 -1629633274 -1288588006
REM
CELL 1.54180   50.00000   50.00000   50.00000   90.00000   90.00000   90.00000
LATT -1
SFAC C  
C      1  0.5620370000000  0.5162340000000  0.5328510000000 1.0
C      1  0.4446340000000  0.4744230000000  0.5255640000000 1.0
C      1  0.5764010000000  0.4970740000000  0.4954530000000 1.0
C      1  0.4359920000000  0.5239060000000  0.5175360000000 1.0
C      1  0.4962690000000  0.4764480000000  0.4987030000000 1.0
C      1  0.5285490000000  0.5089220000000  0.4997100000000 1.0
C      1  0.5130290000000  0.4865260000000  0.5497600000000 1.0
C      1  0.5831260000000  0.5005030000000  0.5209800000000 1.0
C      1  0.5252100000000  0.5302680000000  0.4549050000000 1.0
C      1  0.4850550000000  0.4500110000000  0.5094160000000 1.0
C      1  0.5386080000000  0.4346090000000  0.5046960000000 1.0
C      1  0.5203910000000  0.5138970000000  0.5536810000000 1.0
C      1  0.5299510000000  0.4530070000000  0.4865180000000 1.0
C      1  0.5360010000000  0.5551800000000  0.5109930000000 1.0
C      1  0.4962710000000  0.4765000000000  0.4681140000000 1.0
C      1  0.5159380000000  0.4921390000000  0.4551790000000 1.0
C      1  0.4664250000000  0.4842930000000  0.4630870000000 1.0
C      1  0.4595810000000  0.4897250000000  0.4349890000000 1.0
C      1  0.4684000000000  0.4398030000000  0.4872890000000 1.0
C      1  0.4861990000000  0.4768760000000  0.5488700000000 1.0
C      1  0.4531070000000  0.4628140000000  0.4801640000000 1.0
C      1  0.4638960000000  0.5378570000000  0.4843580000000 1.0
C      1  0.5252000000000  0.4789790000000  0.5051860000000 1.0
C      1  0.5077920000000  0.4486960000000  0.4679850000000 1.0
C      1  0.4656210000000  0.5599750000000  0.5247800000000 1.0
C      1  0.4967140000000  0.5127320000000  0.4132660000000 1.0
C      1  0.4658690000000  0.4922390000000  0.5347650000000 1.0
C      1  0.4736640000000  0.5386570000000  0.5416830000000 1.0
C      1  0.5305370000000  0.4710540000000  0.5327900000000 1.0
C      1  0.5012250000000  0.5205310000000  0.5072270000000 1.0
C      1  0.4540780000000  0.5183340000000  0.5395040000000 1.0
C      1  0.5138850000000  0.5591670000000  0.5276200000000 1.0
C      1  0.4903680000000  0.5662550000000  0.5120580000000 1.0
C      1  0.5025480000000  0.4353140000000  0.5274830000000 1.0
C      1  0.5342290000000  0.5667450000000  0.4854120000000 1.0
C      1  0.4726700000000  0.5004250000000  0.4159710000000 1.0
C      1  0.5658700000000  0.4970810000000  0.4720320000000 1.0
C      1  0.4364030000000  0.4742160000000  0.5004150000000 1.0
C      1  0.4886770000000  0.4296200000000  0.4709500000000 1.0
C      1  0.4608740000000  0.5080310000000  0.4840010000000 1.0
C      1  0.4469060000000  0.5482260000000  0.5051210000000 1.0
C      1  0.5115660000000  0.5137650000000  0.4360640000000 1.0
C      1  0.5361110000000  0.5070160000000  0.4707520000000 1.0
C      1  0.5032380000000  0.5332340000000  0.5379790000000 1.0
C      1  0.4920670000000  0.5455120000000  0.4900600000000 1.0
C      1  0.5479950000000  0.5173730000000  0.5569240000000 1.0
C      1  0.4833340000000  0.4504300000000  0.5395790000000 1.0
C      1  0.4806300000000  0.4999860000000  0.5063950000000 1.0
C      1  0.4352290000000  0.5028240000000  0.4981010000000 1.0
C      1  0.5156050000000  0.5514590000000  0.4714090000000 1.0
C      1  0.5292000000000  0.4423660000000  0.5294360000000 1.0
C      1  0.5468270000000  0.5287430000000  0.5122350000000 1.0
END
