TITL C-57529-5595-1 -37.6502409021807 125000 -862.02577033109 0 0 124 (C1) n - 1
REM
REM in /rds/project/t2_vol4/rds-t2-cs072/BORA/CARBON/from-Arr/AIRSS/Generating-Clusters/GAP-ML-2020/Only-C1/SD-CG/HFTN-CG
REM
REM
REM
REM
REM
REM ./C.cell (11c1c37f851c82e70ff6c80c92926a4b)
REM AIRSS Version 0.9.1 bugfix July 2018 build 013d7b7c2542+ Fri, 06 Jul 2018 19:26:36 +0100
REM compiler GCC version 9.3.0
REM options -cpp -mtune=generic -march=x86-64 -g -O0
REM seed -555470308 -311423996 1752294211 -1618547152 -2075476738 -1140150318 -5298063 -828054552 -1968735526 -543987541 1103662646 -91556705 -1310073159 -628363875 974709826 -841246163 1408446034 -598239866 1090515571 -849838159 -452715347 1214227605 817399758 -1553819878 -650944877 1262275601 -1194200595 -256841061 -225777243 -2050820108 265654584 940237808 1604010916
REM
CELL 1.54180   50.00000   50.00000   50.00000   90.00000   90.00000   90.00000
LATT -1
SFAC C  
C      1  0.5108730000000  0.5504770000000  0.5233540000000 1.0
C      1  0.4972840000000  0.4893700000000  0.4093350000000 1.0
C      1  0.5389580000000  0.5100230000000  0.4198930000000 1.0
C      1  0.4618460000000  0.5410480000000  0.5162540000000 1.0
C      1  0.5207500000000  0.5778920000000  0.5333150000000 1.0
C      1  0.4663850000000  0.4942680000000  0.4902900000000 1.0
C      1  0.4658430000000  0.5751210000000  0.4709100000000 1.0
C      1  0.4763300000000  0.5300760000000  0.4266450000000 1.0
C      1  0.4243630000000  0.4538380000000  0.5090610000000 1.0
C      1  0.4751070000000  0.5623940000000  0.5766360000000 1.0
C      1  0.5033240000000  0.5318730000000  0.5475410000000 1.0
C      1  0.5466520000000  0.5416150000000  0.5656450000000 1.0
C      1  0.4963760000000  0.5945110000000  0.5412520000000 1.0
C      1  0.5455080000000  0.5642090000000  0.5491150000000 1.0
C      1  0.4667070000000  0.4162430000000  0.4683130000000 1.0
C      1  0.5332030000000  0.4109740000000  0.5097620000000 1.0
C      1  0.4886070000000  0.4471030000000  0.4323480000000 1.0
C      1  0.4781140000000  0.4678900000000  0.4134590000000 1.0
C      1  0.5387130000000  0.5401230000000  0.5126190000000 1.0
C      1  0.5506590000000  0.5493620000000  0.4430000000000 1.0
C      1  0.5608240000000  0.5140060000000  0.5634170000000 1.0
C      1  0.5590670000000  0.4475640000000  0.5315040000000 1.0
C      1  0.5238420000000  0.4845970000000  0.4229650000000 1.0
C      1  0.5567750000000  0.5630860000000  0.5227620000000 1.0
C      1  0.4910020000000  0.5409460000000  0.5027960000000 1.0
C      1  0.4876270000000  0.6153560000000  0.5248590000000 1.0
C      1  0.5478580000000  0.4902050000000  0.5051380000000 1.0
C      1  0.4580500000000  0.5679800000000  0.5302510000000 1.0
C      1  0.4847560000000  0.4173380000000  0.5119680000000 1.0
C      1  0.5296480000000  0.5109550000000  0.5138910000000 1.0
C      1  0.4645890000000  0.4315080000000  0.4436880000000 1.0
C      1  0.4541480000000  0.5187470000000  0.5342230000000 1.0
C      1  0.5271080000000  0.5548540000000  0.4283690000000 1.0
C      1  0.4859000000000  0.4936410000000  0.5666900000000 1.0
C      1  0.5927900000000  0.5125290000000  0.4752660000000 1.0
C      1  0.4369250000000  0.5220590000000  0.4494620000000 1.0
C      1  0.4568330000000  0.4221240000000  0.5135140000000 1.0
C      1  0.4577390000000  0.5218700000000  0.4721610000000 1.0
C      1  0.4457960000000  0.4205260000000  0.4869210000000 1.0
C      1  0.5259370000000  0.4111880000000  0.4313340000000 1.0
C      1  0.5022250000000  0.4426760000000  0.5154530000000 1.0
C      1  0.4436500000000  0.5697110000000  0.4860660000000 1.0
C      1  0.5427520000000  0.4451230000000  0.5543220000000 1.0
C      1  0.4921710000000  0.4692470000000  0.5243120000000 1.0
C      1  0.5356770000000  0.4121950000000  0.4572660000000 1.0
C      1  0.5511530000000  0.5605150000000  0.4692600000000 1.0
C      1  0.5696260000000  0.4343260000000  0.4853270000000 1.0
C      1  0.4429290000000  0.5400800000000  0.4917640000000 1.0
C      1  0.4420130000000  0.4486740000000  0.4388020000000 1.0
C      1  0.5235370000000  0.4905170000000  0.5954400000000 1.0
C      1  0.5392440000000  0.5149990000000  0.4674280000000 1.0
C      1  0.5085940000000  0.5817360000000  0.4671170000000 1.0
C      1  0.4368750000000  0.4941530000000  0.4210640000000 1.0
C      1  0.4994610000000  0.4497900000000  0.5723640000000 1.0
C      1  0.4683700000000  0.4732520000000  0.4724040000000 1.0
C      1  0.5908000000000  0.4731920000000  0.5045800000000 1.0
C      1  0.5143910000000  0.4697700000000  0.4788700000000 1.0
C      1  0.4216670000000  0.5109480000000  0.5684170000000 1.0
C      1  0.4197680000000  0.4999510000000  0.4436430000000 1.0
C      1  0.5571470000000  0.4276290000000  0.5106770000000 1.0
C      1  0.4929780000000  0.4680360000000  0.4572060000000 1.0
C      1  0.5401870000000  0.5825230000000  0.5099910000000 1.0
C      1  0.4986040000000  0.5025200000000  0.5923840000000 1.0
C      1  0.4080440000000  0.5294680000000  0.5226380000000 1.0
C      1  0.5059970000000  0.4838910000000  0.5456870000000 1.0
C      1  0.4456440000000  0.4449320000000  0.5256370000000 1.0
C      1  0.4833090000000  0.5971740000000  0.4765650000000 1.0
C      1  0.4226360000000  0.4551630000000  0.4600370000000 1.0
C      1  0.5053630000000  0.4907300000000  0.4472870000000 1.0
C      1  0.4944000000000  0.4857910000000  0.4984540000000 1.0
C      1  0.5187870000000  0.5421340000000  0.5715880000000 1.0
C      1  0.4738290000000  0.5765830000000  0.5527790000000 1.0
C      1  0.5159610000000  0.4336460000000  0.5536100000000 1.0
C      1  0.5803770000000  0.5312890000000  0.4938300000000 1.0
C      1  0.5208750000000  0.5302290000000  0.4134580000000 1.0
C      1  0.6000750000000  0.4984850000000  0.4990010000000 1.0
C      1  0.5579990000000  0.4295930000000  0.4598460000000 1.0
C      1  0.5828740000000  0.4586870000000  0.4822750000000 1.0
C      1  0.5198080000000  0.4625050000000  0.5884210000000 1.0
C      1  0.4271230000000  0.4830050000000  0.5694010000000 1.0
C      1  0.5354670000000  0.4578450000000  0.4262630000000 1.0
C      1  0.5109760000000  0.5736930000000  0.4391480000000 1.0
C      1  0.4838280000000  0.5325280000000  0.4574790000000 1.0
C      1  0.5580890000000  0.4531070000000  0.4433720000000 1.0
C      1  0.4231170000000  0.4816340000000  0.5115380000000 1.0
C      1  0.4234430000000  0.5243360000000  0.5436640000000 1.0
C      1  0.5783400000000  0.5024300000000  0.4531730000000 1.0
C      1  0.4899290000000  0.5285190000000  0.5982690000000 1.0
C      1  0.5168570000000  0.4442410000000  0.4909850000000 1.0
C      1  0.5360360000000  0.5813920000000  0.4812370000000 1.0
C      1  0.5114110000000  0.4181800000000  0.5291240000000 1.0
C      1  0.4133000000000  0.4966270000000  0.4895660000000 1.0
C      1  0.5081590000000  0.5148380000000  0.4648000000000 1.0
C      1  0.4169620000000  0.5246050000000  0.4967550000000 1.0
C      1  0.5558420000000  0.5195150000000  0.4417200000000 1.0
C      1  0.5455940000000  0.4636980000000  0.5756800000000 1.0
C      1  0.5195600000000  0.4146580000000  0.4826060000000 1.0
C      1  0.5047730000000  0.5133250000000  0.4953570000000 1.0
C      1  0.4523140000000  0.5857790000000  0.5087190000000 1.0
C      1  0.5006860000000  0.5532830000000  0.5901210000000 1.0
C      1  0.4625810000000  0.4674710000000  0.5360730000000 1.0
C      1  0.5161780000000  0.4365650000000  0.4255760000000 1.0
C      1  0.5419560000000  0.4854590000000  0.4774670000000 1.0
C      1  0.5687430000000  0.4745230000000  0.4604830000000 1.0
C      1  0.4729970000000  0.6059570000000  0.5028780000000 1.0
C      1  0.4445530000000  0.5140620000000  0.5866070000000 1.0
C      1  0.4709670000000  0.4685600000000  0.5671930000000 1.0
C      1  0.4659860000000  0.5336900000000  0.5804220000000 1.0
C      1  0.4253150000000  0.4402670000000  0.4838930000000 1.0
C      1  0.4507180000000  0.4917120000000  0.5201290000000 1.0
C      1  0.5492830000000  0.4926790000000  0.5801080000000 1.0
C      1  0.4128910000000  0.4825010000000  0.4641000000000 1.0
C      1  0.4508930000000  0.4843190000000  0.5841620000000 1.0
C      1  0.5177080000000  0.5075800000000  0.5391660000000 1.0
C      1  0.5749990000000  0.5033020000000  0.5400190000000 1.0
C      1  0.5525960000000  0.5368310000000  0.4863630000000 1.0
C      1  0.4888370000000  0.5560390000000  0.4745070000000 1.0
C      1  0.5879660000000  0.5166250000000  0.5182120000000 1.0
C      1  0.4512190000000  0.5192270000000  0.4249680000000 1.0
C      1  0.4902590000000  0.4102930000000  0.4849540000000 1.0
C      1  0.4954020000000  0.5189420000000  0.4090180000000 1.0
C      1  0.5677630000000  0.4757270000000  0.5241190000000 1.0
C      1  0.4755630000000  0.5199470000000  0.5556020000000 1.0
C      1  0.4502090000000  0.4691310000000  0.4198100000000 1.0
END
