TITL C-57630-9895-9 0.220108493109569 125000 -270.828905094881 0 0 41 (C1) n - 1
REM
REM in /rds/project/t2_vol4/rds-t2-cs072/BORA/CARBON/from-Arr/AIRSS/Generating-Clusters/GAP-ML-2020/Only-C1/SD-CG/HFTN-CG
REM
REM
REM
REM
REM
REM ./C.cell (11c1c37f851c82e70ff6c80c92926a4b)
REM AIRSS Version 0.9.1 bugfix July 2018 build 013d7b7c2542+ Fri, 06 Jul 2018 19:26:36 +0100
REM compiler GCC version 9.3.0
REM options -cpp -mtune=generic -march=x86-64 -g -O0
REM seed 912086645 697377758 -1425015420 2126649034 1474949981 -95104518 1704310484 733562811 1240623322 1581863932 -1913598047 2135648411 -1804523824 -79873809 -504941146 564748458 487734353 -316352905 -9187317 679869471 -1494912126 -691925765 1998595368 -500365862 252771455 -262956088 68886417 1549861993 -347725887 274552865 162393461 1599965933 1796763729
REM
CELL 1.54180   50.00000   50.00000   50.00000   90.00000   90.00000   90.00000
LATT -1
SFAC C  
C      1  0.4912850000000  0.4570790000000  0.4466910000000 1.0
C      1  0.5279230000000  0.5442700000000  0.5186640000000 1.0
C      1  0.4446310000000  0.4971800000000  0.5441390000000 1.0
C      1  0.4972210000000  0.5524700000000  0.4818050000000 1.0
C      1  0.5582240000000  0.5068670000000  0.4944150000000 1.0
C      1  0.4883460000000  0.4366320000000  0.5075120000000 1.0
C      1  0.5062340000000  0.4821760000000  0.4785260000000 1.0
C      1  0.4529430000000  0.4727500000000  0.4563850000000 1.0
C      1  0.4506160000000  0.5200900000000  0.5517540000000 1.0
C      1  0.4531920000000  0.4705050000000  0.5025620000000 1.0
C      1  0.5022730000000  0.5003740000000  0.5270740000000 1.0
C      1  0.5529590000000  0.5362370000000  0.4892620000000 1.0
C      1  0.5515450000000  0.4938900000000  0.4694840000000 1.0
C      1  0.4720220000000  0.5370460000000  0.5444300000000 1.0
C      1  0.5199830000000  0.5312820000000  0.5570150000000 1.0
C      1  0.5333350000000  0.5140970000000  0.4568410000000 1.0
C      1  0.4629850000000  0.5161460000000  0.4739710000000 1.0
C      1  0.5426660000000  0.4688750000000  0.4625940000000 1.0
C      1  0.5077070000000  0.5051750000000  0.4604810000000 1.0
C      1  0.4954410000000  0.4440060000000  0.5323080000000 1.0
C      1  0.4503500000000  0.4894400000000  0.4803070000000 1.0
C      1  0.4818180000000  0.5081820000000  0.4510040000000 1.0
C      1  0.4716360000000  0.5385650000000  0.4894040000000 1.0
C      1  0.5034410000000  0.5551940000000  0.5101990000000 1.0
C      1  0.5515440000000  0.5546160000000  0.5089910000000 1.0
C      1  0.4780080000000  0.4632790000000  0.5441510000000 1.0
C      1  0.5470530000000  0.4977580000000  0.5191220000000 1.0
C      1  0.4548200000000  0.4747700000000  0.5312290000000 1.0
C      1  0.5107990000000  0.4829600000000  0.5056210000000 1.0
C      1  0.4784020000000  0.5439370000000  0.5178240000000 1.0
C      1  0.5009800000000  0.4796400000000  0.5493320000000 1.0
C      1  0.5264940000000  0.5173810000000  0.5318910000000 1.0
C      1  0.5157580000000  0.5572270000000  0.4632910000000 1.0
C      1  0.4959920000000  0.5387530000000  0.5598120000000 1.0
C      1  0.4686330000000  0.4476000000000  0.4918370000000 1.0
C      1  0.5164320000000  0.4610960000000  0.4611160000000 1.0
C      1  0.5382580000000  0.5403570000000  0.4648320000000 1.0
C      1  0.5349240000000  0.4717500000000  0.5196820000000 1.0
C      1  0.4682200000000  0.4487440000000  0.4630850000000 1.0
C      1  0.4743640000000  0.4822080000000  0.4408490000000 1.0
C      1  0.5205420000000  0.4593960000000  0.5405080000000 1.0
END
