TITL C-57638-9835-8 0.118007596456333 125000 -860.711845031657 0 0 123 (C1) n - 1
REM
REM in /rds/project/t2_vol4/rds-t2-cs072/BORA/CARBON/from-Arr/AIRSS/Generating-Clusters/GAP-ML-2020/Only-C1/SD-CG/HFTN-CG
REM
REM
REM
REM
REM
REM ./C.cell (11c1c37f851c82e70ff6c80c92926a4b)
REM AIRSS Version 0.9.1 bugfix July 2018 build 013d7b7c2542+ Fri, 06 Jul 2018 19:26:36 +0100
REM compiler GCC version 9.3.0
REM options -cpp -mtune=generic -march=x86-64 -g -O0
REM seed 528148508 -934487258 2089619254 -874788184 -672772086 -1984244959 -1679131008 145272603 -1154038017 -2128141910 -1573367950 -901701191 -1270965828 1173797843 752705838 -133464446 504019674 218313851 -1563482358 1944335960 63174446 2033789273 938582381 1412960391 1886903936 -1438640921 197575702 -1929949586 99896084 -1751732019 -1952276444 610446840 -156208988
REM
CELL 1.54180   50.00000   50.00000   50.00000   90.00000   90.00000   90.00000
LATT -1
SFAC C  
C      1  0.5048540000000  0.5850170000000  0.5250500000000 1.0
C      1  0.4817370000000  0.4594970000000  0.5880010000000 1.0
C      1  0.5287710000000  0.4123910000000  0.5155610000000 1.0
C      1  0.4240170000000  0.4497740000000  0.5285250000000 1.0
C      1  0.5756920000000  0.5422110000000  0.5659160000000 1.0
C      1  0.5155070000000  0.5147560000000  0.5341560000000 1.0
C      1  0.4547790000000  0.5242800000000  0.5064140000000 1.0
C      1  0.5455720000000  0.4138730000000  0.4721530000000 1.0
C      1  0.5214670000000  0.5002080000000  0.5092820000000 1.0
C      1  0.4661010000000  0.4659500000000  0.4150470000000 1.0
C      1  0.5732010000000  0.4935450000000  0.4450990000000 1.0
C      1  0.4596890000000  0.5818990000000  0.5463780000000 1.0
C      1  0.4376530000000  0.4303360000000  0.5160440000000 1.0
C      1  0.5462810000000  0.5806990000000  0.5506100000000 1.0
C      1  0.4557560000000  0.4797120000000  0.5230490000000 1.0
C      1  0.4112730000000  0.5068310000000  0.4862710000000 1.0
C      1  0.5710060000000  0.4506240000000  0.5249840000000 1.0
C      1  0.4382430000000  0.5146740000000  0.5527590000000 1.0
C      1  0.5394410000000  0.5206410000000  0.4256990000000 1.0
C      1  0.4591720000000  0.5579380000000  0.5614220000000 1.0
C      1  0.5338360000000  0.5357330000000  0.5362330000000 1.0
C      1  0.4712980000000  0.5180840000000  0.4635230000000 1.0
C      1  0.4808660000000  0.5478790000000  0.4788370000000 1.0
C      1  0.5795570000000  0.5212880000000  0.4468450000000 1.0
C      1  0.5001370000000  0.4773850000000  0.4616460000000 1.0
C      1  0.5073120000000  0.4061620000000  0.4968270000000 1.0
C      1  0.4379340000000  0.4601080000000  0.4500450000000 1.0
C      1  0.4271230000000  0.4796600000000  0.4325540000000 1.0
C      1  0.4601530000000  0.4476850000000  0.4373390000000 1.0
C      1  0.5314250000000  0.4729520000000  0.5109530000000 1.0
C      1  0.4276780000000  0.5527170000000  0.4835570000000 1.0
C      1  0.5195940000000  0.5658850000000  0.4487010000000 1.0
C      1  0.5064160000000  0.5023000000000  0.5832120000000 1.0
C      1  0.5573240000000  0.4741870000000  0.5343630000000 1.0
C      1  0.4675800000000  0.4652520000000  0.5465740000000 1.0
C      1  0.5176880000000  0.5791250000000  0.5508740000000 1.0
C      1  0.4592410000000  0.5088220000000  0.5306900000000 1.0
C      1  0.5096240000000  0.4554520000000  0.5228170000000 1.0
C      1  0.4138020000000  0.5466710000000  0.5088560000000 1.0
C      1  0.5559010000000  0.5794020000000  0.5241800000000 1.0
C      1  0.5581200000000  0.5723240000000  0.4757640000000 1.0
C      1  0.5861960000000  0.5086530000000  0.5104240000000 1.0
C      1  0.4544990000000  0.5657850000000  0.4833790000000 1.0
C      1  0.4963660000000  0.4722620000000  0.5423010000000 1.0
C      1  0.5102920000000  0.5592350000000  0.4762660000000 1.0
C      1  0.5754220000000  0.4990660000000  0.5348390000000 1.0
C      1  0.5063770000000  0.4521840000000  0.4751730000000 1.0
C      1  0.5061680000000  0.4729450000000  0.5921650000000 1.0
C      1  0.4869730000000  0.5262000000000  0.5350620000000 1.0
C      1  0.5122810000000  0.5271170000000  0.4189540000000 1.0
C      1  0.5941710000000  0.4967040000000  0.4846220000000 1.0
C      1  0.4378510000000  0.5806560000000  0.5271390000000 1.0
C      1  0.5555280000000  0.5594870000000  0.5694970000000 1.0
C      1  0.5087770000000  0.5589210000000  0.5695130000000 1.0
C      1  0.5525930000000  0.4167880000000  0.4993920000000 1.0
C      1  0.5207850000000  0.5754520000000  0.5012660000000 1.0
C      1  0.4562520000000  0.5445490000000  0.4312170000000 1.0
C      1  0.4914180000000  0.4787820000000  0.4103510000000 1.0
C      1  0.4237940000000  0.4775730000000  0.5210970000000 1.0
C      1  0.4841130000000  0.5422630000000  0.5643880000000 1.0
C      1  0.5329020000000  0.4641410000000  0.4825170000000 1.0
C      1  0.4630010000000  0.4205580000000  0.5260220000000 1.0
C      1  0.4230480000000  0.5579530000000  0.5327600000000 1.0
C      1  0.4809490000000  0.4920580000000  0.4775940000000 1.0
C      1  0.5132020000000  0.4604940000000  0.4130770000000 1.0
C      1  0.4175240000000  0.4793500000000  0.4923540000000 1.0
C      1  0.4071990000000  0.5193900000000  0.5117080000000 1.0
C      1  0.4239730000000  0.5291200000000  0.4671220000000 1.0
C      1  0.5418370000000  0.5535830000000  0.5152770000000 1.0
C      1  0.5400920000000  0.4678190000000  0.4202260000000 1.0
C      1  0.5726790000000  0.5148160000000  0.5596180000000 1.0
C      1  0.4358990000000  0.4603110000000  0.4786840000000 1.0
C      1  0.4805340000000  0.5171270000000  0.5807480000000 1.0
C      1  0.5027220000000  0.4265820000000  0.4528340000000 1.0
C      1  0.5485710000000  0.5656430000000  0.4488880000000 1.0
C      1  0.5594600000000  0.4334280000000  0.4561590000000 1.0
C      1  0.4386850000000  0.4328460000000  0.4877510000000 1.0
C      1  0.5562720000000  0.5465490000000  0.4903890000000 1.0
C      1  0.4973500000000  0.5079560000000  0.4950700000000 1.0
C      1  0.5268640000000  0.4578410000000  0.5777780000000 1.0
C      1  0.4308290000000  0.5308900000000  0.4377800000000 1.0
C      1  0.4561000000000  0.5832790000000  0.5053760000000 1.0
C      1  0.4732660000000  0.4269110000000  0.4523600000000 1.0
C      1  0.5312210000000  0.5184040000000  0.5866590000000 1.0
C      1  0.4873450000000  0.4347510000000  0.5721220000000 1.0
C      1  0.5170910000000  0.4358320000000  0.4288660000000 1.0
C      1  0.5315510000000  0.5366360000000  0.4778210000000 1.0
C      1  0.5317170000000  0.5467460000000  0.5817580000000 1.0
C      1  0.5474460000000  0.5899480000000  0.4961700000000 1.0
C      1  0.5213030000000  0.4299240000000  0.5370210000000 1.0
C      1  0.4760240000000  0.5612350000000  0.4248640000000 1.0
C      1  0.4914880000000  0.5072890000000  0.4165060000000 1.0
C      1  0.4473730000000  0.5164950000000  0.4795830000000 1.0
C      1  0.4683850000000  0.5156790000000  0.4333460000000 1.0
C      1  0.5843960000000  0.4766270000000  0.4666820000000 1.0
C      1  0.5157020000000  0.4340440000000  0.5656490000000 1.0
C      1  0.4163640000000  0.5034510000000  0.5334880000000 1.0
C      1  0.4618120000000  0.4203240000000  0.4774020000000 1.0
C      1  0.4662540000000  0.4706140000000  0.4957170000000 1.0
C      1  0.5031300000000  0.5538400000000  0.4282590000000 1.0
C      1  0.5176920000000  0.4078330000000  0.4702960000000 1.0
C      1  0.4403040000000  0.5058640000000  0.4257640000000 1.0
C      1  0.5411140000000  0.4785430000000  0.5610880000000 1.0
C      1  0.5817460000000  0.5329330000000  0.4945340000000 1.0
C      1  0.5451220000000  0.4424400000000  0.4337990000000 1.0
C      1  0.4357060000000  0.5435490000000  0.5541930000000 1.0
C      1  0.5721020000000  0.4380790000000  0.5012050000000 1.0
C      1  0.5766020000000  0.4495150000000  0.4735650000000 1.0
C      1  0.4828830000000  0.5319400000000  0.5055360000000 1.0
C      1  0.5277360000000  0.4883100000000  0.4637000000000 1.0
C      1  0.4897320000000  0.4498060000000  0.4994520000000 1.0
C      1  0.5448300000000  0.4925140000000  0.4360810000000 1.0
C      1  0.4777880000000  0.5894140000000  0.5247530000000 1.0
C      1  0.4421910000000  0.4820720000000  0.4096110000000 1.0
C      1  0.5586420000000  0.5390210000000  0.4366000000000 1.0
C      1  0.5936700000000  0.5227710000000  0.4708370000000 1.0
C      1  0.5248420000000  0.5103000000000  0.4822350000000 1.0
C      1  0.4564190000000  0.5026690000000  0.5751400000000 1.0
C      1  0.5135930000000  0.4923860000000  0.5542530000000 1.0
C      1  0.4803260000000  0.4188190000000  0.5008960000000 1.0
C      1  0.5519410000000  0.5025640000000  0.5747130000000 1.0
C      1  0.4618520000000  0.4749510000000  0.5741650000000 1.0
C      1  0.4689340000000  0.4346690000000  0.5497270000000 1.0
END
