TITL C-57529-5595-7 -0.226487230245712 125000 -406.303917815967 0 0 61 (C1) n - 1
REM
REM in /rds/project/t2_vol4/rds-t2-cs072/BORA/CARBON/from-Arr/AIRSS/Generating-Clusters/GAP-ML-2020/Only-C1/SD-CG/HFTN-CG
REM
REM
REM
REM
REM
REM ./C.cell (11c1c37f851c82e70ff6c80c92926a4b)
REM AIRSS Version 0.9.1 bugfix July 2018 build 013d7b7c2542+ Fri, 06 Jul 2018 19:26:36 +0100
REM compiler GCC version 9.3.0
REM options -cpp -mtune=generic -march=x86-64 -g -O0
REM seed 401552058 279827280 722598497 684038453 -1606065278 -2054019209 -870517523 246102019 240948760 -1597624604 -1065444285 1216647317 -1561448365 1118716380 -844414817 -1939120023 1124279406 -479931865 1964642761 -523991523 -465813231 -1240856100 690878561 1591182848 -1655239735 1423863450 238498008 -590466055 2010391110 -2117107181 1512875606 1179650266 -1453259402
REM
CELL 1.54180   50.00000   50.00000   50.00000   90.00000   90.00000   90.00000
LATT -1
SFAC C  
C      1  0.5580710000000  0.5220000000000  0.5145190000000 1.0
C      1  0.5047310000000  0.5640520000000  0.5080150000000 1.0
C      1  0.4915780000000  0.4185560000000  0.5211570000000 1.0
C      1  0.5609490000000  0.4409520000000  0.5150420000000 1.0
C      1  0.4764550000000  0.4583980000000  0.5416320000000 1.0
C      1  0.4751650000000  0.5355060000000  0.5368300000000 1.0
C      1  0.4515880000000  0.5446660000000  0.5245240000000 1.0
C      1  0.4911780000000  0.5521690000000  0.4644770000000 1.0
C      1  0.4606800000000  0.4828800000000  0.5409610000000 1.0
C      1  0.4579540000000  0.5612260000000  0.5002580000000 1.0
C      1  0.4731200000000  0.5419740000000  0.4444870000000 1.0
C      1  0.5429940000000  0.4903820000000  0.5471570000000 1.0
C      1  0.5246950000000  0.4726210000000  0.5615460000000 1.0
C      1  0.4885500000000  0.5243590000000  0.4283410000000 1.0
C      1  0.4455920000000  0.4751080000000  0.4616000000000 1.0
C      1  0.5631150000000  0.5087930000000  0.4663040000000 1.0
C      1  0.4699630000000  0.4377250000000  0.5238200000000 1.0
C      1  0.4987380000000  0.5555340000000  0.5344960000000 1.0
C      1  0.5099370000000  0.4574500000000  0.5411900000000 1.0
C      1  0.4316190000000  0.4985190000000  0.4725190000000 1.0
C      1  0.5533620000000  0.4922600000000  0.5187800000000 1.0
C      1  0.4721390000000  0.5073460000000  0.4717830000000 1.0
C      1  0.5158110000000  0.4295150000000  0.5320710000000 1.0
C      1  0.5375190000000  0.4254720000000  0.5129080000000 1.0
C      1  0.5428310000000  0.5332530000000  0.5362870000000 1.0
C      1  0.4832010000000  0.5635120000000  0.4903280000000 1.0
C      1  0.4942260000000  0.4222570000000  0.4927140000000 1.0
C      1  0.4488380000000  0.4875340000000  0.5157170000000 1.0
C      1  0.5291500000000  0.4978510000000  0.5006250000000 1.0
C      1  0.4986010000000  0.5197960000000  0.4719050000000 1.0
C      1  0.5457210000000  0.4637090000000  0.4759590000000 1.0
C      1  0.5267550000000  0.5132790000000  0.5477560000000 1.0
C      1  0.4682590000000  0.4882500000000  0.4480550000000 1.0
C      1  0.5267290000000  0.5515030000000  0.4912600000000 1.0
C      1  0.4852000000000  0.4985200000000  0.5805260000000 1.0
C      1  0.5069130000000  0.4842620000000  0.5798590000000 1.0
C      1  0.4527870000000  0.4527630000000  0.4747760000000 1.0
C      1  0.5230080000000  0.4233140000000  0.4866450000000 1.0
C      1  0.5187090000000  0.5073850000000  0.4549500000000 1.0
C      1  0.4499540000000  0.5267020000000  0.4634740000000 1.0
C      1  0.5339010000000  0.4407870000000  0.4677290000000 1.0
C      1  0.5394290000000  0.4926540000000  0.4713050000000 1.0
C      1  0.5591270000000  0.4656190000000  0.5037260000000 1.0
C      1  0.5535270000000  0.5396140000000  0.4911190000000 1.0
C      1  0.4889100000000  0.4730960000000  0.4987930000000 1.0
C      1  0.4407510000000  0.5446040000000  0.4839920000000 1.0
C      1  0.5348820000000  0.5424440000000  0.4460710000000 1.0
C      1  0.5113030000000  0.5220600000000  0.4978290000000 1.0
C      1  0.5195730000000  0.5578100000000  0.4634740000000 1.0
C      1  0.5012320000000  0.5026310000000  0.5353200000000 1.0
C      1  0.4722500000000  0.4967100000000  0.4990390000000 1.0
C      1  0.4341420000000  0.5293420000000  0.5073720000000 1.0
C      1  0.5584500000000  0.5352900000000  0.4629080000000 1.0
C      1  0.4760540000000  0.5055560000000  0.5530040000000 1.0
C      1  0.4875340000000  0.5179360000000  0.5139990000000 1.0
C      1  0.4298430000000  0.5025450000000  0.5011480000000 1.0
C      1  0.5244200000000  0.5515610000000  0.5420100000000 1.0
C      1  0.5184230000000  0.5235440000000  0.4315440000000 1.0
C      1  0.4746170000000  0.4466900000000  0.4925700000000 1.0
C      1  0.4757810000000  0.4996780000000  0.4248950000000 1.0
C      1  0.5094700000000  0.4784750000000  0.5169010000000 1.0
END
