TITL C-57545-5608-3 0.0126836681678798 125000 -406.622621962598 0 0 59 (C1) n - 1
REM
REM in /rds/project/t2_vol4/rds-t2-cs072/BORA/CARBON/from-Arr/AIRSS/Generating-Clusters/GAP-ML-2020/Only-C1/SD-CG/HFTN-CG
REM
REM
REM
REM
REM
REM ./C.cell (11c1c37f851c82e70ff6c80c92926a4b)
REM AIRSS Version 0.9.1 bugfix July 2018 build 013d7b7c2542+ Fri, 06 Jul 2018 19:26:36 +0100
REM compiler GCC version 9.3.0
REM options -cpp -mtune=generic -march=x86-64 -g -O0
REM seed 754789406 -282922683 1785389823 1673891970 765697347 1949862693 536011134 -773271851 1775273135 2046123315 723268132 -970292804 -1385106005 252748597 2052686482 -1044635820 106108796 2089482616 729974603 1938136801 913912025 -1958934832 1061484273 -317056702 -213202674 2134694547 -443028283 -1976872611 -293429220 -1355616718 -1374309008 1863060841 322916587
REM
CELL 1.54180   50.00000   50.00000   50.00000   90.00000   90.00000   90.00000
LATT -1
SFAC C  
C      1  0.5017360000000  0.4903010000000  0.5629340000000 1.0
C      1  0.5423650000000  0.5469790000000  0.4970290000000 1.0
C      1  0.4696270000000  0.4366400000000  0.4856690000000 1.0
C      1  0.4913630000000  0.5215470000000  0.4936480000000 1.0
C      1  0.5061220000000  0.4474100000000  0.4546220000000 1.0
C      1  0.4715780000000  0.5379370000000  0.4523090000000 1.0
C      1  0.4994970000000  0.5676060000000  0.4800820000000 1.0
C      1  0.4538080000000  0.4754390000000  0.5067270000000 1.0
C      1  0.5150080000000  0.4743360000000  0.4511310000000 1.0
C      1  0.4576220000000  0.5392880000000  0.5373410000000 1.0
C      1  0.5028020000000  0.5364670000000  0.5555490000000 1.0
C      1  0.4531570000000  0.5159870000000  0.4541300000000 1.0
C      1  0.5226140000000  0.4466670000000  0.5416050000000 1.0
C      1  0.5114520000000  0.5218200000000  0.4704300000000 1.0
C      1  0.5502660000000  0.4511020000000  0.5438570000000 1.0
C      1  0.4790390000000  0.4479880000000  0.5663690000000 1.0
C      1  0.5199820000000  0.4908790000000  0.4294370000000 1.0
C      1  0.4953410000000  0.5247050000000  0.4457540000000 1.0
C      1  0.4660660000000  0.4913460000000  0.4441830000000 1.0
C      1  0.5193630000000  0.5130660000000  0.5570890000000 1.0
C      1  0.5432620000000  0.5058720000000  0.4359560000000 1.0
C      1  0.4750310000000  0.5011620000000  0.5617880000000 1.0
C      1  0.5364010000000  0.5430790000000  0.5249090000000 1.0
C      1  0.5588040000000  0.4988620000000  0.5254200000000 1.0
C      1  0.4988790000000  0.5047940000000  0.5124080000000 1.0
C      1  0.5013130000000  0.5862520000000  0.4998150000000 1.0
C      1  0.5208680000000  0.5493160000000  0.4781500000000 1.0
C      1  0.5621230000000  0.4955340000000  0.4534760000000 1.0
C      1  0.4428230000000  0.4929790000000  0.5269610000000 1.0
C      1  0.5216300000000  0.4904470000000  0.4754920000000 1.0
C      1  0.5602660000000  0.5292340000000  0.4845540000000 1.0
C      1  0.4667780000000  0.5593770000000  0.5198000000000 1.0
C      1  0.4782880000000  0.4438440000000  0.4590400000000 1.0
C      1  0.4335270000000  0.5173780000000  0.4727980000000 1.0
C      1  0.4501600000000  0.4601920000000  0.4836810000000 1.0
C      1  0.5223040000000  0.4315710000000  0.4700880000000 1.0
C      1  0.5519490000000  0.4606160000000  0.4971140000000 1.0
C      1  0.5317350000000  0.4395750000000  0.4941030000000 1.0
C      1  0.4385500000000  0.5314180000000  0.4956980000000 1.0
C      1  0.5569930000000  0.4691880000000  0.5242530000000 1.0
C      1  0.5517450000000  0.4846090000000  0.4805160000000 1.0
C      1  0.4597680000000  0.4664900000000  0.4568690000000 1.0
C      1  0.4406070000000  0.5208110000000  0.5224690000000 1.0
C      1  0.4554420000000  0.5548690000000  0.4938990000000 1.0
C      1  0.4819310000000  0.4673110000000  0.5093540000000 1.0
C      1  0.4935850000000  0.5704710000000  0.5212090000000 1.0
C      1  0.5421190000000  0.5179500000000  0.5391590000000 1.0
C      1  0.5059860000000  0.4819940000000  0.5006870000000 1.0
C      1  0.5588310000000  0.5226750000000  0.4553330000000 1.0
C      1  0.4728120000000  0.5583110000000  0.4715610000000 1.0
C      1  0.5636150000000  0.5051730000000  0.4984260000000 1.0
C      1  0.4562080000000  0.4577670000000  0.5601400000000 1.0
C      1  0.5037310000000  0.4609180000000  0.5598940000000 1.0
C      1  0.4532100000000  0.4848460000000  0.5530340000000 1.0
C      1  0.4859170000000  0.4394190000000  0.5081550000000 1.0
C      1  0.4923020000000  0.4990590000000  0.4344060000000 1.0
C      1  0.4753870000000  0.5289120000000  0.5567960000000 1.0
C      1  0.5126930000000  0.5547010000000  0.5363860000000 1.0
C      1  0.5136170000000  0.4355110000000  0.5163060000000 1.0
END
