TITL C-57631-9850-2 379.726049591014 125000 -944.16888148364 0 0 134 (C1) n - 1
REM
REM in /rds/project/t2_vol4/rds-t2-cs072/BORA/CARBON/from-Arr/AIRSS/Generating-Clusters/GAP-ML-2020/Only-C1/SD-CG/HFTN-CG
REM
REM
REM
REM
REM
REM ./C.cell (11c1c37f851c82e70ff6c80c92926a4b)
REM AIRSS Version 0.9.1 bugfix July 2018 build 013d7b7c2542+ Fri, 06 Jul 2018 19:26:36 +0100
REM compiler GCC version 9.3.0
REM options -cpp -mtune=generic -march=x86-64 -g -O0
REM seed -1690760557 -499668293 -1714612183 1956223751 1807946029 1479872254 -1566228359 1245105161 -1471334477 -1958570513 213140693 -1377411704 -1883261372 -1061603615 1779813453 658190912 1651708409 1256755388 1860165536 122850734 1343895633 -1416686138 580659803 -1757645400 -1423855753 -218680136 -1399199756 -787058242 61588814 -1011158924 46213846 1569902117 883221919
REM
CELL 1.54180   50.00000   50.00000   50.00000   90.00000   90.00000   90.00000
LATT -1
SFAC C  
C      1  0.4157420000000  0.5443500000000  0.4794840000000 1.0
C      1  0.5167140000000  0.5644730000000  0.5537710000000 1.0
C      1  0.5160590000000  0.4721310000000  0.5454740000000 1.0
C      1  0.5817250000000  0.5464080000000  0.4801530000000 1.0
C      1  0.5372570000000  0.5598810000000  0.4331430000000 1.0
C      1  0.4217900000000  0.5038470000000  0.4496210000000 1.0
C      1  0.4547900000000  0.5522350000000  0.5596520000000 1.0
C      1  0.5478390000000  0.5873430000000  0.4722770000000 1.0
C      1  0.4285660000000  0.4536130000000  0.4460320000000 1.0
C      1  0.5318690000000  0.5397340000000  0.4831080000000 1.0
C      1  0.5485930000000  0.4450920000000  0.4377070000000 1.0
C      1  0.5006760000000  0.5750710000000  0.4664050000000 1.0
C      1  0.4520800000000  0.4967410000000  0.5260960000000 1.0
C      1  0.4486840000000  0.5683460000000  0.4529620000000 1.0
C      1  0.5891730000000  0.4989130000000  0.5442580000000 1.0
C      1  0.4028810000000  0.4953490000000  0.5042230000000 1.0
C      1  0.5237160000000  0.4168190000000  0.4912490000000 1.0
C      1  0.5561620000000  0.4960390000000  0.5692240000000 1.0
C      1  0.4354990000000  0.5662080000000  0.4799750000000 1.0
C      1  0.5463940000000  0.4343930000000  0.5508950000000 1.0
C      1  0.5357260000000  0.4951930000000  0.5466620000000 1.0
C      1  0.5036750000000  0.5448880000000  0.4806170000000 1.0
C      1  0.4425630000000  0.5032520000000  0.5846560000000 1.0
C      1  0.4675120000000  0.4381900000000  0.4310310000000 1.0
C      1  0.4196810000000  0.5194930000000  0.4973870000000 1.0
C      1  0.5033210000000  0.5053770000000  0.5073720000000 1.0
C      1  0.4948950000000  0.4113170000000  0.5352520000000 1.0
C      1  0.5295530000000  0.5780560000000  0.4530480000000 1.0
C      1  0.4020600000000  0.4840000000000  0.5320400000000 1.0
C      1  0.5234480000000  0.4342100000000  0.5710560000000 1.0
C      1  0.4661090000000  0.5847580000000  0.5218810000000 1.0
C      1  0.5385300000000  0.5112600000000  0.4778450000000 1.0
C      1  0.4772750000000  0.5730540000000  0.4463120000000 1.0
C      1  0.4403040000000  0.5076250000000  0.4745340000000 1.0
C      1  0.4906490000000  0.5152210000000  0.4356840000000 1.0
C      1  0.4242390000000  0.4366610000000  0.5382540000000 1.0
C      1  0.5262770000000  0.5318540000000  0.5791620000000 1.0
C      1  0.5747470000000  0.5175870000000  0.5603060000000 1.0
C      1  0.5646630000000  0.4198250000000  0.5105700000000 1.0
C      1  0.4978800000000  0.4969850000000  0.4779140000000 1.0
C      1  0.4065920000000  0.4483270000000  0.5016430000000 1.0
C      1  0.4762260000000  0.4974820000000  0.5403650000000 1.0
C      1  0.5635660000000  0.5757000000000  0.5131440000000 1.0
C      1  0.5428340000000  0.4652860000000  0.5087980000000 1.0
C      1  0.5084710000000  0.4609800000000  0.5749370000000 1.0
C      1  0.5519510000000  0.4208400000000  0.4857650000000 1.0
C      1  0.4669210000000  0.4198610000000  0.5307720000000 1.0
C      1  0.4043020000000  0.4558200000000  0.5294810000000 1.0
C      1  0.4537360000000  0.4554170000000  0.5724010000000 1.0
C      1  0.4790210000000  0.4873340000000  0.4366810000000 1.0
C      1  0.4682670000000  0.5123440000000  0.5907200000000 1.0
C      1  0.5151560000000  0.5480310000000  0.4202190000000 1.0
C      1  0.5399510000000  0.5914050000000  0.5185250000000 1.0
C      1  0.4615470000000  0.5274780000000  0.4759290000000 1.0
C      1  0.5821890000000  0.4402890000000  0.5208490000000 1.0
C      1  0.4520780000000  0.4194590000000  0.5046960000000 1.0
C      1  0.5915790000000  0.4564790000000  0.4997140000000 1.0
C      1  0.4931150000000  0.5353510000000  0.5095600000000 1.0
C      1  0.5243890000000  0.4886930000000  0.4685580000000 1.0
C      1  0.5176700000000  0.5194700000000  0.5520590000000 1.0
C      1  0.5727000000000  0.4496840000000  0.5478140000000 1.0
C      1  0.5031280000000  0.5512720000000  0.5776390000000 1.0
C      1  0.4934360000000  0.5930020000000  0.5167120000000 1.0
C      1  0.4138790000000  0.4906010000000  0.5569890000000 1.0
C      1  0.5136860000000  0.5424450000000  0.5323600000000 1.0
C      1  0.4879730000000  0.5581350000000  0.4237910000000 1.0
C      1  0.4527220000000  0.5673740000000  0.5025520000000 1.0
C      1  0.4627030000000  0.5389280000000  0.5046610000000 1.0
C      1  0.5690410000000  0.5725470000000  0.4852520000000 1.0
C      1  0.5799590000000  0.5335640000000  0.4539160000000 1.0
C      1  0.5568230000000  0.4437560000000  0.4661690000000 1.0
C      1  0.4496700000000  0.4351780000000  0.5510080000000 1.0
C      1  0.5331480000000  0.5103310000000  0.5069860000000 1.0
C      1  0.4535270000000  0.4827520000000  0.4803840000000 1.0
C      1  0.4936200000000  0.4463740000000  0.4213700000000 1.0
C      1  0.4142590000000  0.5343050000000  0.4529010000000 1.0
C      1  0.4794260000000  0.4610860000000  0.5108110000000 1.0
C      1  0.5371700000000  0.5396200000000  0.5134240000000 1.0
C      1  0.5160900000000  0.5878440000000  0.5348230000000 1.0
C      1  0.5590050000000  0.5409270000000  0.4349180000000 1.0
C      1  0.4514570000000  0.4325350000000  0.4542870000000 1.0
C      1  0.4914250000000  0.4743460000000  0.4143180000000 1.0
C      1  0.5289650000000  0.4517960000000  0.5299120000000 1.0
C      1  0.5328200000000  0.4621010000000  0.4805270000000 1.0
C      1  0.5842440000000  0.5047700000000  0.4495040000000 1.0
C      1  0.4341500000000  0.4770260000000  0.5743690000000 1.0
C      1  0.4404880000000  0.5239660000000  0.5197590000000 1.0
C      1  0.5574870000000  0.4695930000000  0.4230480000000 1.0
C      1  0.4850940000000  0.4891250000000  0.5957930000000 1.0
C      1  0.4738150000000  0.5341070000000  0.4190690000000 1.0
C      1  0.5500740000000  0.4919640000000  0.5199220000000 1.0
C      1  0.4547320000000  0.4828700000000  0.4203950000000 1.0
C      1  0.5829580000000  0.4565900000000  0.4718770000000 1.0
C      1  0.4370590000000  0.5043930000000  0.4245100000000 1.0
C      1  0.4347790000000  0.5349140000000  0.5478570000000 1.0
C      1  0.4774260000000  0.5368900000000  0.5740050000000 1.0
C      1  0.5351770000000  0.5045710000000  0.5903080000000 1.0
C      1  0.5452200000000  0.4126990000000  0.5310320000000 1.0
C      1  0.5486310000000  0.5176350000000  0.4229860000000 1.0
C      1  0.4890060000000  0.5176870000000  0.5541500000000 1.0
C      1  0.4547090000000  0.4754790000000  0.5073600000000 1.0
C      1  0.4245200000000  0.5161490000000  0.5658380000000 1.0
C      1  0.5662100000000  0.5486210000000  0.5241770000000 1.0
C      1  0.5960800000000  0.4849050000000  0.4969490000000 1.0
C      1  0.4950210000000  0.4815040000000  0.5261510000000 1.0
C      1  0.5062000000000  0.4175930000000  0.5590050000000 1.0
C      1  0.4330510000000  0.5490940000000  0.4375620000000 1.0
C      1  0.5188440000000  0.5174420000000  0.4185190000000 1.0
C      1  0.4602740000000  0.5751810000000  0.5468320000000 1.0
C      1  0.4031360000000  0.4723360000000  0.4852440000000 1.0
C      1  0.5771200000000  0.4755850000000  0.5576460000000 1.0
C      1  0.5318680000000  0.5994600000000  0.4928840000000 1.0
C      1  0.5141480000000  0.4900450000000  0.4061950000000 1.0
C      1  0.5120640000000  0.4399530000000  0.4797940000000 1.0
C      1  0.5327320000000  0.4696070000000  0.4085200000000 1.0
C      1  0.4255210000000  0.4272060000000  0.5103680000000 1.0
C      1  0.4123360000000  0.4750100000000  0.4579360000000 1.0
C      1  0.5664110000000  0.4957850000000  0.4288290000000 1.0
C      1  0.4464130000000  0.5308280000000  0.4207350000000 1.0
C      1  0.4454380000000  0.4567940000000  0.4233840000000 1.0
C      1  0.4791140000000  0.4633450000000  0.5840600000000 1.0
C      1  0.5227200000000  0.4450630000000  0.4229390000000 1.0
C      1  0.5041190000000  0.5948700000000  0.4898320000000 1.0
C      1  0.5830880000000  0.5327120000000  0.5060440000000 1.0
C      1  0.5917200000000  0.4844350000000  0.4683040000000 1.0
C      1  0.4887290000000  0.5229260000000  0.4657130000000 1.0
C      1  0.4854960000000  0.4489170000000  0.4827970000000 1.0
C      1  0.5656490000000  0.5426710000000  0.5528280000000 1.0
C      1  0.4785840000000  0.4767900000000  0.4673960000000 1.0
C      1  0.5138350000000  0.4861830000000  0.5926560000000 1.0
C      1  0.5425890000000  0.5519750000000  0.5659900000000 1.0
C      1  0.5839350000000  0.5039560000000  0.5154060000000 1.0
C      1  0.5194140000000  0.4081130000000  0.5184370000000 1.0
C      1  0.4630640000000  0.4283250000000  0.4794490000000 1.0
END
