TITL C-57614-9816-6 -0.156039569912514 125000 -454.776231811554 0 0 65 (C1) n - 1
REM
REM in /rds/project/t2_vol4/rds-t2-cs072/BORA/CARBON/from-Arr/AIRSS/Generating-Clusters/GAP-ML-2020/Only-C1/SD-CG/HFTN-CG
REM
REM
REM
REM
REM
REM ./C.cell (11c1c37f851c82e70ff6c80c92926a4b)
REM AIRSS Version 0.9.1 bugfix July 2018 build 013d7b7c2542+ Fri, 06 Jul 2018 19:26:36 +0100
REM compiler GCC version 9.3.0
REM options -cpp -mtune=generic -march=x86-64 -g -O0
REM seed -1391344895 -1392645824 546847562 -1028260136 -1544643961 1754463700 -303926125 7121382 -357849084 2011339840 1786499991 1397821347 1246320678 1645318748 781537999 250907608 -1122755254 1993104550 -1126541509 -123277666 -1510763914 1135157484 -438423635 406992841 -535192389 -68704631 -579670794 1670806998 74806442 327473635 747832853 -348070730 204815945
REM
CELL 1.54180   50.00000   50.00000   50.00000   90.00000   90.00000   90.00000
LATT -1
SFAC C  
C      1  0.4517880000000  0.4597410000000  0.4622820000000 1.0
C      1  0.4910390000000  0.4497570000000  0.5344640000000 1.0
C      1  0.5093270000000  0.4748280000000  0.5185170000000 1.0
C      1  0.4671630000000  0.4680590000000  0.5371200000000 1.0
C      1  0.4738660000000  0.5661910000000  0.4874110000000 1.0
C      1  0.4412710000000  0.5162390000000  0.5229560000000 1.0
C      1  0.5414620000000  0.5395200000000  0.5314450000000 1.0
C      1  0.5380790000000  0.4496210000000  0.5555090000000 1.0
C      1  0.4900900000000  0.4333270000000  0.4627900000000 1.0
C      1  0.5521180000000  0.4961970000000  0.5516010000000 1.0
C      1  0.5554990000000  0.5138470000000  0.5295480000000 1.0
C      1  0.5187550000000  0.5703360000000  0.4986520000000 1.0
C      1  0.4669530000000  0.5444250000000  0.5472480000000 1.0
C      1  0.4730430000000  0.4489160000000  0.4478830000000 1.0
C      1  0.4962490000000  0.5207140000000  0.5164100000000 1.0
C      1  0.5603100000000  0.4978610000000  0.5050940000000 1.0
C      1  0.4904100000000  0.5005940000000  0.4277360000000 1.0
C      1  0.5160360000000  0.5682270000000  0.4701130000000 1.0
C      1  0.5087250000000  0.4993200000000  0.5281420000000 1.0
C      1  0.5137150000000  0.5227150000000  0.5682680000000 1.0
C      1  0.5351710000000  0.5501350000000  0.4610790000000 1.0
C      1  0.4567290000000  0.5154380000000  0.5468290000000 1.0
C      1  0.5534100000000  0.4693660000000  0.5419430000000 1.0
C      1  0.5295330000000  0.5292260000000  0.4430860000000 1.0
C      1  0.4439760000000  0.5312780000000  0.4690510000000 1.0
C      1  0.5243670000000  0.4294190000000  0.5068120000000 1.0
C      1  0.4788130000000  0.4334090000000  0.4895930000000 1.0
C      1  0.5209500000000  0.4562160000000  0.5776210000000 1.0
C      1  0.4521610000000  0.4700550000000  0.5122490000000 1.0
C      1  0.5362060000000  0.4826490000000  0.4396050000000 1.0
C      1  0.5346520000000  0.5033930000000  0.5726590000000 1.0
C      1  0.5177980000000  0.5430000000000  0.5492140000000 1.0
C      1  0.4491570000000  0.5512820000000  0.4888780000000 1.0
C      1  0.4952090000000  0.4309690000000  0.5120860000000 1.0
C      1  0.5444760000000  0.5057250000000  0.4533460000000 1.0
C      1  0.5151780000000  0.4831030000000  0.5799870000000 1.0
C      1  0.5587300000000  0.4690280000000  0.5134060000000 1.0
C      1  0.5181670000000  0.4364360000000  0.4581940000000 1.0
C      1  0.4565820000000  0.4517210000000  0.4901550000000 1.0
C      1  0.5100740000000  0.4714510000000  0.4913870000000 1.0
C      1  0.4901990000000  0.5080100000000  0.4744570000000 1.0
C      1  0.4458570000000  0.5602460000000  0.5380790000000 1.0
C      1  0.4827690000000  0.5453230000000  0.4421330000000 1.0
C      1  0.4467420000000  0.4867170000000  0.4551250000000 1.0
C      1  0.4625630000000  0.5026580000000  0.4364950000000 1.0
C      1  0.4412600000000  0.5445540000000  0.5154900000000 1.0
C      1  0.4696770000000  0.4920840000000  0.5559030000000 1.0
C      1  0.5101480000000  0.4423650000000  0.5556290000000 1.0
C      1  0.5500040000000  0.5402340000000  0.4836270000000 1.0
C      1  0.5491730000000  0.4439770000000  0.5022990000000 1.0
C      1  0.5558020000000  0.5120950000000  0.4802920000000 1.0
C      1  0.4889080000000  0.5646060000000  0.4624950000000 1.0
C      1  0.4586840000000  0.5301590000000  0.4446200000000 1.0
C      1  0.4932900000000  0.5684410000000  0.5103550000000 1.0
C      1  0.4929900000000  0.5494960000000  0.5343880000000 1.0
C      1  0.4929090000000  0.4822060000000  0.4758930000000 1.0
C      1  0.4401810000000  0.4952940000000  0.5043070000000 1.0
C      1  0.4927990000000  0.4995320000000  0.5721390000000 1.0
C      1  0.5348230000000  0.4320170000000  0.4810170000000 1.0
C      1  0.5084260000000  0.4786470000000  0.4285940000000 1.0
C      1  0.5002660000000  0.5254200000000  0.4904300000000 1.0
C      1  0.5029530000000  0.5272280000000  0.4318580000000 1.0
C      1  0.4384580000000  0.5036120000000  0.4765740000000 1.0
C      1  0.5234860000000  0.4579590000000  0.4402600000000 1.0
C      1  0.5403940000000  0.5533850000000  0.5071790000000 1.0
END
