TITL C-57547-5748-1 -170.028361201115 125000 -857.687339842818 0 0 124 (C1) n - 1
REM
REM in /rds/project/t2_vol4/rds-t2-cs072/BORA/CARBON/from-Arr/AIRSS/Generating-Clusters/GAP-ML-2020/Only-C1/SD-CG/HFTN-CG
REM
REM
REM
REM
REM
REM ./C.cell (11c1c37f851c82e70ff6c80c92926a4b)
REM AIRSS Version 0.9.1 bugfix July 2018 build 013d7b7c2542+ Fri, 06 Jul 2018 19:26:36 +0100
REM compiler GCC version 9.3.0
REM options -cpp -mtune=generic -march=x86-64 -g -O0
REM seed -1474923109 -1151311701 -676916421 -407725271 -771960204 52398671 -1429471964 -1436217313 1978001251 -1341665737 -937423453 -2061960603 -1661104236 1951247612 1421465189 1933323085 877281415 808456900 1681047328 -139197540 -1835796379 -1317935200 -624735216 265373604 1864795614 637772410 -1541103174 1009012091 367396532 -1755766614 -876584988 838202155 -953522421
REM
CELL 1.54180   50.00000   50.00000   50.00000   90.00000   90.00000   90.00000
LATT -1
SFAC C  
C      1  0.5875180000000  0.4901510000000  0.5018650000000 1.0
C      1  0.4621550000000  0.5710360000000  0.4403810000000 1.0
C      1  0.4338620000000  0.5508430000000  0.4760460000000 1.0
C      1  0.4851150000000  0.5347530000000  0.4761880000000 1.0
C      1  0.5310510000000  0.5409950000000  0.5078670000000 1.0
C      1  0.4846110000000  0.5079370000000  0.5487160000000 1.0
C      1  0.4015990000000  0.4782790000000  0.5110340000000 1.0
C      1  0.4112750000000  0.5235010000000  0.5090250000000 1.0
C      1  0.4660140000000  0.5350360000000  0.4165340000000 1.0
C      1  0.5356970000000  0.5412080000000  0.4336470000000 1.0
C      1  0.4681340000000  0.4482150000000  0.5525060000000 1.0
C      1  0.4083320000000  0.4720300000000  0.4628180000000 1.0
C      1  0.4702460000000  0.5757970000000  0.5577390000000 1.0
C      1  0.4933200000000  0.5417880000000  0.4226050000000 1.0
C      1  0.4840130000000  0.5305110000000  0.5042090000000 1.0
C      1  0.5408710000000  0.5601700000000  0.5595290000000 1.0
C      1  0.5828600000000  0.4845240000000  0.5508300000000 1.0
C      1  0.4984040000000  0.5877840000000  0.4795260000000 1.0
C      1  0.5451020000000  0.5177920000000  0.5226490000000 1.0
C      1  0.4209160000000  0.4353180000000  0.4908820000000 1.0
C      1  0.4292940000000  0.4820870000000  0.4465670000000 1.0
C      1  0.4795440000000  0.5881430000000  0.5342020000000 1.0
C      1  0.4564580000000  0.5090770000000  0.4239840000000 1.0
C      1  0.5251300000000  0.5339060000000  0.5644360000000 1.0
C      1  0.4543730000000  0.5147850000000  0.5859750000000 1.0
C      1  0.4330970000000  0.5090730000000  0.4418000000000 1.0
C      1  0.5180810000000  0.4480240000000  0.5304360000000 1.0
C      1  0.4507310000000  0.4618460000000  0.4575890000000 1.0
C      1  0.5189850000000  0.4607120000000  0.5687110000000 1.0
C      1  0.5413380000000  0.5849590000000  0.5131570000000 1.0
C      1  0.5593230000000  0.4417800000000  0.5517160000000 1.0
C      1  0.4401370000000  0.5673790000000  0.5236700000000 1.0
C      1  0.4102850000000  0.4508530000000  0.5145060000000 1.0
C      1  0.4966610000000  0.4747440000000  0.4231670000000 1.0
C      1  0.4500500000000  0.4947490000000  0.4996850000000 1.0
C      1  0.5550990000000  0.5133830000000  0.4763780000000 1.0
C      1  0.4524390000000  0.4821210000000  0.5243820000000 1.0
C      1  0.5565770000000  0.5649720000000  0.4688100000000 1.0
C      1  0.5199140000000  0.4316270000000  0.4359040000000 1.0
C      1  0.5518710000000  0.4987000000000  0.4207910000000 1.0
C      1  0.5317120000000  0.5786960000000  0.5400160000000 1.0
C      1  0.4562770000000  0.5248250000000  0.5121470000000 1.0
C      1  0.5709820000000  0.5163880000000  0.5031290000000 1.0
C      1  0.4923210000000  0.4884960000000  0.4787510000000 1.0
C      1  0.4952980000000  0.5011440000000  0.5073120000000 1.0
C      1  0.4477420000000  0.4345730000000  0.5387320000000 1.0
C      1  0.4828660000000  0.4866750000000  0.5286720000000 1.0
C      1  0.5225560000000  0.4928020000000  0.4294780000000 1.0
C      1  0.4891140000000  0.4574890000000  0.5301470000000 1.0
C      1  0.4227830000000  0.4444690000000  0.5379250000000 1.0
C      1  0.4742180000000  0.4887150000000  0.4201530000000 1.0
C      1  0.4554360000000  0.5191390000000  0.5426840000000 1.0
C      1  0.4237730000000  0.4487830000000  0.4674200000000 1.0
C      1  0.5859620000000  0.4737420000000  0.5244790000000 1.0
C      1  0.5154730000000  0.4023450000000  0.5199060000000 1.0
C      1  0.5582030000000  0.5254090000000  0.4292920000000 1.0
C      1  0.4944000000000  0.4460140000000  0.4338200000000 1.0
C      1  0.5423700000000  0.4501330000000  0.4363480000000 1.0
C      1  0.4785790000000  0.4492390000000  0.5031280000000 1.0
C      1  0.5095370000000  0.5767280000000  0.4547400000000 1.0
C      1  0.4695750000000  0.4397710000000  0.4481090000000 1.0
C      1  0.4939780000000  0.4688650000000  0.5790530000000 1.0
C      1  0.5049160000000  0.5772750000000  0.5266630000000 1.0
C      1  0.5346080000000  0.4773530000000  0.4969720000000 1.0
C      1  0.5239470000000  0.4291860000000  0.5077670000000 1.0
C      1  0.4539790000000  0.5378520000000  0.5656250000000 1.0
C      1  0.5783810000000  0.5448490000000  0.4970450000000 1.0
C      1  0.5607890000000  0.4323830000000  0.4746620000000 1.0
C      1  0.4451870000000  0.5635000000000  0.5520870000000 1.0
C      1  0.5442180000000  0.5109690000000  0.5531130000000 1.0
C      1  0.5148260000000  0.5900380000000  0.5019330000000 1.0
C      1  0.5036760000000  0.5167700000000  0.4655610000000 1.0
C      1  0.5675670000000  0.5563420000000  0.5665280000000 1.0
C      1  0.5385290000000  0.4682350000000  0.5256280000000 1.0
C      1  0.4585220000000  0.4294900000000  0.5117980000000 1.0
C      1  0.5245460000000  0.5019290000000  0.5073160000000 1.0
C      1  0.5827400000000  0.5355600000000  0.5668930000000 1.0
C      1  0.4521450000000  0.5714440000000  0.4672090000000 1.0
C      1  0.4111060000000  0.5004180000000  0.5270150000000 1.0
C      1  0.5319070000000  0.4742650000000  0.4529010000000 1.0
C      1  0.5645700000000  0.4497930000000  0.5235660000000 1.0
C      1  0.5527270000000  0.4843620000000  0.4734770000000 1.0
C      1  0.5214730000000  0.4080990000000  0.5465760000000 1.0
C      1  0.5650090000000  0.4663430000000  0.5636120000000 1.0
C      1  0.5704790000000  0.4560910000000  0.4362990000000 1.0
C      1  0.4996390000000  0.3926530000000  0.4992860000000 1.0
C      1  0.5884910000000  0.4966420000000  0.4506170000000 1.0
C      1  0.4485580000000  0.5564830000000  0.4211690000000 1.0
C      1  0.5042940000000  0.5465580000000  0.5207420000000 1.0
C      1  0.3983740000000  0.4875030000000  0.4838300000000 1.0
C      1  0.5003210000000  0.5378210000000  0.5868650000000 1.0
C      1  0.4908470000000  0.5674140000000  0.4359350000000 1.0
C      1  0.4053480000000  0.5152560000000  0.4827180000000 1.0
C      1  0.5534750000000  0.4328810000000  0.5015830000000 1.0
C      1  0.5849260000000  0.4783500000000  0.4741690000000 1.0
C      1  0.5122440000000  0.5221000000000  0.4354660000000 1.0
C      1  0.4653610000000  0.4181600000000  0.4675450000000 1.0
C      1  0.4331720000000  0.5445840000000  0.5055930000000 1.0
C      1  0.5799920000000  0.5484300000000  0.4679010000000 1.0
C      1  0.4361110000000  0.4962310000000  0.5448840000000 1.0
C      1  0.4457670000000  0.4896100000000  0.5729280000000 1.0
C      1  0.5132040000000  0.4669920000000  0.4772850000000 1.0
C      1  0.5393860000000  0.4802870000000  0.5554480000000 1.0
C      1  0.5280450000000  0.5221920000000  0.4834400000000 1.0
C      1  0.4835090000000  0.5160290000000  0.5953810000000 1.0
C      1  0.5407570000000  0.4262080000000  0.4542300000000 1.0
C      1  0.5528410000000  0.5620930000000  0.4989560000000 1.0
C      1  0.5022440000000  0.4378610000000  0.4883900000000 1.0
C      1  0.5352340000000  0.5642840000000  0.4504960000000 1.0
C      1  0.5756630000000  0.5232800000000  0.4534440000000 1.0
C      1  0.4224370000000  0.5277280000000  0.4627750000000 1.0
C      1  0.4692490000000  0.5850410000000  0.4857540000000 1.0
C      1  0.4662510000000  0.4752470000000  0.4829700000000 1.0
C      1  0.4455310000000  0.4209330000000  0.4888800000000 1.0
C      1  0.5739190000000  0.4833690000000  0.4298550000000 1.0
C      1  0.4827360000000  0.5506890000000  0.5675940000000 1.0
C      1  0.5007740000000  0.5336580000000  0.5473090000000 1.0
C      1  0.5797200000000  0.4510660000000  0.4631910000000 1.0
C      1  0.4904360000000  0.4100380000000  0.4799540000000 1.0
C      1  0.5296820000000  0.4351610000000  0.5551100000000 1.0
C      1  0.4923730000000  0.4969950000000  0.5770010000000 1.0
C      1  0.4652540000000  0.4665350000000  0.5731330000000 1.0
C      1  0.4603090000000  0.5852130000000  0.5129600000000 1.0
C      1  0.5740460000000  0.5108550000000  0.5590650000000 1.0
END
