TITL C-57550-2824-9 -0.185617196668585 125000 -667.210294644911 0 0 94 (C1) n - 1
REM
REM in /rds/project/t2_vol4/rds-t2-cs072/BORA/CARBON/from-Arr/AIRSS/Generating-Clusters/GAP-ML-2020/Only-C1/SD-CG/HFTN-CG
REM
REM
REM
REM
REM
REM ./C.cell (11c1c37f851c82e70ff6c80c92926a4b)
REM AIRSS Version 0.9.1 bugfix July 2018 build 013d7b7c2542+ Fri, 06 Jul 2018 19:26:36 +0100
REM compiler GCC version 9.3.0
REM options -cpp -mtune=generic -march=x86-64 -g -O0
REM seed -516506725 -2041120234 1729055850 -1884652968 2005105155 -856460367 -855652199 1951379544 1167348548 1122147040 -1566897668 1410487435 178818342 -1350498476 1484438197 1144690126 871739322 -1168683276 384988872 -974572765 -2023284239 473585054 591769486 -20256763 27774177 -899759111 1750664145 -1481196322 -1401709552 1593520582 1313166783 -550444129 177648909
REM
CELL 1.54180   50.00000   50.00000   50.00000   90.00000   90.00000   90.00000
LATT -1
SFAC C  
C      1  0.4657290000000  0.4694300000000  0.4388650000000 1.0
C      1  0.5422990000000  0.4897000000000  0.4371400000000 1.0
C      1  0.5565150000000  0.5529210000000  0.5621550000000 1.0
C      1  0.4584650000000  0.5681290000000  0.4743320000000 1.0
C      1  0.5407640000000  0.4434060000000  0.4862720000000 1.0
C      1  0.4785700000000  0.5133610000000  0.5039360000000 1.0
C      1  0.5143940000000  0.5370450000000  0.5157550000000 1.0
C      1  0.4674140000000  0.4733290000000  0.5324310000000 1.0
C      1  0.4256880000000  0.5137900000000  0.4889700000000 1.0
C      1  0.5133320000000  0.4493560000000  0.4379150000000 1.0
C      1  0.4853430000000  0.5783820000000  0.4699040000000 1.0
C      1  0.5532900000000  0.5054330000000  0.4604900000000 1.0
C      1  0.4795270000000  0.5722490000000  0.5412300000000 1.0
C      1  0.4677320000000  0.5190700000000  0.4240090000000 1.0
C      1  0.5471520000000  0.5068120000000  0.5671060000000 1.0
C      1  0.5385000000000  0.4625710000000  0.4435980000000 1.0
C      1  0.4954060000000  0.4633110000000  0.5310220000000 1.0
C      1  0.5700820000000  0.4600600000000  0.5195510000000 1.0
C      1  0.5225710000000  0.4895280000000  0.5002300000000 1.0
C      1  0.4864610000000  0.5264780000000  0.5743550000000 1.0
C      1  0.4581890000000  0.5453060000000  0.4321840000000 1.0
C      1  0.4858460000000  0.4965400000000  0.5738760000000 1.0
C      1  0.4542790000000  0.5700180000000  0.5023140000000 1.0
C      1  0.4181830000000  0.4851000000000  0.5263720000000 1.0
C      1  0.5305870000000  0.4407710000000  0.5554000000000 1.0
C      1  0.4981340000000  0.5724700000000  0.4449650000000 1.0
C      1  0.5257170000000  0.5778780000000  0.5359940000000 1.0
C      1  0.4228850000000  0.4866650000000  0.4979180000000 1.0
C      1  0.5676310000000  0.4699180000000  0.5462390000000 1.0
C      1  0.4919580000000  0.5230370000000  0.4786740000000 1.0
C      1  0.5385420000000  0.5132760000000  0.4888440000000 1.0
C      1  0.4919520000000  0.4644950000000  0.4252760000000 1.0
C      1  0.5182160000000  0.5346940000000  0.4868550000000 1.0
C      1  0.4802390000000  0.4051890000000  0.4885930000000 1.0
C      1  0.5194550000000  0.5269030000000  0.4153380000000 1.0
C      1  0.5451710000000  0.5704060000000  0.4946300000000 1.0
C      1  0.5527890000000  0.5344970000000  0.4533950000000 1.0
C      1  0.5514710000000  0.4397360000000  0.5120200000000 1.0
C      1  0.4617320000000  0.4279160000000  0.5320180000000 1.0
C      1  0.4634570000000  0.4990610000000  0.4464990000000 1.0
C      1  0.5381010000000  0.5557900000000  0.4708780000000 1.0
C      1  0.5047290000000  0.4330900000000  0.4591890000000 1.0
C      1  0.5364420000000  0.5433110000000  0.4311840000000 1.0
C      1  0.4516820000000  0.4464620000000  0.4825040000000 1.0
C      1  0.5746860000000  0.5063530000000  0.5197640000000 1.0
C      1  0.4639270000000  0.4903020000000  0.5571090000000 1.0
C      1  0.4468630000000  0.5466090000000  0.4574560000000 1.0
C      1  0.4456300000000  0.5115430000000  0.5561810000000 1.0
C      1  0.5511700000000  0.5646440000000  0.5388120000000 1.0
C      1  0.5686640000000  0.4820550000000  0.4750370000000 1.0
C      1  0.4215760000000  0.4609490000000  0.5395960000000 1.0
C      1  0.4570140000000  0.5554470000000  0.5455630000000 1.0
C      1  0.4844550000000  0.4125740000000  0.4605690000000 1.0
C      1  0.4459280000000  0.4724530000000  0.4896780000000 1.0
C      1  0.4462890000000  0.4505130000000  0.5368860000000 1.0
C      1  0.5046030000000  0.5676250000000  0.5531220000000 1.0
C      1  0.4708870000000  0.4845060000000  0.5025210000000 1.0
C      1  0.5342930000000  0.4273950000000  0.5313820000000 1.0
C      1  0.5038040000000  0.4826760000000  0.4091000000000 1.0
C      1  0.4919680000000  0.4993910000000  0.4635880000000 1.0
C      1  0.5371220000000  0.5341930000000  0.5693960000000 1.0
C      1  0.4772110000000  0.5815150000000  0.5146040000000 1.0
C      1  0.5477340000000  0.4605840000000  0.5637200000000 1.0
C      1  0.5620990000000  0.5273590000000  0.5062100000000 1.0
C      1  0.4998230000000  0.4789160000000  0.4841870000000 1.0
C      1  0.5106700000000  0.4479670000000  0.4834920000000 1.0
C      1  0.4976230000000  0.5855000000000  0.4954080000000 1.0
C      1  0.4399360000000  0.5194130000000  0.4648670000000 1.0
C      1  0.5090270000000  0.5438380000000  0.5696960000000 1.0
C      1  0.4921400000000  0.5334130000000  0.4142400000000 1.0
C      1  0.4415040000000  0.5529770000000  0.5210370000000 1.0
C      1  0.4271240000000  0.5292050000000  0.5142440000000 1.0
C      1  0.5254370000000  0.5654750000000  0.4460790000000 1.0
C      1  0.4871760000000  0.4251310000000  0.5467350000000 1.0
C      1  0.4558180000000  0.4468220000000  0.4540170000000 1.0
C      1  0.5232030000000  0.5835690000000  0.5079290000000 1.0
C      1  0.4964930000000  0.4414050000000  0.5090050000000 1.0
C      1  0.5127010000000  0.4885000000000  0.5259100000000 1.0
C      1  0.4993760000000  0.3968200000000  0.5059710000000 1.0
C      1  0.5245770000000  0.4990320000000  0.4168710000000 1.0
C      1  0.5676130000000  0.4983030000000  0.5470740000000 1.0
C      1  0.5595330000000  0.5550270000000  0.5130830000000 1.0
C      1  0.4253020000000  0.5108050000000  0.5362330000000 1.0
C      1  0.5052640000000  0.4757830000000  0.5753990000000 1.0
C      1  0.5759420000000  0.4825270000000  0.5026420000000 1.0
C      1  0.4624330000000  0.4202130000000  0.4459970000000 1.0
C      1  0.4993370000000  0.5145740000000  0.5234580000000 1.0
C      1  0.5545560000000  0.4581360000000  0.4667690000000 1.0
C      1  0.4827110000000  0.5582560000000  0.4259590000000 1.0
C      1  0.5074490000000  0.4170060000000  0.5247040000000 1.0
C      1  0.4606530000000  0.5343640000000  0.5635060000000 1.0
C      1  0.4682040000000  0.4294340000000  0.5018420000000 1.0
C      1  0.5333170000000  0.4824050000000  0.5751510000000 1.0
C      1  0.5025170000000  0.4496050000000  0.5577820000000 1.0
END
