TITL C-57632-9854-3 -0.329126950463691 125000 -772.983012680471 0 0 111 (C1) n - 1
REM
REM in /rds/project/t2_vol4/rds-t2-cs072/BORA/CARBON/from-Arr/AIRSS/Generating-Clusters/GAP-ML-2020/Only-C1/SD-CG/HFTN-CG
REM
REM
REM
REM
REM
REM ./C.cell (11c1c37f851c82e70ff6c80c92926a4b)
REM AIRSS Version 0.9.1 bugfix July 2018 build 013d7b7c2542+ Fri, 06 Jul 2018 19:26:36 +0100
REM compiler GCC version 9.3.0
REM options -cpp -mtune=generic -march=x86-64 -g -O0
REM seed -1047291389 -522864088 -255057246 367766910 190919125 275897405 726597266 828270740 -1966770480 -487289478 -1265249667 -1726810280 -1889775640 1311530628 -1918549251 -1508217704 -758978443 -155057220 -1906155004 206922333 -2046973041 -768910039 -2068989494 -1325529729 -256001561 -1325081248 -1299995095 -1927842022 -1770542120 1237159279 1038877184 1494190719 404128237
REM
CELL 1.54180   50.00000   50.00000   50.00000   90.00000   90.00000   90.00000
LATT -1
SFAC C  
C      1  0.5192010000000  0.5568770000000  0.4465780000000 1.0
C      1  0.5546760000000  0.5383170000000  0.5691270000000 1.0
C      1  0.4902250000000  0.4728220000000  0.5458680000000 1.0
C      1  0.5527970000000  0.4451050000000  0.4856370000000 1.0
C      1  0.5084200000000  0.5438570000000  0.4949510000000 1.0
C      1  0.4557070000000  0.5064010000000  0.4295950000000 1.0
C      1  0.4531990000000  0.4925730000000  0.5659980000000 1.0
C      1  0.5293100000000  0.4295650000000  0.4945900000000 1.0
C      1  0.4295510000000  0.4536630000000  0.4651170000000 1.0
C      1  0.4556540000000  0.5317350000000  0.4821340000000 1.0
C      1  0.5685480000000  0.5139740000000  0.5644250000000 1.0
C      1  0.4783140000000  0.5062820000000  0.5769150000000 1.0
C      1  0.5285180000000  0.5324220000000  0.5803030000000 1.0
C      1  0.4833380000000  0.4137070000000  0.4965800000000 1.0
C      1  0.5472890000000  0.5804570000000  0.4944760000000 1.0
C      1  0.5056710000000  0.4387330000000  0.5827080000000 1.0
C      1  0.5920100000000  0.4964750000000  0.5220770000000 1.0
C      1  0.4549460000000  0.4896570000000  0.5154540000000 1.0
C      1  0.4653480000000  0.5771430000000  0.4920940000000 1.0
C      1  0.5215080000000  0.5119400000000  0.4666370000000 1.0
C      1  0.4459850000000  0.4477470000000  0.5464190000000 1.0
C      1  0.4071370000000  0.5122430000000  0.5032800000000 1.0
C      1  0.5359270000000  0.5731480000000  0.5425420000000 1.0
C      1  0.6041270000000  0.5165620000000  0.4515450000000 1.0
C      1  0.4242460000000  0.5273130000000  0.5466010000000 1.0
C      1  0.4881380000000  0.5199440000000  0.5286840000000 1.0
C      1  0.5913660000000  0.4995910000000  0.4699340000000 1.0
C      1  0.4466290000000  0.5436480000000  0.5532950000000 1.0
C      1  0.5834610000000  0.4710230000000  0.5205860000000 1.0
C      1  0.5951240000000  0.5104810000000  0.4974170000000 1.0
C      1  0.4186240000000  0.5511200000000  0.4736520000000 1.0
C      1  0.5014500000000  0.4902410000000  0.5877400000000 1.0
C      1  0.5482990000000  0.4940030000000  0.5659280000000 1.0
C      1  0.4907080000000  0.5629130000000  0.4477630000000 1.0
C      1  0.5321120000000  0.5824130000000  0.5157350000000 1.0
C      1  0.5060170000000  0.4527700000000  0.4150430000000 1.0
C      1  0.4909400000000  0.5020940000000  0.5502530000000 1.0
C      1  0.5662270000000  0.4524420000000  0.4573320000000 1.0
C      1  0.5801180000000  0.5419380000000  0.5298490000000 1.0
C      1  0.4247330000000  0.4709750000000  0.4444640000000 1.0
C      1  0.5056470000000  0.5483390000000  0.5749660000000 1.0
C      1  0.5555490000000  0.4960660000000  0.4341800000000 1.0
C      1  0.4782090000000  0.4897370000000  0.4205660000000 1.0
C      1  0.5856940000000  0.5169530000000  0.5421750000000 1.0
C      1  0.4952410000000  0.4688190000000  0.4697080000000 1.0
C      1  0.5420690000000  0.4732430000000  0.4761750000000 1.0
C      1  0.5023470000000  0.4283930000000  0.4554360000000 1.0
C      1  0.5685610000000  0.4825490000000  0.4592620000000 1.0
C      1  0.4573030000000  0.5343610000000  0.4355080000000 1.0
C      1  0.5061760000000  0.4191380000000  0.5389940000000 1.0
C      1  0.4536580000000  0.4379500000000  0.4653510000000 1.0
C      1  0.4851830000000  0.5370920000000  0.4390070000000 1.0
C      1  0.4611110000000  0.4745360000000  0.5435040000000 1.0
C      1  0.4357730000000  0.5081610000000  0.4749430000000 1.0
C      1  0.4108500000000  0.5248000000000  0.4774770000000 1.0
C      1  0.5393990000000  0.5457730000000  0.4302410000000 1.0
C      1  0.5276260000000  0.5423270000000  0.4720950000000 1.0
C      1  0.4364050000000  0.4957060000000  0.4476760000000 1.0
C      1  0.5487410000000  0.4723930000000  0.4163860000000 1.0
C      1  0.5217310000000  0.4394500000000  0.5214970000000 1.0
C      1  0.5602260000000  0.5275350000000  0.4335000000000 1.0
C      1  0.5267240000000  0.5040640000000  0.5835370000000 1.0
C      1  0.5419590000000  0.4833520000000  0.5389710000000 1.0
C      1  0.4551360000000  0.4242960000000  0.5320270000000 1.0
C      1  0.5878320000000  0.5374790000000  0.5012150000000 1.0
C      1  0.4126300000000  0.5328230000000  0.5211800000000 1.0
C      1  0.4788110000000  0.4482570000000  0.4541630000000 1.0
C      1  0.4816760000000  0.4143610000000  0.5247610000000 1.0
C      1  0.5090560000000  0.5674060000000  0.5533870000000 1.0
C      1  0.5269490000000  0.4940960000000  0.4906550000000 1.0
C      1  0.5526520000000  0.5592860000000  0.4788670000000 1.0
C      1  0.4673460000000  0.5468950000000  0.5311730000000 1.0
C      1  0.4986100000000  0.4794120000000  0.4970010000000 1.0
C      1  0.4189900000000  0.4548010000000  0.5387620000000 1.0
C      1  0.4261050000000  0.5004280000000  0.5577840000000 1.0
C      1  0.4850470000000  0.5850270000000  0.5109950000000 1.0
C      1  0.4111750000000  0.4789010000000  0.5483150000000 1.0
C      1  0.5824540000000  0.5330740000000  0.4522170000000 1.0
C      1  0.5251870000000  0.4961520000000  0.4417690000000 1.0
C      1  0.4985970000000  0.4648110000000  0.5749960000000 1.0
C      1  0.4862900000000  0.5702480000000  0.5354820000000 1.0
C      1  0.5208800000000  0.4695900000000  0.4556870000000 1.0
C      1  0.4190880000000  0.4440110000000  0.5111510000000 1.0
C      1  0.5095460000000  0.4190360000000  0.5662650000000 1.0
C      1  0.4789890000000  0.5025230000000  0.5052720000000 1.0
C      1  0.4571420000000  0.4209800000000  0.4869820000000 1.0
C      1  0.4293570000000  0.4901210000000  0.4989030000000 1.0
C      1  0.5158530000000  0.5273280000000  0.5195790000000 1.0
C      1  0.4685980000000  0.5711420000000  0.4641910000000 1.0
C      1  0.5004990000000  0.4618580000000  0.5202880000000 1.0
C      1  0.4388970000000  0.4237190000000  0.5090300000000 1.0
C      1  0.5066640000000  0.4957090000000  0.4163710000000 1.0
C      1  0.5343220000000  0.5051930000000  0.5164880000000 1.0
C      1  0.4467560000000  0.5506710000000  0.4585290000000 1.0
C      1  0.4933640000000  0.5149950000000  0.4598730000000 1.0
C      1  0.5449960000000  0.4551520000000  0.5309280000000 1.0
C      1  0.4228510000000  0.5533290000000  0.5024990000000 1.0
C      1  0.5502610000000  0.4491070000000  0.4338040000000 1.0
C      1  0.4199630000000  0.4629360000000  0.4908070000000 1.0
C      1  0.4520160000000  0.5538700000000  0.5048480000000 1.0
C      1  0.4812070000000  0.4613060000000  0.4264330000000 1.0
C      1  0.5778180000000  0.5482940000000  0.4765820000000 1.0
C      1  0.5213610000000  0.4424090000000  0.4381510000000 1.0
C      1  0.5216510000000  0.4736370000000  0.4049160000000 1.0
C      1  0.4567530000000  0.5494980000000  0.5780430000000 1.0
C      1  0.4830030000000  0.5239730000000  0.4848030000000 1.0
C      1  0.5069540000000  0.4187950000000  0.4811490000000 1.0
C      1  0.5594120000000  0.5559640000000  0.5475040000000 1.0
C      1  0.5086800000000  0.5738580000000  0.5022630000000 1.0
C      1  0.4805200000000  0.5363980000000  0.5812460000000 1.0
C      1  0.5662840000000  0.4517950000000  0.5121860000000 1.0
END
