TITL C-57548-5959-4 -0.1248904861749 125000 -512.363897814041 0 0 75 (C1) n - 1
REM
REM in /rds/project/t2_vol4/rds-t2-cs072/BORA/CARBON/from-Arr/AIRSS/Generating-Clusters/GAP-ML-2020/Only-C1/SD-CG/HFTN-CG
REM
REM
REM
REM
REM
REM ./C.cell (11c1c37f851c82e70ff6c80c92926a4b)
REM AIRSS Version 0.9.1 bugfix July 2018 build 013d7b7c2542+ Fri, 06 Jul 2018 19:26:36 +0100
REM compiler GCC version 9.3.0
REM options -cpp -mtune=generic -march=x86-64 -g -O0
REM seed -1801374412 2015540186 -1236472746 -809637078 -408163560 1768372051 756603691 115733650 1343086977 1081925329 1965888135 -1079203463 -1703382999 -133813712 1104012191 -759817770 93835211 -1688557262 -697743766 248540203 -32138157 2048103283 846484196 -1746833427 -1496613783 -1440132553 61544404 1590600375 -1753550683 -1703142769 994625672 -1758943625 1670224725
REM
CELL 1.54180   50.00000   50.00000   50.00000   90.00000   90.00000   90.00000
LATT -1
SFAC C  
C      1  0.4322880000000  0.4719010000000  0.5335690000000 1.0
C      1  0.5467940000000  0.5089160000000  0.5378200000000 1.0
C      1  0.4820300000000  0.4537260000000  0.4512190000000 1.0
C      1  0.4602390000000  0.4392030000000  0.5156970000000 1.0
C      1  0.4809130000000  0.5760840000000  0.5267860000000 1.0
C      1  0.4304500000000  0.5125770000000  0.5169060000000 1.0
C      1  0.5325930000000  0.4751570000000  0.4381660000000 1.0
C      1  0.4598310000000  0.5164080000000  0.5118500000000 1.0
C      1  0.5232520000000  0.4677540000000  0.5517340000000 1.0
C      1  0.4277770000000  0.4989740000000  0.5413510000000 1.0
C      1  0.4677100000000  0.5255840000000  0.4849160000000 1.0
C      1  0.5252790000000  0.4166630000000  0.5004920000000 1.0
C      1  0.5252710000000  0.4779140000000  0.4944810000000 1.0
C      1  0.5157100000000  0.5012710000000  0.4761670000000 1.0
C      1  0.5559110000000  0.5181130000000  0.4410940000000 1.0
C      1  0.4556270000000  0.4873450000000  0.5769200000000 1.0
C      1  0.4274470000000  0.4690980000000  0.5053340000000 1.0
C      1  0.5052570000000  0.4418730000000  0.4613570000000 1.0
C      1  0.5232150000000  0.5538870000000  0.5265820000000 1.0
C      1  0.5394660000000  0.5645480000000  0.4759190000000 1.0
C      1  0.5302240000000  0.4545570000000  0.4573190000000 1.0
C      1  0.5155350000000  0.4501340000000  0.5307380000000 1.0
C      1  0.5670650000000  0.4819710000000  0.4689570000000 1.0
C      1  0.5810460000000  0.4910110000000  0.5133930000000 1.0
C      1  0.4801650000000  0.4766160000000  0.4920220000000 1.0
C      1  0.4851390000000  0.5505330000000  0.4860720000000 1.0
C      1  0.4974480000000  0.4987140000000  0.5309410000000 1.0
C      1  0.5485430000000  0.4625180000000  0.4804970000000 1.0
C      1  0.5007740000000  0.4859100000000  0.5593240000000 1.0
C      1  0.4884950000000  0.5321840000000  0.4364400000000 1.0
C      1  0.5261440000000  0.5206140000000  0.4952910000000 1.0
C      1  0.5247880000000  0.4993070000000  0.5164500000000 1.0
C      1  0.5039490000000  0.4595510000000  0.5019570000000 1.0
C      1  0.5350410000000  0.5338070000000  0.5463540000000 1.0
C      1  0.5331640000000  0.5317110000000  0.4370320000000 1.0
C      1  0.4749980000000  0.5740390000000  0.5020980000000 1.0
C      1  0.4221230000000  0.4947890000000  0.4950650000000 1.0
C      1  0.5365790000000  0.4335530000000  0.5181220000000 1.0
C      1  0.5400830000000  0.5667360000000  0.5046740000000 1.0
C      1  0.5561530000000  0.4506450000000  0.5070280000000 1.0
C      1  0.4728790000000  0.4866570000000  0.5177520000000 1.0
C      1  0.4441850000000  0.4503220000000  0.4935860000000 1.0
C      1  0.4791860000000  0.4240390000000  0.5052750000000 1.0
C      1  0.4299590000000  0.5007960000000  0.4693990000000 1.0
C      1  0.5611310000000  0.5543870000000  0.4904330000000 1.0
C      1  0.5662360000000  0.4695780000000  0.5250020000000 1.0
C      1  0.5005030000000  0.5541970000000  0.5682410000000 1.0
C      1  0.5105640000000  0.5171910000000  0.4273770000000 1.0
C      1  0.5097240000000  0.4879650000000  0.4269600000000 1.0
C      1  0.4593890000000  0.4608640000000  0.4704960000000 1.0
C      1  0.4646070000000  0.5273740000000  0.5563070000000 1.0
C      1  0.5050730000000  0.5395590000000  0.5076820000000 1.0
C      1  0.4422120000000  0.5382830000000  0.4413320000000 1.0
C      1  0.4454330000000  0.4819070000000  0.4554660000000 1.0
C      1  0.5034710000000  0.5110950000000  0.5766320000000 1.0
C      1  0.4824590000000  0.5255550000000  0.5295530000000 1.0
C      1  0.4433730000000  0.5269700000000  0.4659460000000 1.0
C      1  0.5770800000000  0.5009050000000  0.4868100000000 1.0
C      1  0.4847370000000  0.4755510000000  0.4326010000000 1.0
C      1  0.4732370000000  0.4726180000000  0.5626000000000 1.0
C      1  0.4626750000000  0.5211930000000  0.4335510000000 1.0
C      1  0.4826730000000  0.5328170000000  0.5766730000000 1.0
C      1  0.5697090000000  0.5151180000000  0.5217520000000 1.0
C      1  0.4604400000000  0.4635140000000  0.5361450000000 1.0
C      1  0.5244860000000  0.5537730000000  0.4546000000000 1.0
C      1  0.5603730000000  0.5256310000000  0.4949360000000 1.0
C      1  0.4449430000000  0.5083080000000  0.5609970000000 1.0
C      1  0.4871540000000  0.5013440000000  0.4769250000000 1.0
C      1  0.5019050000000  0.5679430000000  0.5437490000000 1.0
C      1  0.5029390000000  0.4306050000000  0.4894370000000 1.0
C      1  0.5481750000000  0.4805320000000  0.5458480000000 1.0
C      1  0.5207420000000  0.5338900000000  0.5698500000000 1.0
C      1  0.5552250000000  0.4914260000000  0.4452510000000 1.0
C      1  0.4967740000000  0.5501000000000  0.4577230000000 1.0
C      1  0.4618330000000  0.4921010000000  0.4349780000000 1.0
END
