TITL C-57368-8973-1 492.490799343393 125000 -824.836473568729 0 0 120 (C1) n - 1
REM
REM in /rds/project/t2_vol4/rds-t2-cs072/BORA/CARBON/from-Arr/AIRSS/Generating-Clusters/GAP-ML-2020/Only-C1/SD-CG/HFTN-CG
REM
REM
REM
REM
REM
REM ./C.cell (11c1c37f851c82e70ff6c80c92926a4b)
REM AIRSS Version 0.9.1 bugfix July 2018 build 013d7b7c2542+ Fri, 06 Jul 2018 19:26:36 +0100
REM compiler GCC version 9.3.0
REM options -cpp -mtune=generic -march=x86-64 -g -O0
REM seed -115787937 -1205854875 417848776 1377223862 1755067788 -1197120978 545659045 6766752 -1911469236 -1673776910 130138708 -1408753817 217777672 -1463806007 1602894183 1695583085 -1278574972 1178244810 355234198 383827294 1430398777 1129520201 -1494045957 393330508 -1935560195 -582425314 -1790970239 -1537138525 1809016845 -735829115 421727252 1574660488 -1061014786
REM
CELL 1.54180   50.00000   50.00000   50.00000   90.00000   90.00000   90.00000
LATT -1
SFAC C  
C      1  0.4776330000000  0.5225900000000  0.4360260000000 1.0
C      1  0.4047470000000  0.4885880000000  0.5200150000000 1.0
C      1  0.5472810000000  0.4694220000000  0.4233100000000 1.0
C      1  0.5190580000000  0.5084060000000  0.4098110000000 1.0
C      1  0.4300880000000  0.4318120000000  0.4860520000000 1.0
C      1  0.5434120000000  0.5236340000000  0.5026340000000 1.0
C      1  0.4847270000000  0.5847250000000  0.4723320000000 1.0
C      1  0.5615900000000  0.5265030000000  0.5717350000000 1.0
C      1  0.5051840000000  0.5427690000000  0.5237750000000 1.0
C      1  0.5260530000000  0.5226230000000  0.5261760000000 1.0
C      1  0.5394620000000  0.5119740000000  0.4577650000000 1.0
C      1  0.4750840000000  0.4330140000000  0.5452840000000 1.0
C      1  0.4197150000000  0.4639700000000  0.5214660000000 1.0
C      1  0.5015540000000  0.5368760000000  0.4393080000000 1.0
C      1  0.5565180000000  0.4189970000000  0.4834130000000 1.0
C      1  0.5447680000000  0.5745340000000  0.5557010000000 1.0
C      1  0.4763350000000  0.5398060000000  0.4787450000000 1.0
C      1  0.5671140000000  0.4908000000000  0.4815940000000 1.0
C      1  0.5387420000000  0.5171960000000  0.5872460000000 1.0
C      1  0.5108230000000  0.4181740000000  0.4636180000000 1.0
C      1  0.5503430000000  0.4512790000000  0.5120940000000 1.0
C      1  0.5080080000000  0.4982790000000  0.4985070000000 1.0
C      1  0.4219670000000  0.4761410000000  0.4745110000000 1.0
C      1  0.4346520000000  0.5212230000000  0.4466800000000 1.0
C      1  0.4487940000000  0.5599720000000  0.5603620000000 1.0
C      1  0.4703550000000  0.4125660000000  0.4860610000000 1.0
C      1  0.4890490000000  0.4233430000000  0.4461080000000 1.0
C      1  0.4718200000000  0.4628940000000  0.4204680000000 1.0
C      1  0.5259270000000  0.5684810000000  0.4110870000000 1.0
C      1  0.5292760000000  0.5251460000000  0.4324020000000 1.0
C      1  0.4959230000000  0.5852130000000  0.5743060000000 1.0
C      1  0.4459950000000  0.5323680000000  0.5685370000000 1.0
C      1  0.5224200000000  0.5208100000000  0.4813480000000 1.0
C      1  0.4899420000000  0.4509410000000  0.5252960000000 1.0
C      1  0.5734360000000  0.5067180000000  0.5540970000000 1.0
C      1  0.5237850000000  0.4803400000000  0.4108990000000 1.0
C      1  0.4807330000000  0.5001310000000  0.5419130000000 1.0
C      1  0.5550700000000  0.5777620000000  0.5280320000000 1.0
C      1  0.4415700000000  0.5026630000000  0.4235820000000 1.0
C      1  0.4387870000000  0.4340080000000  0.4585320000000 1.0
C      1  0.5091490000000  0.4333650000000  0.5094530000000 1.0
C      1  0.4167840000000  0.4543460000000  0.4934790000000 1.0
C      1  0.5639290000000  0.5524220000000  0.5598710000000 1.0
C      1  0.5262170000000  0.4497500000000  0.5692650000000 1.0
C      1  0.5460250000000  0.4702380000000  0.5752940000000 1.0
C      1  0.4822950000000  0.5367750000000  0.5084210000000 1.0
C      1  0.4488690000000  0.4609240000000  0.5614310000000 1.0
C      1  0.4491030000000  0.4258210000000  0.5331800000000 1.0
C      1  0.5842660000000  0.5383160000000  0.5143330000000 1.0
C      1  0.5816740000000  0.5127630000000  0.5267840000000 1.0
C      1  0.4904730000000  0.5247080000000  0.5615270000000 1.0
C      1  0.4199980000000  0.5386390000000  0.4599900000000 1.0
C      1  0.4511680000000  0.5025580000000  0.5024280000000 1.0
C      1  0.5682700000000  0.5173720000000  0.4661130000000 1.0
C      1  0.4308660000000  0.4600100000000  0.4482810000000 1.0
C      1  0.4319300000000  0.4457760000000  0.5431390000000 1.0
C      1  0.5920410000000  0.4805760000000  0.4675120000000 1.0
C      1  0.4641720000000  0.5656060000000  0.4722240000000 1.0
C      1  0.5166830000000  0.5868310000000  0.4962040000000 1.0
C      1  0.5030400000000  0.5582780000000  0.4180220000000 1.0
C      1  0.4755250000000  0.5721890000000  0.5588350000000 1.0
C      1  0.5450970000000  0.4583280000000  0.4498340000000 1.0
C      1  0.4622850000000  0.5184620000000  0.4606710000000 1.0
C      1  0.5748510000000  0.5566130000000  0.5329050000000 1.0
C      1  0.5043650000000  0.4845340000000  0.5931850000000 1.0
C      1  0.4938550000000  0.4688240000000  0.4640800000000 1.0
C      1  0.4445290000000  0.4742170000000  0.4272300000000 1.0
C      1  0.4521150000000  0.4882340000000  0.5479760000000 1.0
C      1  0.4583270000000  0.5820390000000  0.5124510000000 1.0
C      1  0.4901270000000  0.5039130000000  0.4033880000000 1.0
C      1  0.4976500000000  0.5514940000000  0.5503770000000 1.0
C      1  0.5164180000000  0.4756570000000  0.4807420000000 1.0
C      1  0.4434520000000  0.5687720000000  0.4912530000000 1.0
C      1  0.5499290000000  0.4778200000000  0.5261840000000 1.0
C      1  0.5296800000000  0.4297060000000  0.5523010000000 1.0
C      1  0.5456140000000  0.4069160000000  0.5055430000000 1.0
C      1  0.4247590000000  0.5466230000000  0.4873820000000 1.0
C      1  0.4082460000000  0.4964410000000  0.4923330000000 1.0
C      1  0.4870950000000  0.5921940000000  0.4998550000000 1.0
C      1  0.5123030000000  0.5719900000000  0.4705770000000 1.0
C      1  0.5631990000000  0.4980300000000  0.5091890000000 1.0
C      1  0.4695960000000  0.5238210000000  0.5825360000000 1.0
C      1  0.5120200000000  0.5257450000000  0.5887380000000 1.0
C      1  0.4734320000000  0.4483900000000  0.5687660000000 1.0
C      1  0.4902570000000  0.5098910000000  0.5980750000000 1.0
C      1  0.4249010000000  0.5206140000000  0.5028280000000 1.0
C      1  0.5396330000000  0.5664460000000  0.4582410000000 1.0
C      1  0.5348920000000  0.4261070000000  0.5248500000000 1.0
C      1  0.5416440000000  0.4823020000000  0.4662870000000 1.0
C      1  0.4532210000000  0.5783940000000  0.5400060000000 1.0
C      1  0.5209650000000  0.4923070000000  0.5266390000000 1.0
C      1  0.4991830000000  0.4635030000000  0.5730120000000 1.0
C      1  0.5269950000000  0.4502610000000  0.4919240000000 1.0
C      1  0.4522190000000  0.4259290000000  0.5040700000000 1.0
C      1  0.4716070000000  0.4692740000000  0.4804340000000 1.0
C      1  0.5689880000000  0.5393620000000  0.4880900000000 1.0
C      1  0.5909490000000  0.4586030000000  0.4825860000000 1.0
C      1  0.4471090000000  0.4780860000000  0.5197130000000 1.0
C      1  0.4942460000000  0.4756240000000  0.4077400000000 1.0
C      1  0.5733980000000  0.4417190000000  0.4946520000000 1.0
C      1  0.5329260000000  0.4896440000000  0.5910870000000 1.0
C      1  0.4635560000000  0.4181790000000  0.4588630000000 1.0
C      1  0.4544670000000  0.4920250000000  0.4756070000000 1.0
C      1  0.4655790000000  0.5147640000000  0.4120670000000 1.0
C      1  0.5398350000000  0.5552580000000  0.4318260000000 1.0
C      1  0.5441120000000  0.5806220000000  0.5024500000000 1.0
C      1  0.4985710000000  0.4144040000000  0.4894200000000 1.0
C      1  0.5845870000000  0.4995860000000  0.4463550000000 1.0
C      1  0.4790060000000  0.5094150000000  0.5128240000000 1.0
C      1  0.5614640000000  0.4808280000000  0.5540080000000 1.0
C      1  0.4886410000000  0.4507610000000  0.4393370000000 1.0
C      1  0.5037240000000  0.5429340000000  0.4690180000000 1.0
C      1  0.4338520000000  0.5116490000000  0.5529160000000 1.0
C      1  0.4156920000000  0.5128230000000  0.5313170000000 1.0
C      1  0.5356800000000  0.4343410000000  0.4668860000000 1.0
C      1  0.4996140000000  0.4770310000000  0.5415190000000 1.0
C      1  0.5679210000000  0.4879210000000  0.4288360000000 1.0
C      1  0.5563590000000  0.5648880000000  0.4806960000000 1.0
C      1  0.4670880000000  0.4586090000000  0.5073500000000 1.0
C      1  0.5179560000000  0.5731830000000  0.5643590000000 1.0
END
