TITL C-57637-1122-4 0.117017109203739 125000 -523.421656261082 0 0 77 (C1) n - 1
REM
REM in /rds/project/t2_vol4/rds-t2-cs072/BORA/CARBON/from-Arr/AIRSS/Generating-Clusters/GAP-ML-2020/Only-C1/SD-CG/HFTN-CG
REM
REM
REM
REM
REM
REM ./C.cell (11c1c37f851c82e70ff6c80c92926a4b)
REM AIRSS Version 0.9.1 bugfix July 2018 build 013d7b7c2542+ Fri, 06 Jul 2018 19:26:36 +0100
REM compiler GCC version 9.3.0
REM options -cpp -mtune=generic -march=x86-64 -g -O0
REM seed 1453493322 -205502948 1124577892 -667334777 -1986371632 -910253186 1133494978 949458824 618061364 -1946696082 -1922008448 -1554257486 -689339803 -1871588837 -1774261264 -664230297 -846880222 780780972 1110389080 1392980520 945226344 2024173288 -866923744 -2079588768 -67159468 1048540410 1664741260 580001147 592472590 -387793707 -967826042 785816032 39717773
REM
CELL 1.54180   50.00000   50.00000   50.00000   90.00000   90.00000   90.00000
LATT -1
SFAC C  
C      1  0.5565710000000  0.4758780000000  0.4765820000000 1.0
C      1  0.5265670000000  0.4823140000000  0.4865380000000 1.0
C      1  0.4565180000000  0.4452600000000  0.4711600000000 1.0
C      1  0.4746300000000  0.4895120000000  0.5134180000000 1.0
C      1  0.5379430000000  0.5581210000000  0.5206820000000 1.0
C      1  0.4496750000000  0.5149800000000  0.5529700000000 1.0
C      1  0.5257300000000  0.5581050000000  0.4637480000000 1.0
C      1  0.5733010000000  0.5277540000000  0.5147540000000 1.0
C      1  0.5143640000000  0.4582320000000  0.4979360000000 1.0
C      1  0.5706180000000  0.5020000000000  0.4732480000000 1.0
C      1  0.4663770000000  0.5380070000000  0.5511590000000 1.0
C      1  0.4412340000000  0.5304530000000  0.4527500000000 1.0
C      1  0.4698270000000  0.4419090000000  0.4957150000000 1.0
C      1  0.5403460000000  0.5418720000000  0.5446510000000 1.0
C      1  0.4575890000000  0.4600200000000  0.4468170000000 1.0
C      1  0.5374820000000  0.4944530000000  0.5109450000000 1.0
C      1  0.5194970000000  0.4983840000000  0.4278580000000 1.0
C      1  0.4668320000000  0.4656890000000  0.5597810000000 1.0
C      1  0.5618710000000  0.5243820000000  0.5410460000000 1.0
C      1  0.4655180000000  0.4935880000000  0.4229200000000 1.0
C      1  0.4775810000000  0.5189150000000  0.4280300000000 1.0
C      1  0.4800720000000  0.5404950000000  0.4819480000000 1.0
C      1  0.5177460000000  0.4724830000000  0.5719480000000 1.0
C      1  0.5297680000000  0.4343340000000  0.4959370000000 1.0
C      1  0.4697970000000  0.5252850000000  0.4568030000000 1.0
C      1  0.4930690000000  0.4571970000000  0.5649890000000 1.0
C      1  0.5070620000000  0.5705410000000  0.4823780000000 1.0
C      1  0.5190970000000  0.5295080000000  0.5600560000000 1.0
C      1  0.5390180000000  0.4533500000000  0.5643240000000 1.0
C      1  0.4298280000000  0.5045890000000  0.4560050000000 1.0
C      1  0.5634960000000  0.4640530000000  0.5541690000000 1.0
C      1  0.4939910000000  0.5615410000000  0.5305480000000 1.0
C      1  0.4424350000000  0.4474300000000  0.4966200000000 1.0
C      1  0.5292920000000  0.5133150000000  0.4510030000000 1.0
C      1  0.4551120000000  0.5749400000000  0.4651890000000 1.0
C      1  0.5573110000000  0.5023080000000  0.5584010000000 1.0
C      1  0.5576490000000  0.5485620000000  0.5022820000000 1.0
C      1  0.5651990000000  0.4780300000000  0.5068970000000 1.0
C      1  0.5046100000000  0.5229460000000  0.4224480000000 1.0
C      1  0.5261260000000  0.4997040000000  0.5598160000000 1.0
C      1  0.4433890000000  0.4853200000000  0.4406950000000 1.0
C      1  0.5132110000000  0.5684410000000  0.5113550000000 1.0
C      1  0.5500650000000  0.5471920000000  0.4748290000000 1.0
C      1  0.5041990000000  0.4392450000000  0.5445270000000 1.0
C      1  0.5085670000000  0.5026930000000  0.4740480000000 1.0
C      1  0.4346830000000  0.5539050000000  0.4661190000000 1.0
C      1  0.4791900000000  0.4994180000000  0.4683950000000 1.0
C      1  0.4344940000000  0.5374340000000  0.4899720000000 1.0
C      1  0.4662530000000  0.5545480000000  0.5270320000000 1.0
C      1  0.5078840000000  0.4625390000000  0.5266610000000 1.0
C      1  0.4320380000000  0.5063990000000  0.4865470000000 1.0
C      1  0.4209380000000  0.5145390000000  0.5486300000000 1.0
C      1  0.4320140000000  0.4651100000000  0.5158850000000 1.0
C      1  0.5177740000000  0.4912840000000  0.5311380000000 1.0
C      1  0.5186150000000  0.5397920000000  0.4425100000000 1.0
C      1  0.4604770000000  0.4961740000000  0.4895500000000 1.0
C      1  0.4615800000000  0.4898020000000  0.5428060000000 1.0
C      1  0.4951040000000  0.5431840000000  0.5543400000000 1.0
C      1  0.5311070000000  0.4325430000000  0.5455100000000 1.0
C      1  0.4183350000000  0.4909120000000  0.5084510000000 1.0
C      1  0.4591790000000  0.5444030000000  0.5018520000000 1.0
C      1  0.5467020000000  0.4340400000000  0.5204410000000 1.0
C      1  0.4973640000000  0.5067330000000  0.5166000000000 1.0
C      1  0.5753970000000  0.4844220000000  0.5690460000000 1.0
C      1  0.5515460000000  0.4548550000000  0.4578590000000 1.0
C      1  0.5789210000000  0.5036490000000  0.5002200000000 1.0
C      1  0.4061120000000  0.5044600000000  0.5300800000000 1.0
C      1  0.5095560000000  0.4708590000000  0.4314270000000 1.0
C      1  0.4452530000000  0.4645810000000  0.5417710000000 1.0
C      1  0.4807330000000  0.4695450000000  0.4299530000000 1.0
C      1  0.5552280000000  0.5223260000000  0.4619770000000 1.0
C      1  0.4795160000000  0.5695900000000  0.4760080000000 1.0
C      1  0.4865690000000  0.4626170000000  0.5070600000000 1.0
C      1  0.5648540000000  0.4563270000000  0.5257540000000 1.0
C      1  0.5023690000000  0.5227820000000  0.4934840000000 1.0
C      1  0.5268120000000  0.4528700000000  0.4451910000000 1.0
C      1  0.5332240000000  0.4350330000000  0.4678050000000 1.0
END
