TITL C-57634-9916-4 -74.8848653733018 125000 -904.790729394373 0 0 129 (C1) n - 1
REM
REM in /rds/project/t2_vol4/rds-t2-cs072/BORA/CARBON/from-Arr/AIRSS/Generating-Clusters/GAP-ML-2020/Only-C1/SD-CG/HFTN-CG
REM
REM
REM
REM
REM
REM ./C.cell (11c1c37f851c82e70ff6c80c92926a4b)
REM AIRSS Version 0.9.1 bugfix July 2018 build 013d7b7c2542+ Fri, 06 Jul 2018 19:26:36 +0100
REM compiler GCC version 9.3.0
REM options -cpp -mtune=generic -march=x86-64 -g -O0
REM seed -267373841 -832047142 1234877816 262874535 -135119346 651936708 106501920 1389354005 549211182 -675908716 -1793317921 787521993 189540376 1054405685 -1932183584 -858749090 1486806460 1748896769 -1668250594 -505846162 1071183420 424388448 33610839 1582648150 1162297750 -683073319 210672132 2086318196 -1048561884 321665760 -770212097 -797688623 154269962
REM
CELL 1.54180   50.00000   50.00000   50.00000   90.00000   90.00000   90.00000
LATT -1
SFAC C  
C      1  0.5018350000000  0.4740040000000  0.5012360000000 1.0
C      1  0.5189580000000  0.4245080000000  0.4763760000000 1.0
C      1  0.4730730000000  0.4940490000000  0.5970130000000 1.0
C      1  0.4292960000000  0.5278670000000  0.5493180000000 1.0
C      1  0.4451610000000  0.4909920000000  0.4068040000000 1.0
C      1  0.4438540000000  0.4572880000000  0.5458140000000 1.0
C      1  0.5104060000000  0.5598500000000  0.4869300000000 1.0
C      1  0.4744040000000  0.5309340000000  0.4687350000000 1.0
C      1  0.4970340000000  0.5143040000000  0.4783780000000 1.0
C      1  0.4818010000000  0.5485550000000  0.4908260000000 1.0
C      1  0.4206080000000  0.5470610000000  0.5025000000000 1.0
C      1  0.4522080000000  0.5120660000000  0.4687480000000 1.0
C      1  0.4751690000000  0.5463480000000  0.4402060000000 1.0
C      1  0.4515730000000  0.5369160000000  0.4261100000000 1.0
C      1  0.5121810000000  0.5769680000000  0.4614920000000 1.0
C      1  0.5036650000000  0.4945030000000  0.3990400000000 1.0
C      1  0.4220930000000  0.4379840000000  0.5081280000000 1.0
C      1  0.5753810000000  0.5506690000000  0.5356630000000 1.0
C      1  0.4286730000000  0.4808130000000  0.4288480000000 1.0
C      1  0.5511540000000  0.5582900000000  0.5758550000000 1.0
C      1  0.5223800000000  0.5383120000000  0.5317140000000 1.0
C      1  0.4946230000000  0.5929270000000  0.5148940000000 1.0
C      1  0.4706800000000  0.5469110000000  0.5724850000000 1.0
C      1  0.4374950000000  0.4616940000000  0.4702940000000 1.0
C      1  0.4818600000000  0.4800500000000  0.4506640000000 1.0
C      1  0.4409730000000  0.4383260000000  0.4886020000000 1.0
C      1  0.5383640000000  0.4312180000000  0.4556600000000 1.0
C      1  0.5113860000000  0.4842450000000  0.5282290000000 1.0
C      1  0.6077580000000  0.4816790000000  0.5350370000000 1.0
C      1  0.4953580000000  0.4066260000000  0.5241410000000 1.0
C      1  0.5199780000000  0.5540360000000  0.4404660000000 1.0
C      1  0.5505500000000  0.4627710000000  0.5337200000000 1.0
C      1  0.5504920000000  0.5798210000000  0.5025080000000 1.0
C      1  0.5392200000000  0.4051670000000  0.5236090000000 1.0
C      1  0.4907660000000  0.4449620000000  0.3997220000000 1.0
C      1  0.5022320000000  0.4348720000000  0.4235870000000 1.0
C      1  0.5972160000000  0.5066850000000  0.5308560000000 1.0
C      1  0.5008720000000  0.5357320000000  0.4266280000000 1.0
C      1  0.5465240000000  0.5310750000000  0.5809180000000 1.0
C      1  0.4671160000000  0.4944030000000  0.5211920000000 1.0
C      1  0.5845560000000  0.4399260000000  0.4784950000000 1.0
C      1  0.5302980000000  0.4300930000000  0.5032770000000 1.0
C      1  0.4394420000000  0.5663920000000  0.4599990000000 1.0
C      1  0.4504640000000  0.4997330000000  0.5800150000000 1.0
C      1  0.5065640000000  0.4936170000000  0.4585610000000 1.0
C      1  0.5541330000000  0.4155780000000  0.5436650000000 1.0
C      1  0.5399250000000  0.5772050000000  0.5577440000000 1.0
C      1  0.5891460000000  0.5348540000000  0.4649310000000 1.0
C      1  0.4361950000000  0.4826120000000  0.5622560000000 1.0
C      1  0.4489460000000  0.5275810000000  0.5701570000000 1.0
C      1  0.4626870000000  0.4317070000000  0.5495640000000 1.0
C      1  0.4889030000000  0.4723270000000  0.3890860000000 1.0
C      1  0.5617010000000  0.4694010000000  0.4448310000000 1.0
C      1  0.5230970000000  0.5330540000000  0.4828060000000 1.0
C      1  0.5740070000000  0.4650730000000  0.5502830000000 1.0
C      1  0.5632870000000  0.5529940000000  0.5085570000000 1.0
C      1  0.4883040000000  0.5184740000000  0.4049360000000 1.0
C      1  0.5285290000000  0.4416300000000  0.4309830000000 1.0
C      1  0.4595090000000  0.4712240000000  0.3930060000000 1.0
C      1  0.5647130000000  0.4438930000000  0.4594830000000 1.0
C      1  0.5207060000000  0.5780540000000  0.5096790000000 1.0
C      1  0.4688490000000  0.5698700000000  0.5531160000000 1.0
C      1  0.5063170000000  0.4334360000000  0.5209830000000 1.0
C      1  0.4207930000000  0.4575170000000  0.5266160000000 1.0
C      1  0.5812880000000  0.5108010000000  0.5078090000000 1.0
C      1  0.5408100000000  0.4675850000000  0.4250900000000 1.0
C      1  0.5367060000000  0.5317220000000  0.4546820000000 1.0
C      1  0.4969140000000  0.5272030000000  0.5313920000000 1.0
C      1  0.5267660000000  0.4917670000000  0.4159750000000 1.0
C      1  0.4285850000000  0.5493590000000  0.5303510000000 1.0
C      1  0.4849630000000  0.4507180000000  0.5109290000000 1.0
C      1  0.4831670000000  0.5884990000000  0.4667600000000 1.0
C      1  0.5012340000000  0.4507750000000  0.5800690000000 1.0
C      1  0.5813630000000  0.4472080000000  0.5048910000000 1.0
C      1  0.5392200000000  0.5312560000000  0.5083720000000 1.0
C      1  0.4690530000000  0.4291230000000  0.4948850000000 1.0
C      1  0.4659360000000  0.5737270000000  0.4511290000000 1.0
C      1  0.5415010000000  0.4760680000000  0.5826270000000 1.0
C      1  0.4792700000000  0.4932980000000  0.4942500000000 1.0
C      1  0.4213330000000  0.4997680000000  0.5452810000000 1.0
C      1  0.5158230000000  0.3892140000000  0.5245780000000 1.0
C      1  0.4215470000000  0.5220810000000  0.4595240000000 1.0
C      1  0.4089240000000  0.4962260000000  0.4962100000000 1.0
C      1  0.4749020000000  0.5941190000000  0.4948760000000 1.0
C      1  0.5658050000000  0.4853740000000  0.5708480000000 1.0
C      1  0.5307210000000  0.4514860000000  0.5747730000000 1.0
C      1  0.4896150000000  0.4235950000000  0.4711170000000 1.0
C      1  0.5544920000000  0.5979480000000  0.4820220000000 1.0
C      1  0.5203260000000  0.5215130000000  0.5890000000000 1.0
C      1  0.4565820000000  0.4383760000000  0.4308250000000 1.0
C      1  0.4646780000000  0.4668290000000  0.5270960000000 1.0
C      1  0.4820500000000  0.4345500000000  0.5686820000000 1.0
C      1  0.4589870000000  0.5167850000000  0.4081570000000 1.0
C      1  0.4367820000000  0.4556230000000  0.4414790000000 1.0
C      1  0.4818710000000  0.4286870000000  0.4436170000000 1.0
C      1  0.4798650000000  0.5183860000000  0.6098870000000 1.0
C      1  0.5195370000000  0.5683620000000  0.5385520000000 1.0
C      1  0.5207930000000  0.5113700000000  0.4376640000000 1.0
C      1  0.4904530000000  0.5007390000000  0.5370230000000 1.0
C      1  0.4502290000000  0.5834620000000  0.5057490000000 1.0
C      1  0.5353370000000  0.5940130000000  0.4650860000000 1.0
C      1  0.5667080000000  0.5139550000000  0.5686690000000 1.0
C      1  0.5820990000000  0.5251580000000  0.5469000000000 1.0
C      1  0.4128040000000  0.5236780000000  0.4879810000000 1.0
C      1  0.4141120000000  0.4801210000000  0.4731930000000 1.0
C      1  0.5478560000000  0.4411420000000  0.5536510000000 1.0
C      1  0.4474800000000  0.5710160000000  0.5328100000000 1.0
C      1  0.4966550000000  0.4774590000000  0.5923210000000 1.0
C      1  0.4120420000000  0.4849620000000  0.5225430000000 1.0
C      1  0.5206210000000  0.4928480000000  0.5922860000000 1.0
C      1  0.4679580000000  0.4147360000000  0.5246830000000 1.0
C      1  0.5644260000000  0.4908930000000  0.4635830000000 1.0
C      1  0.4915380000000  0.5817030000000  0.5407240000000 1.0
C      1  0.4925110000000  0.5345000000000  0.5904880000000 1.0
C      1  0.5202850000000  0.4775090000000  0.4789740000000 1.0
C      1  0.5667740000000  0.5687580000000  0.5554450000000 1.0
C      1  0.5943850000000  0.4587770000000  0.5298550000000 1.0
C      1  0.4149880000000  0.4955540000000  0.4491090000000 1.0
C      1  0.4619180000000  0.4445610000000  0.4037700000000 1.0
C      1  0.5477930000000  0.4822840000000  0.4882700000000 1.0
C      1  0.5383140000000  0.4894770000000  0.5328800000000 1.0
C      1  0.5822900000000  0.5355790000000  0.4916340000000 1.0
C      1  0.4778010000000  0.5398370000000  0.5162560000000 1.0
C      1  0.5525480000000  0.4541330000000  0.5056910000000 1.0
C      1  0.4332690000000  0.5685200000000  0.4877970000000 1.0
C      1  0.4618490000000  0.4849210000000  0.4707260000000 1.0
C      1  0.5515250000000  0.5036680000000  0.5102950000000 1.0
C      1  0.5664780000000  0.5201370000000  0.4582120000000 1.0
C      1  0.4301050000000  0.5447710000000  0.4440180000000 1.0
END
