TITL C-57372-9226-6 -0.454874361737852 125000 -799.165257124981 0 0 112 (C1) n - 1
REM
REM in /rds/project/t2_vol4/rds-t2-cs072/BORA/CARBON/from-Arr/AIRSS/Generating-Clusters/GAP-ML-2020/Only-C1/SD-CG/HFTN-CG
REM
REM
REM
REM
REM
REM ./C.cell (11c1c37f851c82e70ff6c80c92926a4b)
REM AIRSS Version 0.9.1 bugfix July 2018 build 013d7b7c2542+ Fri, 06 Jul 2018 19:26:36 +0100
REM compiler GCC version 9.3.0
REM options -cpp -mtune=generic -march=x86-64 -g -O0
REM seed -426871353 1006341718 -1982079427 -2066539297 -339308453 53292001 -1890789915 539188935 -1701288629 1809842804 -942746150 -452289036 -1208602149 1912605477 -1481802856 -1843722274 -342835920 1568195086 1774824097 -2082690580 -1534955676 338407767 -1859389057 -405508735 321462274 1539739348 35534365 379447900 1301820125 556758296 -1680176151 1681723812 2095694025
REM
CELL 1.54180   50.00000   50.00000   50.00000   90.00000   90.00000   90.00000
LATT -1
SFAC C  
C      1  0.4914390000000  0.5789790000000  0.4906040000000 1.0
C      1  0.4416420000000  0.4652870000000  0.5491760000000 1.0
C      1  0.4889390000000  0.4654730000000  0.4114730000000 1.0
C      1  0.4619230000000  0.4431860000000  0.4591090000000 1.0
C      1  0.5764870000000  0.5195260000000  0.4771100000000 1.0
C      1  0.5106760000000  0.4308640000000  0.4538770000000 1.0
C      1  0.5630600000000  0.4794180000000  0.4507370000000 1.0
C      1  0.4899660000000  0.5563390000000  0.4235770000000 1.0
C      1  0.5441350000000  0.5258670000000  0.4289600000000 1.0
C      1  0.4915950000000  0.4782650000000  0.5377640000000 1.0
C      1  0.5693400000000  0.4776260000000  0.5659370000000 1.0
C      1  0.4941800000000  0.5186260000000  0.4649730000000 1.0
C      1  0.5216850000000  0.5183100000000  0.4117710000000 1.0
C      1  0.5650600000000  0.5434000000000  0.4694220000000 1.0
C      1  0.4861310000000  0.5525660000000  0.5033190000000 1.0
C      1  0.4900040000000  0.4303210000000  0.5286940000000 1.0
C      1  0.4956770000000  0.5322120000000  0.5740260000000 1.0
C      1  0.4858030000000  0.4884910000000  0.5982360000000 1.0
C      1  0.4668640000000  0.5198520000000  0.4710860000000 1.0
C      1  0.5694110000000  0.4900680000000  0.4777150000000 1.0
C      1  0.4250500000000  0.4546200000000  0.4835400000000 1.0
C      1  0.5458710000000  0.4466320000000  0.4832320000000 1.0
C      1  0.4684670000000  0.4700780000000  0.5604270000000 1.0
C      1  0.5416610000000  0.5456200000000  0.5584500000000 1.0
C      1  0.4383210000000  0.4451510000000  0.5298330000000 1.0
C      1  0.5180360000000  0.5847550000000  0.5007250000000 1.0
C      1  0.4431180000000  0.4328930000000  0.4782090000000 1.0
C      1  0.5919540000000  0.4890480000000  0.4996060000000 1.0
C      1  0.4630800000000  0.4904550000000  0.5812780000000 1.0
C      1  0.4213800000000  0.5438360000000  0.5125040000000 1.0
C      1  0.5285210000000  0.4469910000000  0.4376080000000 1.0
C      1  0.5448560000000  0.4762200000000  0.4936640000000 1.0
C      1  0.4619640000000  0.5563990000000  0.4298470000000 1.0
C      1  0.5243920000000  0.5778390000000  0.5281030000000 1.0
C      1  0.4510750000000  0.4510790000000  0.4326640000000 1.0
C      1  0.5008490000000  0.4908390000000  0.4620560000000 1.0
C      1  0.5672010000000  0.5563100000000  0.5169170000000 1.0
C      1  0.5523130000000  0.4971800000000  0.4314300000000 1.0
C      1  0.4289440000000  0.4927680000000  0.4444090000000 1.0
C      1  0.4285360000000  0.5211930000000  0.4407480000000 1.0
C      1  0.4958970000000  0.5311480000000  0.4101960000000 1.0
C      1  0.4972630000000  0.5274000000000  0.5424860000000 1.0
C      1  0.5129100000000  0.4233970000000  0.5103740000000 1.0
C      1  0.4239180000000  0.4875890000000  0.5436490000000 1.0
C      1  0.4632780000000  0.5365750000000  0.4958460000000 1.0
C      1  0.4867060000000  0.4487850000000  0.5753370000000 1.0
C      1  0.5914570000000  0.4736970000000  0.5225200000000 1.0
C      1  0.5876560000000  0.4893410000000  0.5469370000000 1.0
C      1  0.4644500000000  0.5070240000000  0.5089080000000 1.0
C      1  0.4504600000000  0.4161820000000  0.4991100000000 1.0
C      1  0.4198730000000  0.4563730000000  0.5109610000000 1.0
C      1  0.5824960000000  0.5182500000000  0.5466420000000 1.0
C      1  0.4351130000000  0.5615160000000  0.4692640000000 1.0
C      1  0.5261720000000  0.4921060000000  0.5741620000000 1.0
C      1  0.5806810000000  0.4465550000000  0.5227770000000 1.0
C      1  0.5367700000000  0.5112700000000  0.5202670000000 1.0
C      1  0.5162980000000  0.4364080000000  0.4833680000000 1.0
C      1  0.4270690000000  0.4828680000000  0.4729200000000 1.0
C      1  0.5789100000000  0.4373660000000  0.5488190000000 1.0
C      1  0.4502040000000  0.5137820000000  0.5743480000000 1.0
C      1  0.5050610000000  0.5702990000000  0.5475060000000 1.0
C      1  0.4402200000000  0.5574250000000  0.4968130000000 1.0
C      1  0.4571350000000  0.5702900000000  0.4540450000000 1.0
C      1  0.5481450000000  0.5474140000000  0.4470400000000 1.0
C      1  0.4918680000000  0.4601020000000  0.5993900000000 1.0
C      1  0.5920340000000  0.5176570000000  0.5010380000000 1.0
C      1  0.4661150000000  0.5369470000000  0.5724780000000 1.0
C      1  0.5481060000000  0.5640490000000  0.5358700000000 1.0
C      1  0.5370740000000  0.5774120000000  0.4812230000000 1.0
C      1  0.5155620000000  0.5551430000000  0.5696980000000 1.0
C      1  0.4887080000000  0.5045370000000  0.5244940000000 1.0
C      1  0.4782050000000  0.4719590000000  0.4714770000000 1.0
C      1  0.4495130000000  0.5317880000000  0.4230880000000 1.0
C      1  0.4845780000000  0.4291750000000  0.4444020000000 1.0
C      1  0.5504030000000  0.4541410000000  0.4538300000000 1.0
C      1  0.5590630000000  0.4349020000000  0.5073650000000 1.0
C      1  0.5851630000000  0.5341980000000  0.5229540000000 1.0
C      1  0.5590910000000  0.4504820000000  0.5613830000000 1.0
C      1  0.5022700000000  0.4335160000000  0.5562010000000 1.0
C      1  0.5213660000000  0.4746370000000  0.5462330000000 1.0
C      1  0.4301650000000  0.5135180000000  0.5539530000000 1.0
C      1  0.4706580000000  0.5160380000000  0.4104020000000 1.0
C      1  0.4838150000000  0.5546990000000  0.5339470000000 1.0
C      1  0.5423710000000  0.4839500000000  0.5245500000000 1.0
C      1  0.5263610000000  0.5282980000000  0.5395500000000 1.0
C      1  0.5133110000000  0.5092370000000  0.5038510000000 1.0
C      1  0.4869740000000  0.4577900000000  0.5177280000000 1.0
C      1  0.4108290000000  0.4982960000000  0.4931210000000 1.0
C      1  0.4323560000000  0.5383560000000  0.5387900000000 1.0
C      1  0.4831750000000  0.5794010000000  0.4634280000000 1.0
C      1  0.4209370000000  0.5370270000000  0.4637800000000 1.0
C      1  0.5174430000000  0.4653360000000  0.4165190000000 1.0
C      1  0.5599030000000  0.5621370000000  0.4900030000000 1.0
C      1  0.5304400000000  0.4900720000000  0.4139760000000 1.0
C      1  0.4122500000000  0.5263180000000  0.4898880000000 1.0
C      1  0.5067550000000  0.5315210000000  0.4878790000000 1.0
C      1  0.4593690000000  0.4919770000000  0.4829810000000 1.0
C      1  0.5536530000000  0.4987870000000  0.5756720000000 1.0
C      1  0.4760260000000  0.4423940000000  0.4204980000000 1.0
C      1  0.5363340000000  0.4285080000000  0.5245610000000 1.0
C      1  0.5299800000000  0.5689230000000  0.4541150000000 1.0
C      1  0.5046470000000  0.5065360000000  0.5869940000000 1.0
C      1  0.4601630000000  0.4267100000000  0.5222940000000 1.0
C      1  0.5623580000000  0.5246470000000  0.5657480000000 1.0
C      1  0.5170590000000  0.4851650000000  0.4864360000000 1.0
C      1  0.4459670000000  0.4779740000000  0.4271620000000 1.0
C      1  0.5034600000000  0.5719580000000  0.4438110000000 1.0
C      1  0.4573630000000  0.5502640000000  0.5484380000000 1.0
C      1  0.5299830000000  0.4443950000000  0.5502210000000 1.0
C      1  0.4690020000000  0.4876300000000  0.4121750000000 1.0
C      1  0.4118230000000  0.4828220000000  0.5177250000000 1.0
C      1  0.4982030000000  0.4610300000000  0.4915690000000 1.0
END
