TITL C-57548-5959-6 0.0639706475823804 125000 -1062.05063238139 0 0 151 (C1) n - 1
REM
REM in /rds/project/t2_vol4/rds-t2-cs072/BORA/CARBON/from-Arr/AIRSS/Generating-Clusters/GAP-ML-2020/Only-C1/SD-CG/HFTN-CG
REM
REM
REM
REM
REM
REM ./C.cell (11c1c37f851c82e70ff6c80c92926a4b)
REM AIRSS Version 0.9.1 bugfix July 2018 build 013d7b7c2542+ Fri, 06 Jul 2018 19:26:36 +0100
REM compiler GCC version 9.3.0
REM options -cpp -mtune=generic -march=x86-64 -g -O0
REM seed 1058885458 1276684658 -1403686610 286958980 139922440 -1814523799 692574515 104409959 -1690062240 197418867 167704006 -1018394475 1989186803 480062066 -1634875593 1488577649 -867734889 199353775 -451749178 -1275542013 373676419 1901444457 959744315 -771074037 1336829246 -1643956094 1688418541 459005152 -1401834662 -1633098318 -1511531276 1161745747 -2039717353
REM
CELL 1.54180   50.00000   50.00000   50.00000   90.00000   90.00000   90.00000
LATT -1
SFAC C  
C      1  0.4582240000000  0.4549650000000  0.4561780000000 1.0
C      1  0.5977580000000  0.4699390000000  0.5268020000000 1.0
C      1  0.4931450000000  0.4688200000000  0.5985310000000 1.0
C      1  0.4527030000000  0.5417900000000  0.5686840000000 1.0
C      1  0.5335300000000  0.4232260000000  0.4411710000000 1.0
C      1  0.5944150000000  0.4605750000000  0.4995270000000 1.0
C      1  0.4148430000000  0.5461720000000  0.5061190000000 1.0
C      1  0.4765600000000  0.4012100000000  0.5264050000000 1.0
C      1  0.5023250000000  0.3975090000000  0.5362170000000 1.0
C      1  0.5996630000000  0.4982970000000  0.5191600000000 1.0
C      1  0.4543810000000  0.5128450000000  0.5593640000000 1.0
C      1  0.4686660000000  0.5169740000000  0.4170220000000 1.0
C      1  0.4332880000000  0.4948320000000  0.5712750000000 1.0
C      1  0.5041850000000  0.4607670000000  0.5455460000000 1.0
C      1  0.4739160000000  0.4460690000000  0.5089180000000 1.0
C      1  0.5862080000000  0.4303240000000  0.4927260000000 1.0
C      1  0.5765580000000  0.5713880000000  0.4941320000000 1.0
C      1  0.4086340000000  0.5038160000000  0.5610780000000 1.0
C      1  0.5763850000000  0.5438450000000  0.4882140000000 1.0
C      1  0.5464590000000  0.5088020000000  0.5098020000000 1.0
C      1  0.5342390000000  0.4895080000000  0.5929470000000 1.0
C      1  0.5090860000000  0.6012110000000  0.4920390000000 1.0
C      1  0.5238320000000  0.5211660000000  0.4688130000000 1.0
C      1  0.5462110000000  0.5028090000000  0.4102510000000 1.0
C      1  0.4707740000000  0.5830370000000  0.5482220000000 1.0
C      1  0.5216980000000  0.5193110000000  0.4150980000000 1.0
C      1  0.5668290000000  0.4222510000000  0.5144340000000 1.0
C      1  0.5201060000000  0.4862540000000  0.5423960000000 1.0
C      1  0.4664860000000  0.4336180000000  0.4791110000000 1.0
C      1  0.5367920000000  0.5998190000000  0.4982530000000 1.0
C      1  0.5472330000000  0.5310330000000  0.5792200000000 1.0
C      1  0.5114680000000  0.5105100000000  0.4439750000000 1.0
C      1  0.5607280000000  0.4420110000000  0.5376590000000 1.0
C      1  0.5555650000000  0.5862200000000  0.4807700000000 1.0
C      1  0.4329720000000  0.4657880000000  0.5689880000000 1.0
C      1  0.5812290000000  0.4255050000000  0.4647680000000 1.0
C      1  0.4264020000000  0.5307280000000  0.4326650000000 1.0
C      1  0.5394180000000  0.4286000000000  0.5544220000000 1.0
C      1  0.5467350000000  0.4765930000000  0.4530470000000 1.0
C      1  0.4898070000000  0.4303200000000  0.5743550000000 1.0
C      1  0.5234450000000  0.4443970000000  0.4771060000000 1.0
C      1  0.5422050000000  0.4066490000000  0.5130870000000 1.0
C      1  0.4008300000000  0.4846220000000  0.5414240000000 1.0
C      1  0.4824840000000  0.5207440000000  0.4449450000000 1.0
C      1  0.5683800000000  0.5933020000000  0.5341110000000 1.0
C      1  0.5179260000000  0.4813820000000  0.4450180000000 1.0
C      1  0.4874340000000  0.4196990000000  0.4604650000000 1.0
C      1  0.5704070000000  0.5434340000000  0.5361840000000 1.0
C      1  0.4498850000000  0.5408220000000  0.4209630000000 1.0
C      1  0.5461960000000  0.4883420000000  0.5304880000000 1.0
C      1  0.4846850000000  0.5518770000000  0.4456250000000 1.0
C      1  0.5172830000000  0.4657990000000  0.4163020000000 1.0
C      1  0.3912800000000  0.4889860000000  0.4935480000000 1.0
C      1  0.4191390000000  0.4409380000000  0.5014020000000 1.0
C      1  0.4937320000000  0.4799210000000  0.4038080000000 1.0
C      1  0.5487610000000  0.4613280000000  0.5168840000000 1.0
C      1  0.4582120000000  0.5623750000000  0.4376160000000 1.0
C      1  0.5451610000000  0.4743720000000  0.4096440000000 1.0
C      1  0.4857810000000  0.5186740000000  0.4945810000000 1.0
C      1  0.5188350000000  0.5831630000000  0.4486940000000 1.0
C      1  0.5161890000000  0.4162500000000  0.4679230000000 1.0
C      1  0.4759480000000  0.4478950000000  0.5919450000000 1.0
C      1  0.5082380000000  0.5379390000000  0.4860620000000 1.0
C      1  0.4685320000000  0.5359730000000  0.5138720000000 1.0
C      1  0.4859440000000  0.5483030000000  0.5339180000000 1.0
C      1  0.5038140000000  0.4699250000000  0.4674310000000 1.0
C      1  0.4766630000000  0.4730720000000  0.5476160000000 1.0
C      1  0.5782710000000  0.5709980000000  0.5233930000000 1.0
C      1  0.4672770000000  0.4708590000000  0.4114050000000 1.0
C      1  0.4948710000000  0.5082790000000  0.4039000000000 1.0
C      1  0.4439290000000  0.5061440000000  0.4827330000000 1.0
C      1  0.5525490000000  0.5510100000000  0.5600980000000 1.0
C      1  0.5137960000000  0.4814680000000  0.4934380000000 1.0
C      1  0.5829390000000  0.5293810000000  0.4646700000000 1.0
C      1  0.4501110000000  0.5169440000000  0.5274910000000 1.0
C      1  0.5551300000000  0.5032160000000  0.5784320000000 1.0
C      1  0.4300320000000  0.4457580000000  0.4582460000000 1.0
C      1  0.4488120000000  0.5855430000000  0.5285920000000 1.0
C      1  0.5696720000000  0.5107820000000  0.4243780000000 1.0
C      1  0.6020930000000  0.4899230000000  0.4909120000000 1.0
C      1  0.5852840000000  0.5145830000000  0.5385820000000 1.0
C      1  0.4885470000000  0.5591170000000  0.4743620000000 1.0
C      1  0.5205220000000  0.5352120000000  0.5895090000000 1.0
C      1  0.5285970000000  0.5480360000000  0.4207700000000 1.0
C      1  0.5151920000000  0.4367350000000  0.4249370000000 1.0
C      1  0.4933630000000  0.4950400000000  0.5111190000000 1.0
C      1  0.5527250000000  0.5560680000000  0.4352910000000 1.0
C      1  0.5463250000000  0.5783720000000  0.4538790000000 1.0
C      1  0.4361800000000  0.4304980000000  0.4811750000000 1.0
C      1  0.5108590000000  0.5349190000000  0.5334510000000 1.0
C      1  0.4236860000000  0.5459670000000  0.4574100000000 1.0
C      1  0.5654770000000  0.4638020000000  0.4927120000000 1.0
C      1  0.5280660000000  0.5699770000000  0.5619590000000 1.0
C      1  0.5008860000000  0.5867160000000  0.4697660000000 1.0
C      1  0.5132190000000  0.5092770000000  0.5979330000000 1.0
C      1  0.5349210000000  0.5004230000000  0.4860850000000 1.0
C      1  0.4973370000000  0.3953580000000  0.5078940000000 1.0
C      1  0.5224100000000  0.4553840000000  0.5045670000000 1.0
C      1  0.5858290000000  0.5004920000000  0.4676450000000 1.0
C      1  0.4084790000000  0.4628490000000  0.4608170000000 1.0
C      1  0.4706330000000  0.5065890000000  0.4701180000000 1.0
C      1  0.5022170000000  0.5072830000000  0.5383890000000 1.0
C      1  0.5641370000000  0.4653840000000  0.4304370000000 1.0
C      1  0.4283420000000  0.5707470000000  0.5114330000000 1.0
C      1  0.4775010000000  0.5575710000000  0.5623360000000 1.0
C      1  0.4678760000000  0.4483240000000  0.4289440000000 1.0
C      1  0.4253020000000  0.5019090000000  0.4292540000000 1.0
C      1  0.5621560000000  0.4361290000000  0.4461500000000 1.0
C      1  0.5681420000000  0.4935190000000  0.5527490000000 1.0
C      1  0.4639530000000  0.4280010000000  0.5586260000000 1.0
C      1  0.4937380000000  0.5970620000000  0.5380100000000 1.0
C      1  0.4448230000000  0.5786560000000  0.4869370000000 1.0
C      1  0.4695170000000  0.4763590000000  0.5176780000000 1.0
C      1  0.5258590000000  0.5423990000000  0.5101880000000 1.0
C      1  0.4082280000000  0.5310800000000  0.5521250000000 1.0
C      1  0.4799150000000  0.4992490000000  0.5611600000000 1.0
C      1  0.4315950000000  0.5340040000000  0.4832570000000 1.0
C      1  0.4173340000000  0.4596330000000  0.5457790000000 1.0
C      1  0.5592270000000  0.4886220000000  0.4773700000000 1.0
C      1  0.5203030000000  0.4636400000000  0.5909820000000 1.0
C      1  0.5724940000000  0.5355890000000  0.4388030000000 1.0
C      1  0.4508990000000  0.4459510000000  0.5779440000000 1.0
C      1  0.4758450000000  0.4774340000000  0.4669880000000 1.0
C      1  0.4273350000000  0.5486690000000  0.5619460000000 1.0
C      1  0.5207840000000  0.4007980000000  0.4929580000000 1.0
C      1  0.5066060000000  0.5568260000000  0.5763790000000 1.0
C      1  0.5553860000000  0.5358100000000  0.5104670000000 1.0
C      1  0.4579930000000  0.4271830000000  0.5303520000000 1.0
C      1  0.5799100000000  0.4649770000000  0.5472080000000 1.0
C      1  0.4282290000000  0.4392330000000  0.5278790000000 1.0
C      1  0.3997910000000  0.5296650000000  0.5243880000000 1.0
C      1  0.5297290000000  0.4073540000000  0.5385480000000 1.0
C      1  0.5422870000000  0.5994540000000  0.5266950000000 1.0
C      1  0.5014400000000  0.4451680000000  0.5203720000000 1.0
C      1  0.5080970000000  0.5634200000000  0.4317240000000 1.0
C      1  0.5171450000000  0.4431790000000  0.5685360000000 1.0
C      1  0.5211140000000  0.5919450000000  0.5450360000000 1.0
C      1  0.4015330000000  0.4617920000000  0.4883200000000 1.0
C      1  0.4878500000000  0.6034330000000  0.5106510000000 1.0
C      1  0.5504630000000  0.4512510000000  0.4693100000000 1.0
C      1  0.3924330000000  0.5012800000000  0.5191300000000 1.0
C      1  0.3958110000000  0.5031410000000  0.4695050000000 1.0
C      1  0.4502080000000  0.4941810000000  0.4158030000000 1.0
C      1  0.4887420000000  0.4303840000000  0.4337600000000 1.0
C      1  0.5801380000000  0.4889920000000  0.4389710000000 1.0
C      1  0.4598730000000  0.5522790000000  0.4889690000000 1.0
C      1  0.4890550000000  0.4961220000000  0.5907660000000 1.0
C      1  0.4606610000000  0.5969100000000  0.5048910000000 1.0
C      1  0.4390960000000  0.5702850000000  0.4573730000000 1.0
C      1  0.4070360000000  0.4890250000000  0.4482500000000 1.0
C      1  0.4469890000000  0.4943390000000  0.5096380000000 1.0
END
