TITL C-57367-1002-4 0.0547663132584897 125000 -743.847314231413 0 0 106 (C1) n - 1
REM
REM in /rds/project/t2_vol4/rds-t2-cs072/BORA/CARBON/from-Arr/AIRSS/Generating-Clusters/GAP-ML-2020/Only-C1/SD-CG/HFTN-CG
REM
REM
REM
REM
REM
REM ./C.cell (11c1c37f851c82e70ff6c80c92926a4b)
REM AIRSS Version 0.9.1 bugfix July 2018 build 013d7b7c2542+ Fri, 06 Jul 2018 19:26:36 +0100
REM compiler GCC version 9.3.0
REM options -cpp -mtune=generic -march=x86-64 -g -O0
REM seed 127317930 187762150 67302731 -439114558 1593265933 -1391057364 950841306 -1486118119 -176684292 1394613015 -297663839 1962161206 1299704994 -1856528852 -1435050282 937122092 1132442831 -1351424035 -1874121704 -1253610969 218615494 1516624792 1232869069 1277402153 1989160979 1159583251 1142622022 1243071024 -1059119813 1011604693 -585264009 -1721228510 -1858672560
REM
CELL 1.54180   50.00000   50.00000   50.00000   90.00000   90.00000   90.00000
LATT -1
SFAC C  
C      1  0.5081500000000  0.3982090000000  0.5033750000000 1.0
C      1  0.4860800000000  0.4294530000000  0.4691180000000 1.0
C      1  0.4918900000000  0.5074900000000  0.5050660000000 1.0
C      1  0.5315860000000  0.5179370000000  0.4419150000000 1.0
C      1  0.4970180000000  0.4641680000000  0.4377330000000 1.0
C      1  0.5358770000000  0.4171010000000  0.4699510000000 1.0
C      1  0.4927700000000  0.4412860000000  0.5420950000000 1.0
C      1  0.5002250000000  0.4926140000000  0.5759100000000 1.0
C      1  0.5231250000000  0.5091180000000  0.5808420000000 1.0
C      1  0.4776280000000  0.4498260000000  0.5670200000000 1.0
C      1  0.4272210000000  0.5055690000000  0.4412470000000 1.0
C      1  0.5366220000000  0.5517240000000  0.5590660000000 1.0
C      1  0.4295190000000  0.4665820000000  0.5536720000000 1.0
C      1  0.5595800000000  0.4819160000000  0.4664520000000 1.0
C      1  0.4611450000000  0.4966690000000  0.5384000000000 1.0
C      1  0.4876610000000  0.4158550000000  0.4974760000000 1.0
C      1  0.5110980000000  0.5585550000000  0.4371190000000 1.0
C      1  0.4550240000000  0.5610650000000  0.4474150000000 1.0
C      1  0.5506930000000  0.5631890000000  0.5144620000000 1.0
C      1  0.5132510000000  0.4250520000000  0.4539540000000 1.0
C      1  0.5669020000000  0.5116060000000  0.5601250000000 1.0
C      1  0.4819060000000  0.5559470000000  0.5341790000000 1.0
C      1  0.5513740000000  0.4236270000000  0.5148400000000 1.0
C      1  0.5316610000000  0.4892080000000  0.4827360000000 1.0
C      1  0.4921860000000  0.5470280000000  0.5763450000000 1.0
C      1  0.5800910000000  0.4716760000000  0.5337440000000 1.0
C      1  0.4534800000000  0.4976950000000  0.4883750000000 1.0
C      1  0.5238550000000  0.4535250000000  0.5747150000000 1.0
C      1  0.5074180000000  0.5426590000000  0.5219990000000 1.0
C      1  0.5324470000000  0.4091130000000  0.4975430000000 1.0
C      1  0.4703390000000  0.5509360000000  0.5614680000000 1.0
C      1  0.5003800000000  0.4702780000000  0.5317590000000 1.0
C      1  0.4235270000000  0.4914980000000  0.4854760000000 1.0
C      1  0.5120400000000  0.4682040000000  0.4847370000000 1.0
C      1  0.5326860000000  0.4980620000000  0.5143640000000 1.0
C      1  0.4034230000000  0.5049640000000  0.5022920000000 1.0
C      1  0.5810280000000  0.4847490000000  0.4859220000000 1.0
C      1  0.5606600000000  0.5057100000000  0.4467760000000 1.0
C      1  0.4339280000000  0.4537490000000  0.4608650000000 1.0
C      1  0.5691150000000  0.5444440000000  0.5265920000000 1.0
C      1  0.4505140000000  0.4539840000000  0.5658540000000 1.0
C      1  0.4401990000000  0.5112580000000  0.5552130000000 1.0
C      1  0.4538850000000  0.4326300000000  0.4629460000000 1.0
C      1  0.4699560000000  0.5110800000000  0.4671250000000 1.0
C      1  0.5467680000000  0.4333370000000  0.5410870000000 1.0
C      1  0.4923290000000  0.4894720000000  0.4259820000000 1.0
C      1  0.5705720000000  0.5264930000000  0.4664990000000 1.0
C      1  0.5484450000000  0.4963880000000  0.5755930000000 1.0
C      1  0.4716460000000  0.5891960000000  0.4889330000000 1.0
C      1  0.5014270000000  0.5764680000000  0.4560780000000 1.0
C      1  0.4680590000000  0.4707900000000  0.4905910000000 1.0
C      1  0.5544150000000  0.5512780000000  0.4648220000000 1.0
C      1  0.5636720000000  0.4552440000000  0.5511290000000 1.0
C      1  0.5590940000000  0.4553530000000  0.4543480000000 1.0
C      1  0.4928700000000  0.4778260000000  0.5043400000000 1.0
C      1  0.4765740000000  0.4305470000000  0.5185700000000 1.0
C      1  0.4432810000000  0.5396200000000  0.5565690000000 1.0
C      1  0.4021970000000  0.5003670000000  0.5289630000000 1.0
C      1  0.5104950000000  0.5139780000000  0.5260980000000 1.0
C      1  0.5181700000000  0.4453790000000  0.4346070000000 1.0
C      1  0.4480350000000  0.5893790000000  0.5022000000000 1.0
C      1  0.5606030000000  0.5387590000000  0.5532210000000 1.0
C      1  0.4174230000000  0.4947330000000  0.5511900000000 1.0
C      1  0.5076150000000  0.5142020000000  0.4233910000000 1.0
C      1  0.4302700000000  0.5533270000000  0.4595530000000 1.0
C      1  0.5814430000000  0.5001150000000  0.5382700000000 1.0
C      1  0.5680380000000  0.4395100000000  0.4979520000000 1.0
C      1  0.5275930000000  0.5649450000000  0.5333520000000 1.0
C      1  0.4891840000000  0.4592110000000  0.4671690000000 1.0
C      1  0.4355150000000  0.5490500000000  0.5309050000000 1.0
C      1  0.4991920000000  0.4648540000000  0.5814920000000 1.0
C      1  0.5588680000000  0.4343760000000  0.4714000000000 1.0
C      1  0.5199110000000  0.5102130000000  0.4685170000000 1.0
C      1  0.5016890000000  0.5470020000000  0.4934680000000 1.0
C      1  0.4193650000000  0.5542490000000  0.4866350000000 1.0
C      1  0.4606360000000  0.5420570000000  0.5179630000000 1.0
C      1  0.4555650000000  0.4494150000000  0.5093270000000 1.0
C      1  0.5807500000000  0.4641760000000  0.5057640000000 1.0
C      1  0.5484160000000  0.4679510000000  0.5720700000000 1.0
C      1  0.5154380000000  0.5750260000000  0.4823010000000 1.0
C      1  0.5439460000000  0.5672170000000  0.4864360000000 1.0
C      1  0.5583250000000  0.4734090000000  0.4124980000000 1.0
C      1  0.5178030000000  0.5374470000000  0.5761290000000 1.0
C      1  0.4503020000000  0.5153190000000  0.4265800000000 1.0
C      1  0.4179640000000  0.5272160000000  0.4562290000000 1.0
C      1  0.4955220000000  0.5213110000000  0.4791470000000 1.0
C      1  0.4632500000000  0.5122170000000  0.5127720000000 1.0
C      1  0.4395990000000  0.4398290000000  0.4853840000000 1.0
C      1  0.5452020000000  0.4542220000000  0.4296020000000 1.0
C      1  0.5209610000000  0.4348000000000  0.5538680000000 1.0
C      1  0.5022820000000  0.5802650000000  0.5282950000000 1.0
C      1  0.4075350000000  0.5272950000000  0.4838650000000 1.0
C      1  0.4306010000000  0.5678950000000  0.5098470000000 1.0
C      1  0.4476990000000  0.4689870000000  0.5316800000000 1.0
C      1  0.4739130000000  0.5782820000000  0.4612810000000 1.0
C      1  0.5357990000000  0.5466860000000  0.4433130000000 1.0
C      1  0.5834780000000  0.5132130000000  0.4893730000000 1.0
C      1  0.4933400000000  0.5389470000000  0.4250240000000 1.0
C      1  0.5703180000000  0.4949160000000  0.4198830000000 1.0
C      1  0.4233260000000  0.4807810000000  0.4583280000000 1.0
C      1  0.5286970000000  0.4750120000000  0.5285530000000 1.0
C      1  0.4978130000000  0.5881460000000  0.5016150000000 1.0
C      1  0.4686050000000  0.4978380000000  0.4385370000000 1.0
C      1  0.4911510000000  0.4955810000000  0.5472780000000 1.0
C      1  0.5830960000000  0.5207550000000  0.5171570000000 1.0
C      1  0.4647420000000  0.5411240000000  0.4286970000000 1.0
END
