TITL C-57533-5535-8 -3.04555096939183 125000 -108.960653177699 0 0 17 (C1) n - 1
REM
REM in /rds/project/t2_vol4/rds-t2-cs072/BORA/CARBON/from-Arr/AIRSS/Generating-Clusters/GAP-ML-2020/Only-C1/SD-CG/HFTN-CG
REM
REM
REM
REM
REM
REM ./C.cell (11c1c37f851c82e70ff6c80c92926a4b)
REM AIRSS Version 0.9.1 bugfix July 2018 build 013d7b7c2542+ Fri, 06 Jul 2018 19:26:36 +0100
REM compiler GCC version 9.3.0
REM options -cpp -mtune=generic -march=x86-64 -g -O0
REM seed 1821975870 2100914888 -1206690934 -1054092511 -1614630527 -773225642 -1011346335 2009353547 1900851984 290179245 -1562944782 -1873282582 1897439304 -736307579 228864899 795408555 272143636 1766956214 889602558 -1050974321 46879358 -1868068792 -1763685912 300157631 -1907153226 491589693 1521994009 -1310282997 -407172820 -174686087 1507362664 1379135784 -1268688757
REM
CELL 1.54180   50.00000   50.00000   50.00000   90.00000   90.00000   90.00000
LATT -1
SFAC C  
C      1  0.5000290000000  0.5287930000000  0.5202910000000 1.0
C      1  0.5353380000000  0.5011000000000  0.5006990000000 1.0
C      1  0.4566480000000  0.5087440000000  0.4764620000000 1.0
C      1  0.4472140000000  0.4949900000000  0.5223930000000 1.0
C      1  0.4974200000000  0.5654240000000  0.4841220000000 1.0
C      1  0.5454550000000  0.4447170000000  0.4854130000000 1.0
C      1  0.4630580000000  0.4928620000000  0.4979960000000 1.0
C      1  0.5096230000000  0.5042230000000  0.5077780000000 1.0
C      1  0.4668410000000  0.5276120000000  0.4633050000000 1.0
C      1  0.5005480000000  0.5512620000000  0.5047210000000 1.0
C      1  0.5570020000000  0.4905580000000  0.4940530000000 1.0
C      1  0.5022920000000  0.4605910000000  0.4913680000000 1.0
C      1  0.5602600000000  0.4652170000000  0.4870340000000 1.0
C      1  0.4830600000000  0.5267600000000  0.5438600000000 1.0
C      1  0.5190080000000  0.4424750000000  0.4865760000000 1.0
C      1  0.4647060000000  0.5108700000000  0.5342260000000 1.0
C      1  0.4914990000000  0.4838040000000  0.4997020000000 1.0
END
