TITL C-57627-9920-9 446.60802876222 125000 -989.604876739784 0 0 142 (C1) n - 1
REM
REM in /rds/project/t2_vol4/rds-t2-cs072/BORA/CARBON/from-Arr/AIRSS/Generating-Clusters/GAP-ML-2020/Only-C1/SD-CG/HFTN-CG
REM
REM
REM
REM
REM
REM ./C.cell (11c1c37f851c82e70ff6c80c92926a4b)
REM AIRSS Version 0.9.1 bugfix July 2018 build 013d7b7c2542+ Fri, 06 Jul 2018 19:26:36 +0100
REM compiler GCC version 9.3.0
REM options -cpp -mtune=generic -march=x86-64 -g -O0
REM seed 1606327124 913598203 1682573815 -1334704004 1054617166 165946602 -1251975620 -1549445723 74217672 -1744117346 -1009524296 -1112929218 47385874 -88793600 -1271522690 -591511172 915125489 -510449130 421404824 -1121154253 1808679761 1262365275 -1370335114 -1088215480 422126024 -1376845592 -1184976528 1734810477 529947359 -706816983 -75469156 -1252300643 1110576206
REM
CELL 1.54180   50.00000   50.00000   50.00000   90.00000   90.00000   90.00000
LATT -1
SFAC C  
C      1  0.5043330000000  0.5126400000000  0.4085910000000 1.0
C      1  0.5627870000000  0.4463460000000  0.4934920000000 1.0
C      1  0.5193040000000  0.5887550000000  0.4644290000000 1.0
C      1  0.4067360000000  0.5303520000000  0.4714270000000 1.0
C      1  0.4499150000000  0.5138500000000  0.5865440000000 1.0
C      1  0.5627830000000  0.5559730000000  0.5095840000000 1.0
C      1  0.4774280000000  0.5249270000000  0.5429680000000 1.0
C      1  0.5174900000000  0.5199300000000  0.5223510000000 1.0
C      1  0.5724050000000  0.4697770000000  0.4264980000000 1.0
C      1  0.4359790000000  0.5098280000000  0.5601440000000 1.0
C      1  0.4887510000000  0.4063190000000  0.4705670000000 1.0
C      1  0.5135150000000  0.5619920000000  0.4256510000000 1.0
C      1  0.4515400000000  0.5348260000000  0.4871980000000 1.0
C      1  0.4572910000000  0.4267960000000  0.5647160000000 1.0
C      1  0.5696560000000  0.4468440000000  0.4432940000000 1.0
C      1  0.5031470000000  0.4172290000000  0.4479200000000 1.0
C      1  0.4634780000000  0.4874640000000  0.5188870000000 1.0
C      1  0.4336970000000  0.4457200000000  0.5002270000000 1.0
C      1  0.5329290000000  0.5051940000000  0.4055390000000 1.0
C      1  0.4477030000000  0.4488770000000  0.4468450000000 1.0
C      1  0.5453240000000  0.4826710000000  0.5232700000000 1.0
C      1  0.4533120000000  0.5127440000000  0.5329970000000 1.0
C      1  0.5036070000000  0.4071600000000  0.5413780000000 1.0
C      1  0.4500150000000  0.4608360000000  0.5228380000000 1.0
C      1  0.4987200000000  0.4417050000000  0.4337450000000 1.0
C      1  0.5636990000000  0.5523050000000  0.5378050000000 1.0
C      1  0.5873370000000  0.5071260000000  0.5258570000000 1.0
C      1  0.5754960000000  0.4924560000000  0.4450500000000 1.0
C      1  0.5019490000000  0.5819680000000  0.4432740000000 1.0
C      1  0.4190410000000  0.5803740000000  0.5285570000000 1.0
C      1  0.5797010000000  0.4532990000000  0.4686770000000 1.0
C      1  0.5278080000000  0.5862560000000  0.5380070000000 1.0
C      1  0.4407950000000  0.5471630000000  0.4430350000000 1.0
C      1  0.4135790000000  0.4763980000000  0.4639920000000 1.0
C      1  0.4818290000000  0.4691320000000  0.5679460000000 1.0
C      1  0.4824600000000  0.5975510000000  0.4961730000000 1.0
C      1  0.4216900000000  0.5886520000000  0.5042770000000 1.0
C      1  0.5617180000000  0.4826720000000  0.5621780000000 1.0
C      1  0.4368280000000  0.4211020000000  0.5197410000000 1.0
C      1  0.5162090000000  0.4992310000000  0.5642900000000 1.0
C      1  0.4115620000000  0.4636750000000  0.4899960000000 1.0
C      1  0.4349210000000  0.4606450000000  0.5501020000000 1.0
C      1  0.5038540000000  0.5329760000000  0.4849590000000 1.0
C      1  0.4385280000000  0.5331340000000  0.5172880000000 1.0
C      1  0.4046020000000  0.4957930000000  0.5312380000000 1.0
C      1  0.5369760000000  0.5188160000000  0.5773880000000 1.0
C      1  0.4659240000000  0.4789260000000  0.4128870000000 1.0
C      1  0.4729910000000  0.5840580000000  0.4484950000000 1.0
C      1  0.4920940000000  0.3995000000000  0.5167360000000 1.0
C      1  0.5288980000000  0.4208270000000  0.5423240000000 1.0
C      1  0.5307150000000  0.4153180000000  0.4545470000000 1.0
C      1  0.4666660000000  0.5707590000000  0.5380610000000 1.0
C      1  0.5063240000000  0.4567270000000  0.4981180000000 1.0
C      1  0.4793790000000  0.5939360000000  0.5241620000000 1.0
C      1  0.4850480000000  0.4934330000000  0.4003810000000 1.0
C      1  0.5011380000000  0.5936910000000  0.5439160000000 1.0
C      1  0.4313030000000  0.4706640000000  0.4429310000000 1.0
C      1  0.4796380000000  0.5415720000000  0.5900360000000 1.0
C      1  0.4530330000000  0.4408600000000  0.4769400000000 1.0
C      1  0.5105650000000  0.5975570000000  0.4900670000000 1.0
C      1  0.4343200000000  0.4293380000000  0.5469730000000 1.0
C      1  0.4992590000000  0.4563380000000  0.5253110000000 1.0
C      1  0.5532610000000  0.5324460000000  0.4941270000000 1.0
C      1  0.4188330000000  0.4862790000000  0.5532290000000 1.0
C      1  0.5451400000000  0.4336570000000  0.4384170000000 1.0
C      1  0.3986090000000  0.4849740000000  0.5054600000000 1.0
C      1  0.5496580000000  0.4725820000000  0.5883400000000 1.0
C      1  0.5965070000000  0.5132220000000  0.4982060000000 1.0
C      1  0.4655420000000  0.4133180000000  0.5117450000000 1.0
C      1  0.5397580000000  0.5090830000000  0.5089560000000 1.0
C      1  0.5417160000000  0.5639670000000  0.5524600000000 1.0
C      1  0.4654560000000  0.4157030000000  0.4831290000000 1.0
C      1  0.5062460000000  0.3977330000000  0.4913010000000 1.0
C      1  0.4772090000000  0.5125010000000  0.5939370000000 1.0
C      1  0.4785920000000  0.4613820000000  0.4807940000000 1.0
C      1  0.5003900000000  0.5066680000000  0.5411170000000 1.0
C      1  0.5043400000000  0.5126570000000  0.4406430000000 1.0
C      1  0.4706350000000  0.4541210000000  0.4292250000000 1.0
C      1  0.5317330000000  0.5398030000000  0.4730980000000 1.0
C      1  0.5331970000000  0.4056170000000  0.4822500000000 1.0
C      1  0.5413860000000  0.5535850000000  0.4255700000000 1.0
C      1  0.5751140000000  0.5261290000000  0.5439090000000 1.0
C      1  0.5429050000000  0.5717640000000  0.4687570000000 1.0
C      1  0.5525090000000  0.4183070000000  0.4988690000000 1.0
C      1  0.5240980000000  0.4562260000000  0.5923660000000 1.0
C      1  0.4948030000000  0.5422420000000  0.4186770000000 1.0
C      1  0.5024540000000  0.4471040000000  0.5704740000000 1.0
C      1  0.5387690000000  0.4956260000000  0.6005090000000 1.0
C      1  0.5482790000000  0.5251680000000  0.4221630000000 1.0
C      1  0.4941610000000  0.4907760000000  0.5860240000000 1.0
C      1  0.5596070000000  0.5620550000000  0.4473880000000 1.0
C      1  0.4804030000000  0.5310380000000  0.4437180000000 1.0
C      1  0.4631770000000  0.5891440000000  0.4757800000000 1.0
C      1  0.5259400000000  0.4534120000000  0.4273060000000 1.0
C      1  0.5340660000000  0.4770300000000  0.5507850000000 1.0
C      1  0.5517430000000  0.5779800000000  0.4961790000000 1.0
C      1  0.5392160000000  0.4752100000000  0.4066640000000 1.0
C      1  0.5204000000000  0.4495190000000  0.5469330000000 1.0
C      1  0.4305600000000  0.5504490000000  0.4703650000000 1.0
C      1  0.5529290000000  0.4158770000000  0.5279120000000 1.0
C      1  0.4381670000000  0.5585880000000  0.5375340000000 1.0
C      1  0.4745580000000  0.4403020000000  0.5285480000000 1.0
C      1  0.5317230000000  0.5918910000000  0.5098000000000 1.0
C      1  0.5449020000000  0.4946660000000  0.4580110000000 1.0
C      1  0.5358450000000  0.4656640000000  0.4981470000000 1.0
C      1  0.4868750000000  0.4807750000000  0.5365980000000 1.0
C      1  0.4364420000000  0.5789240000000  0.4819500000000 1.0
C      1  0.4877130000000  0.5760440000000  0.5615030000000 1.0
C      1  0.6089020000000  0.4942800000000  0.4819960000000 1.0
C      1  0.5005060000000  0.5569490000000  0.5782940000000 1.0
C      1  0.4551760000000  0.5680680000000  0.4342810000000 1.0
C      1  0.5766230000000  0.4293990000000  0.5360960000000 1.0
C      1  0.4793620000000  0.5423880000000  0.4732010000000 1.0
C      1  0.4831220000000  0.5483080000000  0.5290080000000 1.0
C      1  0.5279400000000  0.5482590000000  0.5733770000000 1.0
C      1  0.4717560000000  0.4899970000000  0.4892760000000 1.0
C      1  0.4008330000000  0.5128960000000  0.4933330000000 1.0
C      1  0.5621340000000  0.5119890000000  0.5643750000000 1.0
C      1  0.4501460000000  0.5083820000000  0.4734640000000 1.0
C      1  0.5773340000000  0.5406210000000  0.4547310000000 1.0
C      1  0.5018710000000  0.4873510000000  0.4534980000000 1.0
C      1  0.5146200000000  0.4800570000000  0.6055100000000 1.0
C      1  0.4850880000000  0.4238900000000  0.5579300000000 1.0
C      1  0.4532720000000  0.5179590000000  0.4431790000000 1.0
C      1  0.5051690000000  0.5423280000000  0.5121680000000 1.0
C      1  0.4511280000000  0.5432390000000  0.5838650000000 1.0
C      1  0.5745490000000  0.4794060000000  0.5332240000000 1.0
C      1  0.5324230000000  0.4920130000000  0.4849590000000 1.0
C      1  0.5322210000000  0.5210840000000  0.4487520000000 1.0
C      1  0.5019960000000  0.5003030000000  0.4807910000000 1.0
C      1  0.4180030000000  0.5044440000000  0.4692540000000 1.0
C      1  0.4557400000000  0.4554710000000  0.5703510000000 1.0
C      1  0.5932250000000  0.4791850000000  0.4652090000000 1.0
C      1  0.4106700000000  0.5213990000000  0.5187180000000 1.0
C      1  0.5747220000000  0.5204450000000  0.4355000000000 1.0
C      1  0.4864060000000  0.4636640000000  0.4528100000000 1.0
C      1  0.5795790000000  0.5325240000000  0.4829200000000 1.0
C      1  0.4340170000000  0.5414080000000  0.5613690000000 1.0
C      1  0.5781020000000  0.4522270000000  0.5217770000000 1.0
C      1  0.5652110000000  0.4683790000000  0.4001110000000 1.0
C      1  0.5270170000000  0.4753520000000  0.4463220000000 1.0
C      1  0.4458490000000  0.4921510000000  0.4286630000000 1.0
END
