TITL C-57549-5626-4 -0.0578205810136233 125000 -337.459380557265 0 0 50 (C1) n - 1
REM
REM in /rds/project/t2_vol4/rds-t2-cs072/BORA/CARBON/from-Arr/AIRSS/Generating-Clusters/GAP-ML-2020/Only-C1/SD-CG/HFTN-CG
REM
REM
REM
REM
REM
REM ./C.cell (11c1c37f851c82e70ff6c80c92926a4b)
REM AIRSS Version 0.9.1 bugfix July 2018 build 013d7b7c2542+ Fri, 06 Jul 2018 19:26:36 +0100
REM compiler GCC version 9.3.0
REM options -cpp -mtune=generic -march=x86-64 -g -O0
REM seed 1523000067 -54328247 -565424220 400573717 -842796881 1080730353 1194973849 1070143266 832315193 2044813274 773090166 -1291098589 -1414470906 1479050738 329105123 -135401881 249061787 147271048 -24798947 -1268030237 1980664314 -984160216 -1925306090 -1850511053 -1113421798 -1418747571 1779186380 465097296 1508767562 -1482816556 29892025 424979156 604851893
REM
CELL 1.54180   50.00000   50.00000   50.00000   90.00000   90.00000   90.00000
LATT -1
SFAC C  
C      1  0.5556790000000  0.5398500000000  0.4740390000000 1.0
C      1  0.4911640000000  0.5715150000000  0.5082740000000 1.0
C      1  0.4826440000000  0.5414940000000  0.4577950000000 1.0
C      1  0.5215110000000  0.4834000000000  0.5280510000000 1.0
C      1  0.5360190000000  0.5053090000000  0.5119930000000 1.0
C      1  0.4476720000000  0.5197040000000  0.4786270000000 1.0
C      1  0.4466480000000  0.5179520000000  0.5270280000000 1.0
C      1  0.5056990000000  0.4554760000000  0.4647520000000 1.0
C      1  0.4642390000000  0.5426460000000  0.4782620000000 1.0
C      1  0.4470310000000  0.4733720000000  0.5461000000000 1.0
C      1  0.4701420000000  0.5550920000000  0.5042480000000 1.0
C      1  0.5214930000000  0.4391270000000  0.5116120000000 1.0
C      1  0.5532530000000  0.5466350000000  0.5008910000000 1.0
C      1  0.4618580000000  0.5410960000000  0.5278420000000 1.0
C      1  0.4790740000000  0.4567050000000  0.5130680000000 1.0
C      1  0.5125850000000  0.5672800000000  0.5256850000000 1.0
C      1  0.4525130000000  0.4984320000000  0.4604800000000 1.0
C      1  0.5279840000000  0.4561740000000  0.5366940000000 1.0
C      1  0.4819230000000  0.5102820000000  0.5569550000000 1.0
C      1  0.5571510000000  0.4898110000000  0.4671920000000 1.0
C      1  0.5334680000000  0.4466520000000  0.4620800000000 1.0
C      1  0.5366260000000  0.5632660000000  0.5143660000000 1.0
C      1  0.4841640000000  0.4680620000000  0.4480100000000 1.0
C      1  0.4522120000000  0.4634040000000  0.5208410000000 1.0
C      1  0.4933420000000  0.4339490000000  0.5059540000000 1.0
C      1  0.4644660000000  0.4541200000000  0.4644290000000 1.0
C      1  0.4971230000000  0.4802830000000  0.5079350000000 1.0
C      1  0.4880700000000  0.5064930000000  0.5046920000000 1.0
C      1  0.4811390000000  0.5372640000000  0.5484930000000 1.0
C      1  0.5230240000000  0.4747870000000  0.5565530000000 1.0
C      1  0.4765760000000  0.4958110000000  0.4462240000000 1.0
C      1  0.5297050000000  0.4859160000000  0.4331290000000 1.0
C      1  0.5395600000000  0.4892820000000  0.4890070000000 1.0
C      1  0.4382330000000  0.5075070000000  0.5024090000000 1.0
C      1  0.5551050000000  0.5249270000000  0.5217670000000 1.0
C      1  0.4457340000000  0.4732960000000  0.4724950000000 1.0
C      1  0.5506620000000  0.5306430000000  0.5483790000000 1.0
C      1  0.5097870000000  0.5019230000000  0.5593450000000 1.0
C      1  0.5472710000000  0.5171700000000  0.4611800000000 1.0
C      1  0.5382020000000  0.4398770000000  0.4896370000000 1.0
C      1  0.5140190000000  0.4768570000000  0.4849390000000 1.0
C      1  0.5246190000000  0.5278760000000  0.5561780000000 1.0
C      1  0.4944360000000  0.5193230000000  0.4465100000000 1.0
C      1  0.5227510000000  0.5106730000000  0.4439950000000 1.0
C      1  0.5456760000000  0.4704130000000  0.4494830000000 1.0
C      1  0.5064310000000  0.5487210000000  0.5478960000000 1.0
C      1  0.4574070000000  0.4986410000000  0.5465050000000 1.0
C      1  0.4844090000000  0.4402520000000  0.4797690000000 1.0
C      1  0.4394650000000  0.4790710000000  0.4993860000000 1.0
C      1  0.5100330000000  0.5221870000000  0.5088220000000 1.0
END
