TITL C-57540-5778-6 -0.0561025402921643 125000 -255.102753337418 0 0 39 (C1) n - 1
REM
REM in /rds/project/t2_vol4/rds-t2-cs072/BORA/CARBON/from-Arr/AIRSS/Generating-Clusters/GAP-ML-2020/Only-C1/SD-CG/HFTN-CG
REM
REM
REM
REM
REM
REM ./C.cell (11c1c37f851c82e70ff6c80c92926a4b)
REM AIRSS Version 0.9.1 bugfix July 2018 build 013d7b7c2542+ Fri, 06 Jul 2018 19:26:36 +0100
REM compiler GCC version 9.3.0
REM options -cpp -mtune=generic -march=x86-64 -g -O0
REM seed 828351211 -342156690 -1227932692 -86214399 -2038334871 1571065571 -1568546030 -1443783340 -1252468183 -514992916 -557136565 -1987397808 -948388936 912618409 -2139238567 -299251908 -369723616 -756177317 1612752165 1108499383 -389038507 8786302 431414143 -1834407960 -511129328 886731125 698674812 -1230166446 2062583201 1266525854 -1202888638 1417807296 -1334574588
REM
CELL 1.54180   50.00000   50.00000   50.00000   90.00000   90.00000   90.00000
LATT -1
SFAC C  
C      1  0.4675210000000  0.4715640000000  0.5104560000000 1.0
C      1  0.5520290000000  0.4801160000000  0.4767640000000 1.0
C      1  0.4918640000000  0.5279500000000  0.5376550000000 1.0
C      1  0.5631060000000  0.4878910000000  0.5151590000000 1.0
C      1  0.5236820000000  0.4711750000000  0.4828920000000 1.0
C      1  0.5046260000000  0.4572610000000  0.5312570000000 1.0
C      1  0.5509590000000  0.5015830000000  0.4603040000000 1.0
C      1  0.4361800000000  0.5274420000000  0.4957720000000 1.0
C      1  0.4935080000000  0.4293620000000  0.4957570000000 1.0
C      1  0.4845200000000  0.5375260000000  0.4861630000000 1.0
C      1  0.4878490000000  0.4634930000000  0.4596370000000 1.0
C      1  0.4920680000000  0.4738140000000  0.5505260000000 1.0
C      1  0.4649280000000  0.5153910000000  0.5389560000000 1.0
C      1  0.5313410000000  0.5009050000000  0.5520070000000 1.0
C      1  0.4404380000000  0.5038850000000  0.4825650000000 1.0
C      1  0.5269740000000  0.5203090000000  0.5076840000000 1.0
C      1  0.5162290000000  0.4779090000000  0.5120830000000 1.0
C      1  0.5086460000000  0.4825940000000  0.4569240000000 1.0
C      1  0.5086190000000  0.4898620000000  0.5664200000000 1.0
C      1  0.5085140000000  0.5167430000000  0.5567260000000 1.0
C      1  0.4588700000000  0.5034000000000  0.4596630000000 1.0
C      1  0.5055740000000  0.5093450000000  0.4515700000000 1.0
C      1  0.4814140000000  0.5201490000000  0.4622420000000 1.0
C      1  0.4914490000000  0.4928140000000  0.5094380000000 1.0
C      1  0.5167750000000  0.5638340000000  0.5052730000000 1.0
C      1  0.5368080000000  0.4977700000000  0.5235510000000 1.0
C      1  0.4986880000000  0.5210200000000  0.5091190000000 1.0
C      1  0.4586820000000  0.5444190000000  0.4988590000000 1.0
C      1  0.5736710000000  0.4765250000000  0.4955970000000 1.0
C      1  0.4496160000000  0.5293730000000  0.5211470000000 1.0
C      1  0.4725850000000  0.4874740000000  0.5346320000000 1.0
C      1  0.5051500000000  0.5581420000000  0.4807060000000 1.0
C      1  0.5291220000000  0.5437780000000  0.4719090000000 1.0
C      1  0.5381210000000  0.5456430000000  0.4994730000000 1.0
C      1  0.5027160000000  0.4485740000000  0.4794370000000 1.0
C      1  0.4491200000000  0.4773640000000  0.4890470000000 1.0
C      1  0.4838260000000  0.4476560000000  0.5131630000000 1.0
C      1  0.5311290000000  0.5211010000000  0.4565750000000 1.0
C      1  0.4630850000000  0.4748450000000  0.4628910000000 1.0
END
