TITL C-57626-9897-5 347.253812975175 125000 -1035.52409881849 0 0 149 (C1) n - 1
REM
REM in /rds/project/t2_vol4/rds-t2-cs072/BORA/CARBON/from-Arr/AIRSS/Generating-Clusters/GAP-ML-2020/Only-C1/SD-CG/HFTN-CG
REM
REM
REM
REM
REM
REM ./C.cell (11c1c37f851c82e70ff6c80c92926a4b)
REM AIRSS Version 0.9.1 bugfix July 2018 build 013d7b7c2542+ Fri, 06 Jul 2018 19:26:36 +0100
REM compiler GCC version 9.3.0
REM options -cpp -mtune=generic -march=x86-64 -g -O0
REM seed 577180997 -1574925851 -1651026741 1399008175 2107581221 -1042472799 -2051603890 -412861737 538270141 1462396510 -514735529 2063673525 1398355149 -741879725 730507936 -107081930 1832836057 -2118520802 897728746 873347778 1533536863 822148126 -299334584 -1092003857 1958697880 -1675889948 528984229 -1644498459 490438281 -363227405 1876921492 629699441 -470894435
REM
CELL 1.54180   50.00000   50.00000   50.00000   90.00000   90.00000   90.00000
LATT -1
SFAC C  
C      1  0.4905830000000  0.4908140000000  0.4509700000000 1.0
C      1  0.4915390000000  0.5151910000000  0.4306990000000 1.0
C      1  0.4609320000000  0.5317610000000  0.5164840000000 1.0
C      1  0.4585670000000  0.4312640000000  0.4330690000000 1.0
C      1  0.4989290000000  0.4643160000000  0.4920590000000 1.0
C      1  0.4922040000000  0.5206560000000  0.5479910000000 1.0
C      1  0.4213440000000  0.5153850000000  0.5538030000000 1.0
C      1  0.4391290000000  0.5495850000000  0.4363850000000 1.0
C      1  0.5323100000000  0.4797420000000  0.4102410000000 1.0
C      1  0.4711500000000  0.4529750000000  0.5029970000000 1.0
C      1  0.5854560000000  0.4648820000000  0.4738950000000 1.0
C      1  0.5477940000000  0.5342850000000  0.5834020000000 1.0
C      1  0.5562700000000  0.4885200000000  0.5038760000000 1.0
C      1  0.4478530000000  0.5044400000000  0.4667990000000 1.0
C      1  0.4410060000000  0.5552650000000  0.4697120000000 1.0
C      1  0.5115840000000  0.4745710000000  0.5600530000000 1.0
C      1  0.5833270000000  0.5568430000000  0.5123660000000 1.0
C      1  0.5970680000000  0.5082040000000  0.4807940000000 1.0
C      1  0.5325650000000  0.4263970000000  0.5491480000000 1.0
C      1  0.5783710000000  0.4685840000000  0.5683960000000 1.0
C      1  0.5660580000000  0.5499330000000  0.4888730000000 1.0
C      1  0.4198240000000  0.4619940000000  0.4444760000000 1.0
C      1  0.4316780000000  0.4696280000000  0.5670000000000 1.0
C      1  0.4479370000000  0.4162460000000  0.5190110000000 1.0
C      1  0.5245540000000  0.5890310000000  0.4454790000000 1.0
C      1  0.5344350000000  0.5398810000000  0.5353850000000 1.0
C      1  0.4016880000000  0.5240260000000  0.4834970000000 1.0
C      1  0.5928790000000  0.4879800000000  0.4589550000000 1.0
C      1  0.4837350000000  0.5585190000000  0.5802710000000 1.0
C      1  0.5771490000000  0.4988760000000  0.5717250000000 1.0
C      1  0.4865930000000  0.6021830000000  0.4599090000000 1.0
C      1  0.5755140000000  0.5264480000000  0.4716570000000 1.0
C      1  0.4131250000000  0.4692850000000  0.4715740000000 1.0
C      1  0.5542890000000  0.5517820000000  0.4420970000000 1.0
C      1  0.4837380000000  0.4159870000000  0.4731540000000 1.0
C      1  0.5394260000000  0.4753900000000  0.5227180000000 1.0
C      1  0.5100040000000  0.5443260000000  0.4640840000000 1.0
C      1  0.4914420000000  0.4750580000000  0.5402340000000 1.0
C      1  0.5328850000000  0.5316280000000  0.4488970000000 1.0
C      1  0.4679870000000  0.4088650000000  0.5384910000000 1.0
C      1  0.5553280000000  0.4478390000000  0.4357060000000 1.0
C      1  0.4777350000000  0.5442540000000  0.5384480000000 1.0
C      1  0.4079900000000  0.5063810000000  0.4329890000000 1.0
C      1  0.5327660000000  0.4223120000000  0.4717490000000 1.0
C      1  0.4205470000000  0.5448460000000  0.4878930000000 1.0
C      1  0.4904150000000  0.3970620000000  0.5287150000000 1.0
C      1  0.4925820000000  0.5003490000000  0.3931000000000 1.0
C      1  0.4657550000000  0.4998100000000  0.5173740000000 1.0
C      1  0.5766840000000  0.4976850000000  0.4376510000000 1.0
C      1  0.4622400000000  0.4671290000000  0.4024310000000 1.0
C      1  0.4399940000000  0.4449500000000  0.5550870000000 1.0
C      1  0.5605670000000  0.5412130000000  0.5540590000000 1.0
C      1  0.4965260000000  0.5102850000000  0.4717090000000 1.0
C      1  0.4310800000000  0.5405110000000  0.5139530000000 1.0
C      1  0.4171330000000  0.5329340000000  0.4353710000000 1.0
C      1  0.5553320000000  0.4595360000000  0.5836410000000 1.0
C      1  0.4000830000000  0.5202540000000  0.4560740000000 1.0
C      1  0.5947320000000  0.4644360000000  0.5021740000000 1.0
C      1  0.5678680000000  0.5655250000000  0.5348250000000 1.0
C      1  0.5210160000000  0.5685230000000  0.5437500000000 1.0
C      1  0.4316570000000  0.4891980000000  0.4861170000000 1.0
C      1  0.4078650000000  0.5024740000000  0.5067380000000 1.0
C      1  0.4839840000000  0.4271740000000  0.4466950000000 1.0
C      1  0.4341100000000  0.4308280000000  0.4757540000000 1.0
C      1  0.5889480000000  0.4536210000000  0.5477330000000 1.0
C      1  0.5438770000000  0.5816890000000  0.5270760000000 1.0
C      1  0.4892320000000  0.4729330000000  0.3958910000000 1.0
C      1  0.5103860000000  0.4515780000000  0.5824060000000 1.0
C      1  0.5736130000000  0.5276310000000  0.4428560000000 1.0
C      1  0.4618270000000  0.4868610000000  0.4487610000000 1.0
C      1  0.5108580000000  0.4349340000000  0.5285210000000 1.0
C      1  0.4705130000000  0.4679640000000  0.5949620000000 1.0
C      1  0.4618030000000  0.5319300000000  0.4709770000000 1.0
C      1  0.5098280000000  0.4104780000000  0.4841820000000 1.0
C      1  0.5857570000000  0.4449410000000  0.5209580000000 1.0
C      1  0.5532600000000  0.4766300000000  0.4312590000000 1.0
C      1  0.4225310000000  0.4835990000000  0.4259560000000 1.0
C      1  0.5567300000000  0.4665100000000  0.4799900000000 1.0
C      1  0.4953120000000  0.5901720000000  0.4372920000000 1.0
C      1  0.4594370000000  0.5530070000000  0.5625350000000 1.0
C      1  0.5174910000000  0.5262940000000  0.4212960000000 1.0
C      1  0.5226740000000  0.5468860000000  0.5905850000000 1.0
C      1  0.5231640000000  0.4535550000000  0.5085960000000 1.0
C      1  0.4735330000000  0.5456140000000  0.4952870000000 1.0
C      1  0.5289360000000  0.4895940000000  0.5441300000000 1.0
C      1  0.4819820000000  0.5915200000000  0.4846640000000 1.0
C      1  0.6052210000000  0.5381670000000  0.5132990000000 1.0
C      1  0.5109660000000  0.4604300000000  0.4114280000000 1.0
C      1  0.4411360000000  0.5286520000000  0.5709400000000 1.0
C      1  0.5152230000000  0.4747560000000  0.6006320000000 1.0
C      1  0.5374040000000  0.5108160000000  0.4951010000000 1.0
C      1  0.4951900000000  0.5724020000000  0.5304590000000 1.0
C      1  0.5095420000000  0.5058610000000  0.4956180000000 1.0
C      1  0.5450240000000  0.5103840000000  0.4668000000000 1.0
C      1  0.5446950000000  0.4116160000000  0.5278490000000 1.0
C      1  0.4814610000000  0.4450570000000  0.5816590000000 1.0
C      1  0.4698050000000  0.5162240000000  0.4107300000000 1.0
C      1  0.4624280000000  0.5470880000000  0.4176550000000 1.0
C      1  0.4061420000000  0.4786120000000  0.5252430000000 1.0
C      1  0.4135810000000  0.4467590000000  0.4883630000000 1.0
C      1  0.4353600000000  0.4381780000000  0.4485450000000 1.0
C      1  0.5399210000000  0.5882220000000  0.4718120000000 1.0
C      1  0.4729330000000  0.5909620000000  0.5376430000000 1.0
C      1  0.5204420000000  0.5044320000000  0.4009200000000 1.0
C      1  0.5397960000000  0.4799370000000  0.4595770000000 1.0
C      1  0.5629380000000  0.4271340000000  0.5123100000000 1.0
C      1  0.5075910000000  0.4448900000000  0.4385770000000 1.0
C      1  0.5943700000000  0.5153600000000  0.5277920000000 1.0
C      1  0.5459260000000  0.4403850000000  0.4912590000000 1.0
C      1  0.5357720000000  0.4387030000000  0.5747160000000 1.0
C      1  0.5088380000000  0.4699600000000  0.4610840000000 1.0
C      1  0.5046450000000  0.5796410000000  0.5018380000000 1.0
C      1  0.5372700000000  0.5389900000000  0.5048750000000 1.0
C      1  0.4475400000000  0.4821940000000  0.5871070000000 1.0
C      1  0.4748080000000  0.4978950000000  0.5449900000000 1.0
C      1  0.4568240000000  0.4412470000000  0.4075950000000 1.0
C      1  0.4145430000000  0.5225080000000  0.5273850000000 1.0
C      1  0.4867430000000  0.5659880000000  0.4192680000000 1.0
C      1  0.4675490000000  0.4349880000000  0.5569490000000 1.0
C      1  0.5129370000000  0.5549000000000  0.4146700000000 1.0
C      1  0.5810440000000  0.5194440000000  0.5523530000000 1.0
C      1  0.6175190000000  0.5277220000000  0.4904390000000 1.0
C      1  0.4941620000000  0.4882280000000  0.5092500000000 1.0
C      1  0.4592530000000  0.5740410000000  0.4922800000000 1.0
C      1  0.5190940000000  0.5162330000000  0.5427480000000 1.0
C      1  0.5567250000000  0.5070360000000  0.5900340000000 1.0
C      1  0.4516880000000  0.4778250000000  0.5050800000000 1.0
C      1  0.5131980000000  0.4073170000000  0.5142510000000 1.0
C      1  0.5341100000000  0.4328350000000  0.4451380000000 1.0
C      1  0.4897640000000  0.4870190000000  0.6049600000000 1.0
C      1  0.5113580000000  0.5661340000000  0.5717870000000 1.0
C      1  0.5080820000000  0.5505820000000  0.4923960000000 1.0
C      1  0.5323820000000  0.5896790000000  0.5015340000000 1.0
C      1  0.4943630000000  0.5385260000000  0.5983510000000 1.0
C      1  0.5344550000000  0.5691990000000  0.4272370000000 1.0
C      1  0.4833570000000  0.4479830000000  0.5327170000000 1.0
C      1  0.4512070000000  0.4896030000000  0.4182580000000 1.0
C      1  0.4588730000000  0.4256840000000  0.4911330000000 1.0
C      1  0.5432360000000  0.4818300000000  0.5976490000000 1.0
C      1  0.4156790000000  0.4870270000000  0.5514260000000 1.0
C      1  0.4529490000000  0.5108670000000  0.5899120000000 1.0
C      1  0.4864380000000  0.5321170000000  0.4556880000000 1.0
C      1  0.4517710000000  0.5847960000000  0.5200510000000 1.0
C      1  0.5874020000000  0.4940960000000  0.5074730000000 1.0
C      1  0.4791870000000  0.5140600000000  0.6026480000000 1.0
C      1  0.4506900000000  0.5783840000000  0.5483430000000 1.0
C      1  0.5583860000000  0.5678180000000  0.4668730000000 1.0
C      1  0.4294160000000  0.4350130000000  0.5308670000000 1.0
C      1  0.4110430000000  0.4513720000000  0.5158980000000 1.0
END
