TITL C-57613-9888-5 -1454.52260608498 125000 -909.134253562276 0 0 130 (C1) n - 1
REM
REM in /rds/project/t2_vol4/rds-t2-cs072/BORA/CARBON/from-Arr/AIRSS/Generating-Clusters/GAP-ML-2020/Only-C1/SD-CG/HFTN-CG
REM
REM
REM
REM
REM
REM ./C.cell (11c1c37f851c82e70ff6c80c92926a4b)
REM AIRSS Version 0.9.1 bugfix July 2018 build 013d7b7c2542+ Fri, 06 Jul 2018 19:26:36 +0100
REM compiler GCC version 9.3.0
REM options -cpp -mtune=generic -march=x86-64 -g -O0
REM seed 1818792502 980355212 924722702 344359734 -206837496 406582770 -300105727 -1536524570 -1596110489 -1807131586 219592121 -386487831 1274701065 -1800928355 1628600437 -1095077681 -1453306609 -1221318567 -136099903 941918405 -1903752018 1329436323 1504690084 -465021543 -1561023187 1030914542 -893893715 627558827 -579717623 784191677 326813728 261304000 -301621537
REM
CELL 1.54180   50.00000   50.00000   50.00000   90.00000   90.00000   90.00000
LATT -1
SFAC C  
C      1  0.4356680000000  0.4456590000000  0.4431190000000 1.0
C      1  0.4388580000000  0.5133450000000  0.4301630000000 1.0
C      1  0.4856520000000  0.4867720000000  0.6014770000000 1.0
C      1  0.4957260000000  0.4086850000000  0.5026280000000 1.0
C      1  0.4991230000000  0.4747940000000  0.4097280000000 1.0
C      1  0.4540870000000  0.4599310000000  0.4251970000000 1.0
C      1  0.5697830000000  0.5756310000000  0.5069590000000 1.0
C      1  0.4333520000000  0.4315970000000  0.4678250000000 1.0
C      1  0.4572150000000  0.4148860000000  0.5311420000000 1.0
C      1  0.5514350000000  0.5913340000000  0.4919110000000 1.0
C      1  0.5165770000000  0.5156090000000  0.4673990000000 1.0
C      1  0.4631010000000  0.4979150000000  0.4847050000000 1.0
C      1  0.5877900000000  0.5346990000000  0.5164330000000 1.0
C      1  0.5293800000000  0.5249370000000  0.5610760000000 1.0
C      1  0.5370160000000  0.5050030000000  0.4871640000000 1.0
C      1  0.4577690000000  0.5560630000000  0.4350470000000 1.0
C      1  0.5475590000000  0.5177060000000  0.5374710000000 1.0
C      1  0.4776060000000  0.4096720000000  0.5513120000000 1.0
C      1  0.4623740000000  0.4687010000000  0.4967390000000 1.0
C      1  0.4714000000000  0.5376180000000  0.5426310000000 1.0
C      1  0.4979710000000  0.5153550000000  0.5097490000000 1.0
C      1  0.5456680000000  0.4207340000000  0.5179530000000 1.0
C      1  0.5092470000000  0.4934050000000  0.4500920000000 1.0
C      1  0.5328740000000  0.5118080000000  0.4081680000000 1.0
C      1  0.5041910000000  0.4697520000000  0.5883010000000 1.0
C      1  0.5186470000000  0.5447870000000  0.4744200000000 1.0
C      1  0.5122400000000  0.5315700000000  0.4089330000000 1.0
C      1  0.4666540000000  0.4093390000000  0.5035020000000 1.0
C      1  0.4369170000000  0.4846610000000  0.4282800000000 1.0
C      1  0.5583710000000  0.4447140000000  0.5289500000000 1.0
C      1  0.5699170000000  0.4783350000000  0.5596990000000 1.0
C      1  0.5269620000000  0.4297240000000  0.4704310000000 1.0
C      1  0.5491850000000  0.5497160000000  0.4301090000000 1.0
C      1  0.4088420000000  0.4736130000000  0.4713200000000 1.0
C      1  0.5610010000000  0.5611830000000  0.4533770000000 1.0
C      1  0.4314020000000  0.4828090000000  0.5526930000000 1.0
C      1  0.5295640000000  0.5207340000000  0.5112620000000 1.0
C      1  0.4299710000000  0.5636320000000  0.4805650000000 1.0
C      1  0.4759990000000  0.5690530000000  0.5059820000000 1.0
C      1  0.4925710000000  0.4326890000000  0.4358320000000 1.0
C      1  0.5615920000000  0.5674890000000  0.5331500000000 1.0
C      1  0.5097390000000  0.4426100000000  0.5796740000000 1.0
C      1  0.5368960000000  0.5747980000000  0.5440310000000 1.0
C      1  0.4852820000000  0.4336720000000  0.5654860000000 1.0
C      1  0.5685490000000  0.4924170000000  0.5836650000000 1.0
C      1  0.5840710000000  0.5164830000000  0.4637290000000 1.0
C      1  0.5727240000000  0.5070850000000  0.4389550000000 1.0
C      1  0.4924140000000  0.5039790000000  0.4825930000000 1.0
C      1  0.5643960000000  0.4691050000000  0.5126870000000 1.0
C      1  0.5848010000000  0.4687010000000  0.4897110000000 1.0
C      1  0.5167530000000  0.4778090000000  0.5368140000000 1.0
C      1  0.5752080000000  0.4450880000000  0.4735240000000 1.0
C      1  0.5268270000000  0.4838170000000  0.4058930000000 1.0
C      1  0.4052290000000  0.5248200000000  0.4707170000000 1.0
C      1  0.5312590000000  0.5459690000000  0.4988290000000 1.0
C      1  0.5474240000000  0.4687580000000  0.4186860000000 1.0
C      1  0.5365450000000  0.4392100000000  0.5714120000000 1.0
C      1  0.5797600000000  0.5446240000000  0.4689820000000 1.0
C      1  0.4684080000000  0.4554030000000  0.5504970000000 1.0
C      1  0.4888200000000  0.5595540000000  0.5528470000000 1.0
C      1  0.4740200000000  0.5351340000000  0.5126770000000 1.0
C      1  0.5226100000000  0.5553600000000  0.4209620000000 1.0
C      1  0.5597940000000  0.4051200000000  0.4994840000000 1.0
C      1  0.5445380000000  0.5804850000000  0.4667480000000 1.0
C      1  0.5186780000000  0.5899750000000  0.5274730000000 1.0
C      1  0.4359640000000  0.5544690000000  0.4533970000000 1.0
C      1  0.4095030000000  0.5446730000000  0.5178210000000 1.0
C      1  0.4216690000000  0.5095670000000  0.5538050000000 1.0
C      1  0.5561440000000  0.4242090000000  0.4796450000000 1.0
C      1  0.5150040000000  0.4215750000000  0.5222400000000 1.0
C      1  0.5032750000000  0.4089130000000  0.5448880000000 1.0
C      1  0.5692030000000  0.4922670000000  0.5321120000000 1.0
C      1  0.4520630000000  0.5169460000000  0.5010650000000 1.0
C      1  0.4809310000000  0.4651660000000  0.5212290000000 1.0
C      1  0.5033270000000  0.5577460000000  0.5782200000000 1.0
C      1  0.4312680000000  0.5599120000000  0.5276850000000 1.0
C      1  0.4866080000000  0.5212430000000  0.4147940000000 1.0
C      1  0.4106870000000  0.5188390000000  0.5291780000000 1.0
C      1  0.5094550000000  0.4540070000000  0.5176060000000 1.0
C      1  0.5021060000000  0.5098770000000  0.5660790000000 1.0
C      1  0.4457120000000  0.5703840000000  0.5047960000000 1.0
C      1  0.4380190000000  0.5279450000000  0.5691310000000 1.0
C      1  0.5885690000000  0.5072090000000  0.5129880000000 1.0
C      1  0.5312120000000  0.6026380000000  0.5070150000000 1.0
C      1  0.4225140000000  0.5297830000000  0.4480480000000 1.0
C      1  0.5692430000000  0.5406820000000  0.5369810000000 1.0
C      1  0.5075480000000  0.5365510000000  0.5982500000000 1.0
C      1  0.4912410000000  0.4960310000000  0.4268070000000 1.0
C      1  0.4592170000000  0.4894410000000  0.5915970000000 1.0
C      1  0.5435210000000  0.4765200000000  0.4882460000000 1.0
C      1  0.4085170000000  0.5471160000000  0.4891360000000 1.0
C      1  0.4230820000000  0.5070550000000  0.5063610000000 1.0
C      1  0.5031540000000  0.4140940000000  0.4767130000000 1.0
C      1  0.4774330000000  0.5760170000000  0.4373500000000 1.0
C      1  0.5840500000000  0.5537840000000  0.4954250000000 1.0
C      1  0.4336920000000  0.4577680000000  0.5081230000000 1.0
C      1  0.5136700000000  0.4831850000000  0.5654190000000 1.0
C      1  0.4869000000000  0.5814420000000  0.4794660000000 1.0
C      1  0.4808540000000  0.4253190000000  0.4621400000000 1.0
C      1  0.5558240000000  0.5230700000000  0.4221990000000 1.0
C      1  0.5344670000000  0.5231450000000  0.5916920000000 1.0
C      1  0.4920380000000  0.5775190000000  0.5300250000000 1.0
C      1  0.5657360000000  0.4800560000000  0.4374010000000 1.0
C      1  0.5209390000000  0.4327350000000  0.4412480000000 1.0
C      1  0.4563440000000  0.4165480000000  0.4769920000000 1.0
C      1  0.4613310000000  0.5305680000000  0.4226950000000 1.0
C      1  0.5244270000000  0.5549940000000  0.5601040000000 1.0
C      1  0.5136650000000  0.5727610000000  0.4642030000000 1.0
C      1  0.5904620000000  0.4970560000000  0.4861870000000 1.0
C      1  0.5200150000000  0.4588210000000  0.4880650000000 1.0
C      1  0.4454320000000  0.4395440000000  0.5400540000000 1.0
C      1  0.4585010000000  0.4820720000000  0.5628760000000 1.0
C      1  0.4263500000000  0.4600780000000  0.5353940000000 1.0
C      1  0.4918030000000  0.4935480000000  0.5281680000000 1.0
C      1  0.5615070000000  0.4658790000000  0.4617280000000 1.0
C      1  0.4776400000000  0.5066980000000  0.5498140000000 1.0
C      1  0.4187810000000  0.4697990000000  0.4450420000000 1.0
C      1  0.5055930000000  0.5717620000000  0.4364990000000 1.0
C      1  0.4701450000000  0.5919380000000  0.4603550000000 1.0
C      1  0.5563940000000  0.4512240000000  0.5566990000000 1.0
C      1  0.4185170000000  0.4502730000000  0.4855050000000 1.0
C      1  0.4455060000000  0.5488020000000  0.5503370000000 1.0
C      1  0.4817020000000  0.4535100000000  0.4186160000000 1.0
C      1  0.4760210000000  0.4585500000000  0.4725190000000 1.0
C      1  0.5397500000000  0.4441340000000  0.4268550000000 1.0
C      1  0.5566750000000  0.5094170000000  0.5999320000000 1.0
C      1  0.4065000000000  0.4994540000000  0.4831390000000 1.0
C      1  0.4886170000000  0.5159010000000  0.5931330000000 1.0
C      1  0.5004830000000  0.4740880000000  0.4711800000000 1.0
C      1  0.4574740000000  0.5180440000000  0.5886150000000 1.0
END
