TITL C-57534-5569-6 -0.118220447118511 125000 -607.669398509502 0 0 86 (C1) n - 1
REM
REM in /rds/project/t2_vol4/rds-t2-cs072/BORA/CARBON/from-Arr/AIRSS/Generating-Clusters/GAP-ML-2020/Only-C1/SD-CG/HFTN-CG
REM
REM
REM
REM
REM
REM ./C.cell (11c1c37f851c82e70ff6c80c92926a4b)
REM AIRSS Version 0.9.1 bugfix July 2018 build 013d7b7c2542+ Fri, 06 Jul 2018 19:26:36 +0100
REM compiler GCC version 9.3.0
REM options -cpp -mtune=generic -march=x86-64 -g -O0
REM seed 1321838697 547862263 -133684791 1579642552 773853631 -1863536342 489046993 1374760865 -1415747720 1879885285 -307181300 -890535695 414776188 423735741 1952440708 474719775 1081158571 -1798774094 177845263 1773235987 353736692 1322589598 2128291231 2053341729 1985485275 -2056305507 827132045 1558515107 -66152363 1598108354 1062820900 1701481638 -2072217972
REM
CELL 1.54180   50.00000   50.00000   50.00000   90.00000   90.00000   90.00000
LATT -1
SFAC C  
C      1  0.4415370000000  0.4617880000000  0.5334940000000 1.0
C      1  0.5276560000000  0.4912780000000  0.5092870000000 1.0
C      1  0.5207710000000  0.5594490000000  0.5399670000000 1.0
C      1  0.5077000000000  0.5210760000000  0.5633350000000 1.0
C      1  0.5538970000000  0.4660530000000  0.4574470000000 1.0
C      1  0.5464880000000  0.5557580000000  0.4799210000000 1.0
C      1  0.4653610000000  0.4899580000000  0.5051680000000 1.0
C      1  0.5297350000000  0.5036580000000  0.5674120000000 1.0
C      1  0.4935970000000  0.5243260000000  0.5169300000000 1.0
C      1  0.5082600000000  0.4471010000000  0.4367570000000 1.0
C      1  0.5596950000000  0.5117360000000  0.4557770000000 1.0
C      1  0.5269060000000  0.4512550000000  0.5575600000000 1.0
C      1  0.4352150000000  0.5319270000000  0.4479680000000 1.0
C      1  0.5047490000000  0.5779430000000  0.4913960000000 1.0
C      1  0.5129040000000  0.5633710000000  0.4480850000000 1.0
C      1  0.5136300000000  0.4198860000000  0.5241700000000 1.0
C      1  0.5708740000000  0.4572060000000  0.4993790000000 1.0
C      1  0.4435640000000  0.5570730000000  0.5173670000000 1.0
C      1  0.5652490000000  0.4670870000000  0.5255110000000 1.0
C      1  0.5664650000000  0.5567890000000  0.5243610000000 1.0
C      1  0.5676510000000  0.5153000000000  0.5040380000000 1.0
C      1  0.5425240000000  0.4407530000000  0.4665150000000 1.0
C      1  0.4168430000000  0.5102460000000  0.4503770000000 1.0
C      1  0.4597320000000  0.4395440000000  0.5293310000000 1.0
C      1  0.4953760000000  0.4164150000000  0.5031380000000 1.0
C      1  0.5027480000000  0.4644580000000  0.4925000000000 1.0
C      1  0.4540660000000  0.4927550000000  0.4287440000000 1.0
C      1  0.5990560000000  0.5284290000000  0.5431060000000 1.0
C      1  0.4962350000000  0.4216690000000  0.4742690000000 1.0
C      1  0.5502150000000  0.5380360000000  0.4553730000000 1.0
C      1  0.5160840000000  0.5148070000000  0.4991660000000 1.0
C      1  0.5076430000000  0.4740590000000  0.5175590000000 1.0
C      1  0.5547160000000  0.4949270000000  0.5235200000000 1.0
C      1  0.4739230000000  0.5168210000000  0.4969120000000 1.0
C      1  0.4517650000000  0.5640030000000  0.4888760000000 1.0
C      1  0.4820000000000  0.4792220000000  0.4807900000000 1.0
C      1  0.4711590000000  0.4623020000000  0.5690270000000 1.0
C      1  0.4172600000000  0.5315940000000  0.4902370000000 1.0
C      1  0.5804980000000  0.5151120000000  0.5551330000000 1.0
C      1  0.5226720000000  0.5752140000000  0.5151130000000 1.0
C      1  0.4780740000000  0.5711780000000  0.4783330000000 1.0
C      1  0.4928330000000  0.4747060000000  0.5792000000000 1.0
C      1  0.4650300000000  0.5208350000000  0.5579090000000 1.0
C      1  0.4828310000000  0.5346960000000  0.4333450000000 1.0
C      1  0.4262090000000  0.5331350000000  0.5166330000000 1.0
C      1  0.4951620000000  0.5079090000000  0.4785580000000 1.0
C      1  0.4722180000000  0.4715690000000  0.4346220000000 1.0
C      1  0.4427650000000  0.5036690000000  0.5549250000000 1.0
C      1  0.4336680000000  0.4694960000000  0.4633320000000 1.0
C      1  0.4720140000000  0.5491610000000  0.5576490000000 1.0
C      1  0.5743650000000  0.5025490000000  0.4786200000000 1.0
C      1  0.4843720000000  0.4860680000000  0.5284290000000 1.0
C      1  0.4686360000000  0.4282870000000  0.5047160000000 1.0
C      1  0.4576360000000  0.5222000000000  0.4312320000000 1.0
C      1  0.4206120000000  0.4819330000000  0.4868090000000 1.0
C      1  0.5168930000000  0.4310530000000  0.4567120000000 1.0
C      1  0.5481510000000  0.4478220000000  0.5383240000000 1.0
C      1  0.4286410000000  0.5080900000000  0.5304150000000 1.0
C      1  0.5516280000000  0.5121820000000  0.5485070000000 1.0
C      1  0.5194820000000  0.4760220000000  0.5718470000000 1.0
C      1  0.5412450000000  0.5315180000000  0.5015650000000 1.0
C      1  0.4622430000000  0.4591890000000  0.4612410000000 1.0
C      1  0.5017980000000  0.5494760000000  0.5584850000000 1.0
C      1  0.4699610000000  0.4339590000000  0.4754620000000 1.0
C      1  0.4098520000000  0.5070750000000  0.4779300000000 1.0
C      1  0.5239080000000  0.5719590000000  0.4715400000000 1.0
C      1  0.4543320000000  0.5623170000000  0.5419670000000 1.0
C      1  0.5847120000000  0.5354460000000  0.5202880000000 1.0
C      1  0.5279560000000  0.5415610000000  0.4383890000000 1.0
C      1  0.4477170000000  0.4753380000000  0.5577750000000 1.0
C      1  0.5053870000000  0.4331890000000  0.5483860000000 1.0
C      1  0.5525550000000  0.4358640000000  0.4931470000000 1.0
C      1  0.5007650000000  0.4718170000000  0.4295090000000 1.0
C      1  0.4288110000000  0.4863580000000  0.4411400000000 1.0
C      1  0.4779940000000  0.4396100000000  0.5518900000000 1.0
C      1  0.4344930000000  0.4832950000000  0.5129250000000 1.0
C      1  0.5727850000000  0.4744300000000  0.4772230000000 1.0
C      1  0.5433090000000  0.5400810000000  0.5333950000000 1.0
C      1  0.5513130000000  0.5709690000000  0.5050150000000 1.0
C      1  0.5402740000000  0.4286170000000  0.5185410000000 1.0
C      1  0.5191530000000  0.4948290000000  0.4299870000000 1.0
C      1  0.5096370000000  0.5222360000000  0.4291090000000 1.0
C      1  0.4882570000000  0.5112240000000  0.5427550000000 1.0
C      1  0.4338820000000  0.5476260000000  0.4727440000000 1.0
C      1  0.4856770000000  0.5588090000000  0.4508530000000 1.0
C      1  0.5443440000000  0.4902650000000  0.4436080000000 1.0
END
