TITL C-57557-5540-8 55.7578614138325 125000 -192.230788739476 0 0 30 (C1) n - 1
REM
REM in /rds/project/t2_vol4/rds-t2-cs072/BORA/CARBON/from-Arr/AIRSS/Generating-Clusters/GAP-ML-2020/Only-C1/SD-CG/HFTN-CG
REM
REM
REM
REM
REM
REM ./C.cell (11c1c37f851c82e70ff6c80c92926a4b)
REM AIRSS Version 0.9.1 bugfix July 2018 build 013d7b7c2542+ Fri, 06 Jul 2018 19:26:36 +0100
REM compiler GCC version 9.3.0
REM options -cpp -mtune=generic -march=x86-64 -g -O0
REM seed 691986234 207065154 -1646338857 446756982 1000287864 -351541800 89578165 -1605573001 -2102275598 351711964 -1050665590 -1086334492 -87412652 -23590958 2057052870 1032588544 -649441390 99629114 566623710 -1846714352 1681455878 -952458124 1531866234 1772426264 -1307014929 1245040425 -930495488 -1635634105 339016468 -1679141209 1569551639 141732070 -1213360005
REM
CELL 1.54180   50.00000   50.00000   50.00000   90.00000   90.00000   90.00000
LATT -1
SFAC C  
C      1  0.5103230000000  0.4812980000000  0.5039930000000 1.0
C      1  0.5419300000000  0.5334330000000  0.4936170000000 1.0
C      1  0.4381150000000  0.5312980000000  0.4729860000000 1.0
C      1  0.4681660000000  0.4650150000000  0.5119910000000 1.0
C      1  0.4964780000000  0.4992230000000  0.5250470000000 1.0
C      1  0.5450250000000  0.4689120000000  0.5270000000000 1.0
C      1  0.4682670000000  0.5353420000000  0.5119770000000 1.0
C      1  0.5284360000000  0.5375760000000  0.4685080000000 1.0
C      1  0.4581720000000  0.5455930000000  0.4868170000000 1.0
C      1  0.5319130000000  0.4907040000000  0.4854230000000 1.0
C      1  0.5144240000000  0.4358650000000  0.4874710000000 1.0
C      1  0.4512200000000  0.5081310000000  0.4717670000000 1.0
C      1  0.4957310000000  0.5254150000000  0.5089070000000 1.0
C      1  0.4785770000000  0.5612580000000  0.4737390000000 1.0
C      1  0.5534960000000  0.5055050000000  0.4973680000000 1.0
C      1  0.4689200000000  0.4889800000000  0.5274250000000 1.0
C      1  0.4779440000000  0.4393400000000  0.5094180000000 1.0
C      1  0.4953960000000  0.5170210000000  0.4778950000000 1.0
C      1  0.4551730000000  0.5125390000000  0.5244010000000 1.0
C      1  0.4757300000000  0.4967590000000  0.4732470000000 1.0
C      1  0.4858290000000  0.4741820000000  0.4875080000000 1.0
C      1  0.5219650000000  0.5094250000000  0.4671830000000 1.0
C      1  0.4995730000000  0.5459910000000  0.4692340000000 1.0
C      1  0.5220300000000  0.4584320000000  0.5180610000000 1.0
C      1  0.4893030000000  0.4455680000000  0.4806960000000 1.0
C      1  0.5114000000000  0.5077650000000  0.5478310000000 1.0
C      1  0.5505270000000  0.4958460000000  0.5242380000000 1.0
C      1  0.5240300000000  0.5334300000000  0.5152960000000 1.0
C      1  0.5342270000000  0.5161500000000  0.5359410000000 1.0
C      1  0.5076810000000  0.4340050000000  0.5150130000000 1.0
END
