TITL C-57639-9906-6 0.0109269281178485 125000 -784.2052643054 0 0 113 (C1) n - 1
REM
REM in /rds/project/t2_vol4/rds-t2-cs072/BORA/CARBON/from-Arr/AIRSS/Generating-Clusters/GAP-ML-2020/Only-C1/SD-CG/HFTN-CG
REM
REM
REM
REM
REM
REM ./C.cell (11c1c37f851c82e70ff6c80c92926a4b)
REM AIRSS Version 0.9.1 bugfix July 2018 build 013d7b7c2542+ Fri, 06 Jul 2018 19:26:36 +0100
REM compiler GCC version 9.3.0
REM options -cpp -mtune=generic -march=x86-64 -g -O0
REM seed -1413354433 833447236 -1443267345 68326119 1578012013 -623092349 -787746009 -1977347075 590058175 106626991 -435490598 282777485 -1617946776 -281809988 -1588616304 1663880676 732967494 1366443718 302868428 1880668295 1563147062 -1896455627 -984872124 1535291854 -635740528 1903894149 -1261840475 -1724672481 733319587 312822284 2082484043 1121134993 -1255053678
REM
CELL 1.54180   50.00000   50.00000   50.00000   90.00000   90.00000   90.00000
LATT -1
SFAC C  
C      1  0.5477130000000  0.5269660000000  0.5712940000000 1.0
C      1  0.4639430000000  0.5601130000000  0.4685320000000 1.0
C      1  0.4497430000000  0.4318040000000  0.5266810000000 1.0
C      1  0.5850330000000  0.4986600000000  0.4918670000000 1.0
C      1  0.5308890000000  0.3955040000000  0.5172230000000 1.0
C      1  0.5744800000000  0.5620990000000  0.4833740000000 1.0
C      1  0.5290180000000  0.5907300000000  0.5318290000000 1.0
C      1  0.4986670000000  0.5072780000000  0.5048300000000 1.0
C      1  0.5850420000000  0.5238690000000  0.5289100000000 1.0
C      1  0.5138370000000  0.5241490000000  0.4337820000000 1.0
C      1  0.5313930000000  0.5741860000000  0.5548750000000 1.0
C      1  0.4622010000000  0.5074070000000  0.5253720000000 1.0
C      1  0.4629690000000  0.4971180000000  0.5804280000000 1.0
C      1  0.5622070000000  0.5053250000000  0.5791890000000 1.0
C      1  0.4356070000000  0.4360200000000  0.5018230000000 1.0
C      1  0.5031600000000  0.4367070000000  0.4456730000000 1.0
C      1  0.4690870000000  0.5343020000000  0.4263930000000 1.0
C      1  0.5248280000000  0.4585850000000  0.5631840000000 1.0
C      1  0.5010740000000  0.5951740000000  0.5254150000000 1.0
C      1  0.4248660000000  0.5114200000000  0.4724160000000 1.0
C      1  0.5441730000000  0.5016010000000  0.5328310000000 1.0
C      1  0.4769650000000  0.4562010000000  0.5597420000000 1.0
C      1  0.4179230000000  0.4583410000000  0.5007840000000 1.0
C      1  0.4348880000000  0.5659880000000  0.5227550000000 1.0
C      1  0.4367470000000  0.5664910000000  0.4723540000000 1.0
C      1  0.5254240000000  0.5840480000000  0.4851340000000 1.0
C      1  0.4711350000000  0.4132580000000  0.4742420000000 1.0
C      1  0.5889650000000  0.4718700000000  0.4923130000000 1.0
C      1  0.4397120000000  0.5497830000000  0.5446710000000 1.0
C      1  0.5542920000000  0.5546460000000  0.4631740000000 1.0
C      1  0.5082050000000  0.4917650000000  0.4789950000000 1.0
C      1  0.4823480000000  0.4939640000000  0.4091970000000 1.0
C      1  0.5009410000000  0.4572600000000  0.5219440000000 1.0
C      1  0.5363740000000  0.4843240000000  0.4876120000000 1.0
C      1  0.4958180000000  0.4145060000000  0.5421900000000 1.0
C      1  0.4850080000000  0.5370630000000  0.5951800000000 1.0
C      1  0.4558350000000  0.4884690000000  0.4221620000000 1.0
C      1  0.4166160000000  0.5501490000000  0.4431160000000 1.0
C      1  0.5133540000000  0.4834720000000  0.5713090000000 1.0
C      1  0.4306720000000  0.4744180000000  0.5494300000000 1.0
C      1  0.4977400000000  0.4795380000000  0.4355690000000 1.0
C      1  0.4709590000000  0.5184090000000  0.4991990000000 1.0
C      1  0.5323950000000  0.4417490000000  0.4531280000000 1.0
C      1  0.5520250000000  0.4597060000000  0.5549630000000 1.0
C      1  0.5962050000000  0.5222040000000  0.5030510000000 1.0
C      1  0.5264170000000  0.5088690000000  0.5585340000000 1.0
C      1  0.4749930000000  0.5462530000000  0.4920540000000 1.0
C      1  0.4366170000000  0.4495720000000  0.4562810000000 1.0
C      1  0.5438490000000  0.5856830000000  0.5077160000000 1.0
C      1  0.4902490000000  0.5212280000000  0.4140400000000 1.0
C      1  0.5750640000000  0.4959750000000  0.5368510000000 1.0
C      1  0.4090600000000  0.4881310000000  0.4667990000000 1.0
C      1  0.4387330000000  0.5197890000000  0.5415260000000 1.0
C      1  0.5555630000000  0.4564200000000  0.5246350000000 1.0
C      1  0.5427160000000  0.5247160000000  0.5142430000000 1.0
C      1  0.5797450000000  0.4724230000000  0.5190010000000 1.0
C      1  0.5014560000000  0.4436360000000  0.5487410000000 1.0
C      1  0.4961750000000  0.4458180000000  0.4976270000000 1.0
C      1  0.4402780000000  0.4975720000000  0.5620280000000 1.0
C      1  0.5473190000000  0.4550790000000  0.4776690000000 1.0
C      1  0.4176610000000  0.5277700000000  0.4969810000000 1.0
C      1  0.5380020000000  0.5069550000000  0.4266060000000 1.0
C      1  0.4526440000000  0.4556970000000  0.5432610000000 1.0
C      1  0.4833360000000  0.5842850000000  0.5455960000000 1.0
C      1  0.4190700000000  0.5110350000000  0.5201930000000 1.0
C      1  0.5062440000000  0.4844200000000  0.5225690000000 1.0
C      1  0.4837310000000  0.4587400000000  0.4489950000000 1.0
C      1  0.5671720000000  0.4834150000000  0.5624470000000 1.0
C      1  0.4796030000000  0.5537830000000  0.4455570000000 1.0
C      1  0.5090980000000  0.5512060000000  0.4460550000000 1.0
C      1  0.4828080000000  0.4188630000000  0.4990450000000 1.0
C      1  0.5026990000000  0.5722690000000  0.5634040000000 1.0
C      1  0.5286910000000  0.5660130000000  0.4615790000000 1.0
C      1  0.5643110000000  0.5259620000000  0.4639830000000 1.0
C      1  0.4545260000000  0.4801820000000  0.5183340000000 1.0
C      1  0.4564210000000  0.5025390000000  0.4793270000000 1.0
C      1  0.4157560000000  0.4630290000000  0.4725330000000 1.0
C      1  0.5743990000000  0.4623930000000  0.4691150000000 1.0
C      1  0.4970810000000  0.5459930000000  0.5714490000000 1.0
C      1  0.4875460000000  0.4670570000000  0.4794340000000 1.0
C      1  0.4470230000000  0.4293800000000  0.4749610000000 1.0
C      1  0.4553070000000  0.4631180000000  0.4384210000000 1.0
C      1  0.5455030000000  0.4615370000000  0.4332050000000 1.0
C      1  0.5072420000000  0.5284460000000  0.5489260000000 1.0
C      1  0.5668670000000  0.4765710000000  0.4452970000000 1.0
C      1  0.5307060000000  0.4804810000000  0.4170690000000 1.0
C      1  0.4187300000000  0.5751760000000  0.4504740000000 1.0
C      1  0.4843940000000  0.4791030000000  0.5735560000000 1.0
C      1  0.4232010000000  0.4814700000000  0.5206100000000 1.0
C      1  0.4247720000000  0.5236800000000  0.4448760000000 1.0
C      1  0.5630880000000  0.5451830000000  0.5291150000000 1.0
C      1  0.5501250000000  0.5517360000000  0.5552890000000 1.0
C      1  0.5146910000000  0.3943360000000  0.5372410000000 1.0
C      1  0.5343040000000  0.4792740000000  0.5172410000000 1.0
C      1  0.5541660000000  0.5093720000000  0.4886600000000 1.0
C      1  0.4697820000000  0.5171430000000  0.5989940000000 1.0
C      1  0.5012100000000  0.5841990000000  0.4995290000000 1.0
C      1  0.5618370000000  0.5054260000000  0.4418240000000 1.0
C      1  0.5126960000000  0.5320260000000  0.5174000000000 1.0
C      1  0.4261360000000  0.5549580000000  0.4977300000000 1.0
C      1  0.5043480000000  0.4766450000000  0.4079070000000 1.0
C      1  0.5256310000000  0.4149450000000  0.4691740000000 1.0
C      1  0.5037690000000  0.5017670000000  0.4521040000000 1.0
C      1  0.5384430000000  0.4128140000000  0.4961890000000 1.0
C      1  0.5505150000000  0.4376190000000  0.5016960000000 1.0
C      1  0.4466410000000  0.5156790000000  0.4285310000000 1.0
C      1  0.4615190000000  0.4764180000000  0.4895040000000 1.0
C      1  0.4561090000000  0.5726700000000  0.5420050000000 1.0
C      1  0.4978020000000  0.4132490000000  0.4605680000000 1.0
C      1  0.4979610000000  0.5542700000000  0.5040270000000 1.0
C      1  0.5882010000000  0.5380780000000  0.4808010000000 1.0
C      1  0.4720160000000  0.4153790000000  0.5251330000000 1.0
C      1  0.5657540000000  0.5684380000000  0.5096070000000 1.0
END
