TITL C-57624-9905-10 0.0079795283103958 125000 -105.622385070138 0 0 16 (C1) n - 1
REM
REM in /rds/project/t2_vol4/rds-t2-cs072/BORA/CARBON/from-Arr/AIRSS/Generating-Clusters/GAP-ML-2020/Only-C1/SD-CG/HFTN-CG
REM
REM
REM
REM
REM
REM ./C.cell (11c1c37f851c82e70ff6c80c92926a4b)
REM AIRSS Version 0.9.1 bugfix July 2018 build 013d7b7c2542+ Fri, 06 Jul 2018 19:26:36 +0100
REM compiler GCC version 9.3.0
REM options -cpp -mtune=generic -march=x86-64 -g -O0
REM seed 1131646720 1231120191 272150284 1252590490 219111081 843137786 351660836 2137373406 773447070 -1564993924 729487098 -501565811 140436486 744842730 987141357 195668895 1970476239 634958647 1460988142 -823480963 219986102 2127825771 -766097148 -2009593836 -1156004275 1866090379 -375254099 -1886450508 -1700934819 -1873777099 1502064121 -419842760 723641500
REM
CELL 1.54180   50.00000   50.00000   50.00000   90.00000   90.00000   90.00000
LATT -1
SFAC C  
C      1  0.5163990000000  0.4598250000000  0.4933440000000 1.0
C      1  0.4461750000000  0.5059770000000  0.4752920000000 1.0
C      1  0.5356700000000  0.4627040000000  0.5434600000000 1.0
C      1  0.5400060000000  0.4889470000000  0.5331340000000 1.0
C      1  0.4516290000000  0.5313270000000  0.4789620000000 1.0
C      1  0.4672610000000  0.4605080000000  0.4822630000000 1.0
C      1  0.4517180000000  0.4810740000000  0.4771280000000 1.0
C      1  0.5360910000000  0.5149620000000  0.5340040000000 1.0
C      1  0.4673220000000  0.5491380000000  0.4890550000000 1.0
C      1  0.4879210000000  0.5574590000000  0.5026540000000 1.0
C      1  0.5202770000000  0.5017990000000  0.4644570000000 1.0
C      1  0.4898500000000  0.4521000000000  0.4897120000000 1.0
C      1  0.5088730000000  0.5531080000000  0.5170540000000 1.0
C      1  0.5227810000000  0.4784200000000  0.4738610000000 1.0
C      1  0.5267030000000  0.5380660000000  0.5286200000000 1.0
C      1  0.5313240000000  0.4645850000000  0.5169980000000 1.0
END
