TITL C-57544-5683-259 -0.0078580347199297 125000 -265.150734253345 0 0 40 (C1) n - 1
REM
REM in /rds/project/t2_vol4/rds-t2-cs072/BORA/CARBON/from-Arr/AIRSS/Generating-Clusters/GAP-ML-2020/Only-C1/SD-CG/HFTN-CG
REM
REM
REM
REM
REM
REM ./C.cell (11c1c37f851c82e70ff6c80c92926a4b)
REM AIRSS Version 0.9.1 bugfix July 2018 build 013d7b7c2542+ Fri, 06 Jul 2018 19:26:36 +0100
REM compiler GCC version 9.3.0
REM options -cpp -mtune=generic -march=x86-64 -g -O0
REM seed -832270322 -187504530 925258631 364300208 57707974 -1897231489 1433058503 -790193414 1156051400 -950445898 96005363 -461743186 1637096457 -1733436052 -1874573531 43494694 -902817296 596635075 -123200128 1319031382 600759789 2061810486 -1201975760 1014004868 1551513465 -494187184 283157159 700434635 15197592 -450650477 -528466954 89768223 -1561531756
REM
CELL 1.54180   50.00000   50.00000   50.00000   90.00000   90.00000   90.00000
LATT -1
SFAC C  
C      1  0.5133180000000  0.4697510000000  0.4714570000000 1.0
C      1  0.5798380000000  0.4831070000000  0.4808520000000 1.0
C      1  0.4392700000000  0.4874440000000  0.4749220000000 1.0
C      1  0.5653350000000  0.5403490000000  0.5284660000000 1.0
C      1  0.5427610000000  0.4580410000000  0.4967030000000 1.0
C      1  0.5207900000000  0.4389450000000  0.4996810000000 1.0
C      1  0.5190170000000  0.5644930000000  0.5368150000000 1.0
C      1  0.5760190000000  0.5253790000000  0.5112960000000 1.0
C      1  0.4294870000000  0.5050170000000  0.5278430000000 1.0
C      1  0.5368230000000  0.5424580000000  0.5346550000000 1.0
C      1  0.4592970000000  0.4664050000000  0.5364750000000 1.0
C      1  0.5089790000000  0.4981320000000  0.5398860000000 1.0
C      1  0.4876430000000  0.5526030000000  0.5003350000000 1.0
C      1  0.5065180000000  0.4482390000000  0.5244530000000 1.0
C      1  0.4784150000000  0.4514540000000  0.5201110000000 1.0
C      1  0.4750420000000  0.4490960000000  0.4912360000000 1.0
C      1  0.4325000000000  0.5265310000000  0.5154920000000 1.0
C      1  0.4524750000000  0.4621020000000  0.4813270000000 1.0
C      1  0.5367680000000  0.4756110000000  0.4559050000000 1.0
C      1  0.5013080000000  0.4448730000000  0.4793670000000 1.0
C      1  0.5098750000000  0.4761450000000  0.5224970000000 1.0
C      1  0.4630180000000  0.5529720000000  0.4831400000000 1.0
C      1  0.5210230000000  0.4837400000000  0.4969550000000 1.0
C      1  0.5246910000000  0.5178040000000  0.5272110000000 1.0
C      1  0.4370430000000  0.4784970000000  0.5235620000000 1.0
C      1  0.5452480000000  0.5166270000000  0.4784670000000 1.0
C      1  0.4400040000000  0.5135840000000  0.4711360000000 1.0
C      1  0.4714320000000  0.5487520000000  0.4560600000000 1.0
C      1  0.4899730000000  0.4958720000000  0.5611390000000 1.0
C      1  0.4417210000000  0.5345270000000  0.4897090000000 1.0
C      1  0.5228660000000  0.5140560000000  0.4977600000000 1.0
C      1  0.5709530000000  0.5088940000000  0.4886010000000 1.0
C      1  0.5338610000000  0.5043980000000  0.4539260000000 1.0
C      1  0.5122570000000  0.5168940000000  0.4429900000000 1.0
C      1  0.4958650000000  0.5324410000000  0.4591500000000 1.0
C      1  0.4971600000000  0.5655520000000  0.5230290000000 1.0
C      1  0.5582110000000  0.4668330000000  0.4744060000000 1.0
C      1  0.4701410000000  0.4799970000000  0.5589730000000 1.0
C      1  0.4308930000000  0.4705700000000  0.4968190000000 1.0
C      1  0.5021620000000  0.5318120000000  0.4871910000000 1.0
END
