TITL C-57371-9005-227 0.0108452444878725 125000 -87.3785527980454 0 0 14 (C1) n - 1
REM
REM in /rds/project/t2_vol4/rds-t2-cs072/BORA/CARBON/from-Arr/AIRSS/Generating-Clusters/GAP-ML-2020/Only-C1/SD-CG/HFTN-CG
REM
REM
REM
REM
REM
REM ./C.cell (11c1c37f851c82e70ff6c80c92926a4b)
REM AIRSS Version 0.9.1 bugfix July 2018 build 013d7b7c2542+ Fri, 06 Jul 2018 19:26:36 +0100
REM compiler GCC version 9.3.0
REM options -cpp -mtune=generic -march=x86-64 -g -O0
REM seed 1693264088 -1252368947 -2113002916 1530601926 -408407064 -1608081788 -358774098 497719237 -121185595 -2135990673 -982088796 -1518769688 -892342723 1724459706 -1458666565 -698789000 -1311455291 1325421927 -164521899 986345239 785712872 408746315 -728551235 -754198128 831152819 833539883 788629676 -129985106 -1476019775 109845557 1583103918 812059057 1654580247
REM
CELL 1.54180   50.00000   50.00000   50.00000   90.00000   90.00000   90.00000
LATT -1
SFAC C  
C      1  0.4853470000000  0.4639750000000  0.5068160000000 1.0
C      1  0.5168510000000  0.4923810000000  0.4588270000000 1.0
C      1  0.5222550000000  0.5367420000000  0.4800690000000 1.0
C      1  0.5009840000000  0.4896030000000  0.5401750000000 1.0
C      1  0.4657930000000  0.5105520000000  0.5070620000000 1.0
C      1  0.5079570000000  0.5144110000000  0.5388240000000 1.0
C      1  0.5212230000000  0.5169670000000  0.4634250000000 1.0
C      1  0.5078450000000  0.4710960000000  0.4697000000000 1.0
C      1  0.5310430000000  0.5546640000000  0.4966360000000 1.0
C      1  0.4683690000000  0.4846990000000  0.4985370000000 1.0
C      1  0.4702700000000  0.5060600000000  0.4807390000000 1.0
C      1  0.4937960000000  0.4663350000000  0.5334830000000 1.0
C      1  0.4988070000000  0.4523760000000  0.4850160000000 1.0
C      1  0.5094600000000  0.5401390000000  0.5406900000000 1.0
END
