TITL C-57382-8975-10 132.611542217202 125000 -531.468700097424 0 0 77 (C1) n - 1
REM
REM in /rds/project/t2_vol4/rds-t2-cs072/BORA/CARBON/from-Arr/AIRSS/Generating-Clusters/GAP-ML-2020/Only-C1/SD-CG/HFTN-CG
REM
REM
REM
REM
REM
REM ./C.cell (11c1c37f851c82e70ff6c80c92926a4b)
REM AIRSS Version 0.9.1 bugfix July 2018 build 013d7b7c2542+ Fri, 06 Jul 2018 19:26:36 +0100
REM compiler GCC version 9.3.0
REM options -cpp -mtune=generic -march=x86-64 -g -O0
REM seed -1337226960 -1984262848 -865870787 -197141991 -988144218 2108973046 1553228147 -76448861 -1163361157 -1337496981 40850490 627430946 614244090 1716750312 1244953156 -759769070 -1100144607 -209111044 -905230793 -1014855601 -173788583 1388227446 -1706003882 400357404 1962022622 -374390017 2112491106 576466912 -116539678 314725245 -1898684985 1629095421 -1916661039
REM
CELL 1.54180   50.00000   50.00000   50.00000   90.00000   90.00000   90.00000
LATT -1
SFAC C  
C      1  0.4422780000000  0.5278630000000  0.4711570000000 1.0
C      1  0.4431860000000  0.5659760000000  0.5023540000000 1.0
C      1  0.4653610000000  0.4339330000000  0.5094590000000 1.0
C      1  0.5380730000000  0.5489910000000  0.4619540000000 1.0
C      1  0.4794500000000  0.4814700000000  0.4291780000000 1.0
C      1  0.5281180000000  0.5644030000000  0.4837760000000 1.0
C      1  0.4468880000000  0.4425650000000  0.4902230000000 1.0
C      1  0.4941120000000  0.4658300000000  0.5283540000000 1.0
C      1  0.5153660000000  0.5022230000000  0.5759440000000 1.0
C      1  0.5054140000000  0.5123220000000  0.5488860000000 1.0
C      1  0.5278190000000  0.5447780000000  0.5761320000000 1.0
C      1  0.5533580000000  0.5154340000000  0.5482590000000 1.0
C      1  0.4687250000000  0.4515730000000  0.5319030000000 1.0
C      1  0.5138790000000  0.4242240000000  0.5128170000000 1.0
C      1  0.5400990000000  0.5188610000000  0.5744180000000 1.0
C      1  0.5021950000000  0.5010390000000  0.4714870000000 1.0
C      1  0.4841260000000  0.5092230000000  0.5070670000000 1.0
C      1  0.4815190000000  0.4874400000000  0.4871460000000 1.0
C      1  0.5305900000000  0.5051100000000  0.5336640000000 1.0
C      1  0.5638020000000  0.4742240000000  0.4555680000000 1.0
C      1  0.4380390000000  0.5159310000000  0.4967810000000 1.0
C      1  0.5007740000000  0.5520290000000  0.5732560000000 1.0
C      1  0.4351510000000  0.4889560000000  0.5356740000000 1.0
C      1  0.5220380000000  0.4522120000000  0.4393090000000 1.0
C      1  0.5068220000000  0.5227410000000  0.4921230000000 1.0
C      1  0.5348350000000  0.4740290000000  0.5399820000000 1.0
C      1  0.5653320000000  0.4576510000000  0.4773760000000 1.0
C      1  0.5584580000000  0.5319050000000  0.4725080000000 1.0
C      1  0.4304030000000  0.4899250000000  0.5064630000000 1.0
C      1  0.5461550000000  0.4369800000000  0.4803050000000 1.0
C      1  0.4983070000000  0.4248470000000  0.4699630000000 1.0
C      1  0.4994900000000  0.4797250000000  0.5727540000000 1.0
C      1  0.4797400000000  0.4384000000000  0.4528040000000 1.0
C      1  0.5003150000000  0.5568230000000  0.4898080000000 1.0
C      1  0.5431620000000  0.4930960000000  0.4886520000000 1.0
C      1  0.5414720000000  0.5606500000000  0.5086340000000 1.0
C      1  0.5428810000000  0.4718430000000  0.4364090000000 1.0
C      1  0.5397970000000  0.5004490000000  0.4363340000000 1.0
C      1  0.4534350000000  0.4876980000000  0.4420770000000 1.0
C      1  0.5489470000000  0.4582420000000  0.5219990000000 1.0
C      1  0.5208040000000  0.5651070000000  0.5294200000000 1.0
C      1  0.4620330000000  0.5252020000000  0.5129150000000 1.0
C      1  0.5560980000000  0.5355080000000  0.5038340000000 1.0
C      1  0.4539920000000  0.4700890000000  0.5482730000000 1.0
C      1  0.4440220000000  0.5600370000000  0.5299090000000 1.0
C      1  0.4934310000000  0.4568480000000  0.4351310000000 1.0
C      1  0.4746920000000  0.5274660000000  0.4338400000000 1.0
C      1  0.5190790000000  0.5167630000000  0.4280500000000 1.0
C      1  0.5380300000000  0.4356020000000  0.5079160000000 1.0
C      1  0.4408550000000  0.4691880000000  0.4592330000000 1.0
C      1  0.5327980000000  0.5149580000000  0.5057280000000 1.0
C      1  0.4326080000000  0.4685080000000  0.4879060000000 1.0
C      1  0.4829780000000  0.5338820000000  0.5571060000000 1.0
C      1  0.4701900000000  0.4851420000000  0.5681640000000 1.0
C      1  0.4919240000000  0.5070240000000  0.4239650000000 1.0
C      1  0.4540240000000  0.4434500000000  0.4621220000000 1.0
C      1  0.5246480000000  0.4333730000000  0.4616010000000 1.0
C      1  0.5644380000000  0.4745560000000  0.5029350000000 1.0
C      1  0.4731970000000  0.5477560000000  0.5317840000000 1.0
C      1  0.5208490000000  0.5643340000000  0.5575750000000 1.0
C      1  0.4900300000000  0.5484530000000  0.4452250000000 1.0
C      1  0.4290570000000  0.5409610000000  0.5442480000000 1.0
C      1  0.5201510000000  0.4782290000000  0.4799260000000 1.0
C      1  0.4990360000000  0.4661070000000  0.4963430000000 1.0
C      1  0.5115690000000  0.4641510000000  0.5519450000000 1.0
C      1  0.4954890000000  0.5610250000000  0.5181400000000 1.0
C      1  0.4379870000000  0.5148030000000  0.5502260000000 1.0
C      1  0.4529060000000  0.5548810000000  0.4787770000000 1.0
C      1  0.4907610000000  0.4218940000000  0.4981580000000 1.0
C      1  0.5560420000000  0.5042680000000  0.4620650000000 1.0
C      1  0.5722580000000  0.5182320000000  0.5253150000000 1.0
C      1  0.4799710000000  0.5590680000000  0.4695110000000 1.0
C      1  0.4622550000000  0.5127640000000  0.5658630000000 1.0
C      1  0.5813300000000  0.4950220000000  0.5140430000000 1.0
C      1  0.4517950000000  0.5160580000000  0.4470170000000 1.0
C      1  0.4906520000000  0.4959250000000  0.5305790000000 1.0
C      1  0.5181100000000  0.5417480000000  0.4422540000000 1.0
END
