TITL C-57638-9835-2 -22.2463048429665 125000 -1062.7408367719 0 0 152 (C1) n - 1
REM
REM in /rds/project/t2_vol4/rds-t2-cs072/BORA/CARBON/from-Arr/AIRSS/Generating-Clusters/GAP-ML-2020/Only-C1/SD-CG/HFTN-CG
REM
REM
REM
REM
REM
REM ./C.cell (11c1c37f851c82e70ff6c80c92926a4b)
REM AIRSS Version 0.9.1 bugfix July 2018 build 013d7b7c2542+ Fri, 06 Jul 2018 19:26:36 +0100
REM compiler GCC version 9.3.0
REM options -cpp -mtune=generic -march=x86-64 -g -O0
REM seed -1495590907 1909322979 519414246 -1253254870 624978837 502923153 231599141 213887212 320839966 -1264694780 77951193 1210889230 -1409977229 1208562411 2085398363 -1499398299 -1206319478 2096957825 -104993653 -2032003795 -1156368132 1392128514 -654004379 -383527805 1778128290 1584608047 1374162042 -2083446494 -1493871004 -696470933 2051621439 1069564249 820689741
REM
CELL 1.54180   50.00000   50.00000   50.00000   90.00000   90.00000   90.00000
LATT -1
SFAC C  
C      1  0.4450870000000  0.5225480000000  0.4159530000000 1.0
C      1  0.4629990000000  0.4205570000000  0.5393100000000 1.0
C      1  0.5526090000000  0.5400680000000  0.5167890000000 1.0
C      1  0.4086960000000  0.5079420000000  0.4558040000000 1.0
C      1  0.4549600000000  0.4323770000000  0.4428730000000 1.0
C      1  0.4834140000000  0.4634430000000  0.4783630000000 1.0
C      1  0.5108440000000  0.5695910000000  0.4385830000000 1.0
C      1  0.3978470000000  0.4909290000000  0.5005820000000 1.0
C      1  0.4881630000000  0.4084960000000  0.4759810000000 1.0
C      1  0.5376720000000  0.4120370000000  0.4822040000000 1.0
C      1  0.4730650000000  0.4415080000000  0.5217480000000 1.0
C      1  0.5479930000000  0.5242430000000  0.5771250000000 1.0
C      1  0.4948180000000  0.3951100000000  0.5481300000000 1.0
C      1  0.4352980000000  0.4920440000000  0.5675250000000 1.0
C      1  0.4778490000000  0.4984720000000  0.5924000000000 1.0
C      1  0.4543000000000  0.4968060000000  0.4574830000000 1.0
C      1  0.4171900000000  0.4554430000000  0.4615850000000 1.0
C      1  0.4887880000000  0.5114230000000  0.5356640000000 1.0
C      1  0.4509640000000  0.5057480000000  0.5048040000000 1.0
C      1  0.5832490000000  0.4774710000000  0.5694940000000 1.0
C      1  0.5104930000000  0.4262650000000  0.4874040000000 1.0
C      1  0.5801820000000  0.4356170000000  0.4812610000000 1.0
C      1  0.5642690000000  0.5586320000000  0.4680350000000 1.0
C      1  0.4508450000000  0.5504470000000  0.4179560000000 1.0
C      1  0.4700980000000  0.4593580000000  0.3960070000000 1.0
C      1  0.5453250000000  0.4159170000000  0.4557650000000 1.0
C      1  0.4908290000000  0.4810620000000  0.5008910000000 1.0
C      1  0.5131290000000  0.3950830000000  0.5269180000000 1.0
C      1  0.4979030000000  0.4129650000000  0.4448440000000 1.0
C      1  0.4691530000000  0.5877180000000  0.4422790000000 1.0
C      1  0.4114580000000  0.5269040000000  0.5433070000000 1.0
C      1  0.5623360000000  0.5858600000000  0.5077470000000 1.0
C      1  0.5536120000000  0.4791890000000  0.5705360000000 1.0
C      1  0.4937920000000  0.4134470000000  0.5711800000000 1.0
C      1  0.5517910000000  0.4609530000000  0.4469630000000 1.0
C      1  0.4326910000000  0.4523820000000  0.4380670000000 1.0
C      1  0.4614080000000  0.5648380000000  0.5822510000000 1.0
C      1  0.5252450000000  0.4204630000000  0.4374310000000 1.0
C      1  0.4649420000000  0.5057670000000  0.4027360000000 1.0
C      1  0.5329690000000  0.4458720000000  0.4252940000000 1.0
C      1  0.4943320000000  0.5097030000000  0.4028380000000 1.0
C      1  0.5037880000000  0.4894030000000  0.4451460000000 1.0
C      1  0.5191730000000  0.5058090000000  0.5400720000000 1.0
C      1  0.5151180000000  0.4912730000000  0.4161240000000 1.0
C      1  0.4481280000000  0.4673100000000  0.5624180000000 1.0
C      1  0.5614760000000  0.4192220000000  0.4965700000000 1.0
C      1  0.4537720000000  0.5379510000000  0.5688450000000 1.0
C      1  0.5901850000000  0.4592210000000  0.5482020000000 1.0
C      1  0.5422740000000  0.5059420000000  0.4208740000000 1.0
C      1  0.5656630000000  0.5453590000000  0.4404230000000 1.0
C      1  0.5260130000000  0.4730470000000  0.4624330000000 1.0
C      1  0.5424960000000  0.5735560000000  0.5544980000000 1.0
C      1  0.4538260000000  0.4794210000000  0.4029830000000 1.0
C      1  0.4705350000000  0.4904120000000  0.5217680000000 1.0
C      1  0.5139820000000  0.4335780000000  0.5795010000000 1.0
C      1  0.5651700000000  0.4365870000000  0.4568990000000 1.0
C      1  0.4142450000000  0.5555420000000  0.4809440000000 1.0
C      1  0.4145630000000  0.4992620000000  0.5486460000000 1.0
C      1  0.4890510000000  0.5658630000000  0.5888590000000 1.0
C      1  0.5648960000000  0.4707530000000  0.5072400000000 1.0
C      1  0.5113550000000  0.4606380000000  0.5920590000000 1.0
C      1  0.5903720000000  0.4579250000000  0.4941940000000 1.0
C      1  0.4994740000000  0.5364250000000  0.4084290000000 1.0
C      1  0.4742610000000  0.3969100000000  0.5278830000000 1.0
C      1  0.4567540000000  0.4238410000000  0.4706540000000 1.0
C      1  0.4693880000000  0.4266950000000  0.5674660000000 1.0
C      1  0.5286590000000  0.4201490000000  0.5326310000000 1.0
C      1  0.4860030000000  0.5575790000000  0.5357650000000 1.0
C      1  0.5194280000000  0.5455910000000  0.4267460000000 1.0
C      1  0.4793270000000  0.4270250000000  0.4287780000000 1.0
C      1  0.5445390000000  0.5446780000000  0.4864050000000 1.0
C      1  0.5176520000000  0.5902410000000  0.5533780000000 1.0
C      1  0.5924730000000  0.5529440000000  0.4775610000000 1.0
C      1  0.4823110000000  0.5968950000000  0.5174190000000 1.0
C      1  0.5712130000000  0.4838410000000  0.4477080000000 1.0
C      1  0.5278610000000  0.5081450000000  0.5951850000000 1.0
C      1  0.5431740000000  0.4591240000000  0.5517840000000 1.0
C      1  0.5149510000000  0.4605790000000  0.4108070000000 1.0
C      1  0.5214620000000  0.5653120000000  0.4907460000000 1.0
C      1  0.5266340000000  0.5323730000000  0.5265930000000 1.0
C      1  0.4304450000000  0.5032330000000  0.4350680000000 1.0
C      1  0.4778640000000  0.5554040000000  0.4092460000000 1.0
C      1  0.4638760000000  0.5303360000000  0.4980730000000 1.0
C      1  0.4670110000000  0.5863960000000  0.5639730000000 1.0
C      1  0.5691130000000  0.5171470000000  0.5291790000000 1.0
C      1  0.4640630000000  0.5795070000000  0.5350500000000 1.0
C      1  0.4018570000000  0.5297410000000  0.4736770000000 1.0
C      1  0.4529830000000  0.5097910000000  0.5816000000000 1.0
C      1  0.4292380000000  0.4362180000000  0.4782280000000 1.0
C      1  0.4100570000000  0.4840920000000  0.4738020000000 1.0
C      1  0.4648360000000  0.4526170000000  0.5788600000000 1.0
C      1  0.4103150000000  0.4824750000000  0.5255880000000 1.0
C      1  0.5058880000000  0.4379790000000  0.5157960000000 1.0
C      1  0.4962850000000  0.5133950000000  0.4614880000000 1.0
C      1  0.5330820000000  0.5879120000000  0.5066090000000 1.0
C      1  0.5788570000000  0.5757590000000  0.4867350000000 1.0
C      1  0.4460620000000  0.5898730000000  0.4837680000000 1.0
C      1  0.4898810000000  0.3942140000000  0.5035140000000 1.0
C      1  0.5137400000000  0.4662540000000  0.5140640000000 1.0
C      1  0.4384290000000  0.4576410000000  0.4953500000000 1.0
C      1  0.4315730000000  0.5453880000000  0.5507050000000 1.0
C      1  0.5403800000000  0.5295620000000  0.4384960000000 1.0
C      1  0.5319070000000  0.4333040000000  0.5591290000000 1.0
C      1  0.4352740000000  0.5656710000000  0.5310210000000 1.0
C      1  0.4895240000000  0.4463110000000  0.4089010000000 1.0
C      1  0.5649810000000  0.4523870000000  0.5322440000000 1.0
C      1  0.5457570000000  0.5188550000000  0.4711120000000 1.0
C      1  0.5471360000000  0.5059490000000  0.5534110000000 1.0
C      1  0.4814170000000  0.5349910000000  0.5539110000000 1.0
C      1  0.4461310000000  0.5713030000000  0.4393450000000 1.0
C      1  0.4955730000000  0.5877590000000  0.5711160000000 1.0
C      1  0.4618270000000  0.5446180000000  0.4745290000000 1.0
C      1  0.4707370000000  0.5985250000000  0.4918070000000 1.0
C      1  0.4773720000000  0.4783650000000  0.4534210000000 1.0
C      1  0.3929650000000  0.5185790000000  0.4985890000000 1.0
C      1  0.4917350000000  0.5263360000000  0.5073170000000 1.0
C      1  0.4380340000000  0.5667560000000  0.4680050000000 1.0
C      1  0.4830580000000  0.5913600000000  0.4673920000000 1.0
C      1  0.5075960000000  0.4507140000000  0.4701460000000 1.0
C      1  0.5195690000000  0.4765980000000  0.5393240000000 1.0
C      1  0.4969400000000  0.5398530000000  0.5808940000000 1.0
C      1  0.5998370000000  0.4978580000000  0.5562470000000 1.0
C      1  0.5931750000000  0.5265930000000  0.4628260000000 1.0
C      1  0.4325710000000  0.4765410000000  0.4219190000000 1.0
C      1  0.5115630000000  0.5976100000000  0.5251390000000 1.0
C      1  0.4839560000000  0.4699630000000  0.5922550000000 1.0
C      1  0.4298500000000  0.4629840000000  0.5217670000000 1.0
C      1  0.5081240000000  0.5775960000000  0.4662420000000 1.0
C      1  0.5378730000000  0.4743970000000  0.4981700000000 1.0
C      1  0.5029600000000  0.5057330000000  0.4889790000000 1.0
C      1  0.4647000000000  0.4445980000000  0.4930750000000 1.0
C      1  0.5847090000000  0.5262580000000  0.4355250000000 1.0
C      1  0.5556170000000  0.4256610000000  0.5226050000000 1.0
C      1  0.4153220000000  0.5590240000000  0.5098260000000 1.0
C      1  0.4401660000000  0.4885070000000  0.4828800000000 1.0
C      1  0.6075800000000  0.4784610000000  0.5354530000000 1.0
C      1  0.5742070000000  0.5369430000000  0.5723180000000 1.0
C      1  0.5005850000000  0.5161810000000  0.5953240000000 1.0
C      1  0.6048300000000  0.4800540000000  0.5075750000000 1.0
C      1  0.5791910000000  0.4978980000000  0.5053320000000 1.0
C      1  0.5326030000000  0.4806000000000  0.5919580000000 1.0
C      1  0.5745440000000  0.5065540000000  0.4744530000000 1.0
C      1  0.4877380000000  0.5770940000000  0.4244120000000 1.0
C      1  0.4700530000000  0.5228650000000  0.4598450000000 1.0
C      1  0.5888960000000  0.5232140000000  0.5509760000000 1.0
C      1  0.5546610000000  0.5683380000000  0.5283720000000 1.0
C      1  0.5704210000000  0.5015470000000  0.4265810000000 1.0
C      1  0.4569870000000  0.4659780000000  0.5339530000000 1.0
C      1  0.4004660000000  0.5363840000000  0.5193510000000 1.0
C      1  0.5059430000000  0.5495380000000  0.5147900000000 1.0
C      1  0.5302710000000  0.4966040000000  0.4821170000000 1.0
C      1  0.5529820000000  0.5541370000000  0.5725040000000 1.0
END
