TITL C-57536-5782-1 -0.00589109610525832 125000 -318.785263217923 0 0 48 (C1) n - 1
REM
REM in /rds/project/t2_vol4/rds-t2-cs072/BORA/CARBON/from-Arr/AIRSS/Generating-Clusters/GAP-ML-2020/Only-C1/SD-CG/HFTN-CG
REM
REM
REM
REM
REM
REM ./C.cell (11c1c37f851c82e70ff6c80c92926a4b)
REM AIRSS Version 0.9.1 bugfix July 2018 build 013d7b7c2542+ Fri, 06 Jul 2018 19:26:36 +0100
REM compiler GCC version 9.3.0
REM options -cpp -mtune=generic -march=x86-64 -g -O0
REM seed 32479166 -477002237 533600267 -178121052 1425837643 -1524374717 2035935341 509652665 -1074773978 2034604236 1392544482 -1974350667 -1915223798 875950628 92417714 1823545503 -857294692 -1681844324 -377932270 -1157123602 1552316227 163699688 -918855043 1553977525 -630408623 989390259 105315291 -1695075155 1051722077 1662142689 1414325497 -2069145048 1279268634
REM
CELL 1.54180   50.00000   50.00000   50.00000   90.00000   90.00000   90.00000
LATT -1
SFAC C  
C      1  0.4354710000000  0.5256180000000  0.5601000000000 1.0
C      1  0.4545670000000  0.4819500000000  0.5555970000000 1.0
C      1  0.5527410000000  0.4923830000000  0.5369660000000 1.0
C      1  0.5625160000000  0.5157460000000  0.4989150000000 1.0
C      1  0.5370110000000  0.5595010000000  0.5050810000000 1.0
C      1  0.4827190000000  0.5197890000000  0.4514550000000 1.0
C      1  0.5055030000000  0.5334760000000  0.4397110000000 1.0
C      1  0.4347250000000  0.4991680000000  0.5620800000000 1.0
C      1  0.5448800000000  0.5343950000000  0.5160560000000 1.0
C      1  0.5185850000000  0.5435210000000  0.4638590000000 1.0
C      1  0.4341390000000  0.4561340000000  0.5166960000000 1.0
C      1  0.4822690000000  0.4896940000000  0.5593880000000 1.0
C      1  0.4954510000000  0.4845480000000  0.4963960000000 1.0
C      1  0.4537550000000  0.5391790000000  0.5478180000000 1.0
C      1  0.4777320000000  0.5070360000000  0.4943330000000 1.0
C      1  0.5640400000000  0.4905170000000  0.5117470000000 1.0
C      1  0.4904790000000  0.5548480000000  0.4903130000000 1.0
C      1  0.5209500000000  0.5130110000000  0.5545440000000 1.0
C      1  0.4936320000000  0.5164220000000  0.5568240000000 1.0
C      1  0.5593490000000  0.4698110000000  0.4922210000000 1.0
C      1  0.4976850000000  0.5033640000000  0.4712170000000 1.0
C      1  0.4984730000000  0.4719190000000  0.5447110000000 1.0
C      1  0.5452160000000  0.5212180000000  0.5434400000000 1.0
C      1  0.5241460000000  0.4848900000000  0.5399400000000 1.0
C      1  0.5563770000000  0.4836310000000  0.4669410000000 1.0
C      1  0.4607190000000  0.4693890000000  0.4574430000000 1.0
C      1  0.4401320000000  0.4831150000000  0.4721530000000 1.0
C      1  0.5411070000000  0.4483960000000  0.4903790000000 1.0
C      1  0.5173990000000  0.4930110000000  0.5119610000000 1.0
C      1  0.4649650000000  0.4508200000000  0.4791090000000 1.0
C      1  0.5199870000000  0.5110010000000  0.4313360000000 1.0
C      1  0.5182170000000  0.5632650000000  0.4848650000000 1.0
C      1  0.4548880000000  0.4609480000000  0.5343940000000 1.0
C      1  0.4405460000000  0.4597230000000  0.4911780000000 1.0
C      1  0.4582830000000  0.5295380000000  0.4630420000000 1.0
C      1  0.4513790000000  0.5074240000000  0.4810360000000 1.0
C      1  0.5141370000000  0.4434490000000  0.4860480000000 1.0
C      1  0.4885590000000  0.4556310000000  0.4964890000000 1.0
C      1  0.5217340000000  0.5184100000000  0.4770070000000 1.0
C      1  0.4788980000000  0.5346280000000  0.5378870000000 1.0
C      1  0.4817940000000  0.4576730000000  0.5261510000000 1.0
C      1  0.5382690000000  0.4712590000000  0.4486890000000 1.0
C      1  0.5502180000000  0.5102790000000  0.4741380000000 1.0
C      1  0.4900320000000  0.5313240000000  0.5094330000000 1.0
C      1  0.5284460000000  0.4877550000000  0.4279760000000 1.0
C      1  0.5186420000000  0.5211350000000  0.5065730000000 1.0
C      1  0.4693490000000  0.5527730000000  0.4733220000000 1.0
C      1  0.5298860000000  0.4472870000000  0.4630420000000 1.0
END
