TITL C-57376-8915-1 -134.465566252209 125000 -591.465546203193 0 0 84 (C1) n - 1
REM
REM in /rds/project/t2_vol4/rds-t2-cs072/BORA/CARBON/from-Arr/AIRSS/Generating-Clusters/GAP-ML-2020/Only-C1/SD-CG/HFTN-CG
REM
REM
REM
REM
REM
REM ./C.cell (11c1c37f851c82e70ff6c80c92926a4b)
REM AIRSS Version 0.9.1 bugfix July 2018 build 013d7b7c2542+ Fri, 06 Jul 2018 19:26:36 +0100
REM compiler GCC version 9.3.0
REM options -cpp -mtune=generic -march=x86-64 -g -O0
REM seed -828940441 -255032753 -1105496660 88242480 -2062316394 -1527754092 -1498078950 1412687424 957416516 -1145151126 73188693 160034658 1047710098 1497788475 -1669356527 -1101565265 -937291636 1215547871 13526576 -1846814067 -1629750153 1612474562 -252045915 -1688079186 -1090112568 1361505054 5554750 14095355 144312757 -1047885434 1484567340 1894473592 -308683027
REM
CELL 1.54180   50.00000   50.00000   50.00000   90.00000   90.00000   90.00000
LATT -1
SFAC C  
C      1  0.5791590000000  0.4946800000000  0.5353770000000 1.0
C      1  0.4767090000000  0.4598900000000  0.5124060000000 1.0
C      1  0.5253580000000  0.5149420000000  0.4810610000000 1.0
C      1  0.5757250000000  0.5132460000000  0.5160380000000 1.0
C      1  0.5215270000000  0.4553220000000  0.5581920000000 1.0
C      1  0.4957930000000  0.4757200000000  0.4261200000000 1.0
C      1  0.4944890000000  0.4619410000000  0.5619060000000 1.0
C      1  0.4298080000000  0.5021320000000  0.5379000000000 1.0
C      1  0.5421270000000  0.4762360000000  0.5591610000000 1.0
C      1  0.5733980000000  0.4552000000000  0.4953610000000 1.0
C      1  0.4772020000000  0.4484110000000  0.5406590000000 1.0
C      1  0.5181230000000  0.4413370000000  0.4561770000000 1.0
C      1  0.4695680000000  0.4414500000000  0.4895360000000 1.0
C      1  0.5697280000000  0.5236790000000  0.4575510000000 1.0
C      1  0.5853330000000  0.5050180000000  0.4892010000000 1.0
C      1  0.4825990000000  0.5628160000000  0.4587330000000 1.0
C      1  0.4864840000000  0.4865160000000  0.4787440000000 1.0
C      1  0.5110000000000  0.5674060000000  0.4637670000000 1.0
C      1  0.5116650000000  0.4945260000000  0.4677080000000 1.0
C      1  0.4375260000000  0.5131270000000  0.4909790000000 1.0
C      1  0.4250740000000  0.4965760000000  0.5103720000000 1.0
C      1  0.4314130000000  0.5407480000000  0.4875910000000 1.0
C      1  0.4470030000000  0.5531890000000  0.5346070000000 1.0
C      1  0.5503490000000  0.5298020000000  0.5185700000000 1.0
C      1  0.5583690000000  0.5010310000000  0.4421780000000 1.0
C      1  0.4564890000000  0.5788400000000  0.4919420000000 1.0
C      1  0.4791250000000  0.5885470000000  0.5032970000000 1.0
C      1  0.5652230000000  0.4722830000000  0.5424270000000 1.0
C      1  0.4685200000000  0.5114220000000  0.4845240000000 1.0
C      1  0.5086950000000  0.5066410000000  0.5765170000000 1.0
C      1  0.5451600000000  0.5511590000000  0.4964300000000 1.0
C      1  0.4470140000000  0.4708110000000  0.4570720000000 1.0
C      1  0.5015200000000  0.5339410000000  0.5740590000000 1.0
C      1  0.5585580000000  0.4372790000000  0.4786190000000 1.0
C      1  0.4553320000000  0.5223640000000  0.5695180000000 1.0
C      1  0.5214130000000  0.4335860000000  0.5386560000000 1.0
C      1  0.5038340000000  0.5342780000000  0.4879290000000 1.0
C      1  0.4882030000000  0.4861730000000  0.5752330000000 1.0
C      1  0.4950310000000  0.4535170000000  0.4447610000000 1.0
C      1  0.4380650000000  0.5465200000000  0.4600110000000 1.0
C      1  0.5348830000000  0.5066150000000  0.4263510000000 1.0
C      1  0.4831010000000  0.5332390000000  0.4642220000000 1.0
C      1  0.4994220000000  0.4745020000000  0.5024830000000 1.0
C      1  0.4565450000000  0.5704920000000  0.4630830000000 1.0
C      1  0.4612360000000  0.4947460000000  0.5709520000000 1.0
C      1  0.4411890000000  0.4389100000000  0.4927150000000 1.0
C      1  0.4845000000000  0.5225490000000  0.5069640000000 1.0
C      1  0.5145860000000  0.4247000000000  0.4808410000000 1.0
C      1  0.5359840000000  0.5062020000000  0.5058130000000 1.0
C      1  0.4402210000000  0.5231350000000  0.4448490000000 1.0
C      1  0.5473930000000  0.5390820000000  0.4686820000000 1.0
C      1  0.5180760000000  0.5294370000000  0.4318670000000 1.0
C      1  0.4957640000000  0.4286740000000  0.5275840000000 1.0
C      1  0.5020610000000  0.5775440000000  0.5133330000000 1.0
C      1  0.4307530000000  0.4493410000000  0.5180880000000 1.0
C      1  0.4484080000000  0.4561690000000  0.5399600000000 1.0
C      1  0.5396850000000  0.4233900000000  0.4941790000000 1.0
C      1  0.5281150000000  0.5499490000000  0.4494670000000 1.0
C      1  0.4190560000000  0.4703170000000  0.5025470000000 1.0
C      1  0.5207510000000  0.4841440000000  0.4205730000000 1.0
C      1  0.4921680000000  0.4244590000000  0.4982590000000 1.0
C      1  0.4778090000000  0.4981160000000  0.4303170000000 1.0
C      1  0.5183900000000  0.5628110000000  0.4930330000000 1.0
C      1  0.4506060000000  0.4972900000000  0.4410240000000 1.0
C      1  0.4720190000000  0.5605820000000  0.5490910000000 1.0
C      1  0.5779310000000  0.4782930000000  0.4796830000000 1.0
C      1  0.5436210000000  0.4315140000000  0.5216360000000 1.0
C      1  0.5335690000000  0.5037280000000  0.5630450000000 1.0
C      1  0.5646010000000  0.4512870000000  0.5225690000000 1.0
C      1  0.4737440000000  0.4598700000000  0.4647200000000 1.0
C      1  0.4382210000000  0.5284230000000  0.5474800000000 1.0
C      1  0.4435340000000  0.4815940000000  0.5526570000000 1.0
C      1  0.5622620000000  0.4761490000000  0.4553300000000 1.0
C      1  0.4293610000000  0.4604540000000  0.4765260000000 1.0
C      1  0.5178000000000  0.5479620000000  0.5548850000000 1.0
C      1  0.4750230000000  0.5420600000000  0.5708600000000 1.0
C      1  0.5467170000000  0.4507160000000  0.4564250000000 1.0
C      1  0.4407600000000  0.5599170000000  0.5069240000000 1.0
C      1  0.5946570000000  0.5230050000000  0.4702470000000 1.0
C      1  0.4909090000000  0.5224890000000  0.4374410000000 1.0
C      1  0.5387780000000  0.5296280000000  0.5470580000000 1.0
C      1  0.4934210000000  0.5064690000000  0.5267420000000 1.0
C      1  0.5151790000000  0.4913230000000  0.5184260000000 1.0
C      1  0.4994810000000  0.5664240000000  0.5401790000000 1.0
END
