TITL C-57530-5536-8 -14.8024278993064 125000 -116.569439943745 0 0 18 (C1) n - 1
REM
REM in /rds/project/t2_vol4/rds-t2-cs072/BORA/CARBON/from-Arr/AIRSS/Generating-Clusters/GAP-ML-2020/Only-C1/SD-CG/HFTN-CG
REM
REM
REM
REM
REM
REM ./C.cell (11c1c37f851c82e70ff6c80c92926a4b)
REM AIRSS Version 0.9.1 bugfix July 2018 build 013d7b7c2542+ Fri, 06 Jul 2018 19:26:36 +0100
REM compiler GCC version 9.3.0
REM options -cpp -mtune=generic -march=x86-64 -g -O0
REM seed 806319072 773909170 315738370 1771596672 326390238 -438474843 -1128316907 -202329512 692097574 2049264859 2130221621 571510748 1112551894 -1903199481 -1822738562 -1730877261 2015739655 -2002871325 1594501913 1215335891 1566843906 1269911373 -1714378537 198742705 732765725 2088891656 420924938 -1909511168 938246754 -1275826212 1678724518 1809179832 1348470488
REM
CELL 1.54180   50.00000   50.00000   50.00000   90.00000   90.00000   90.00000
LATT -1
SFAC C  
C      1  0.4659570000000  0.4401920000000  0.4820120000000 1.0
C      1  0.4979810000000  0.4821680000000  0.4798300000000 1.0
C      1  0.4822550000000  0.5377240000000  0.5211890000000 1.0
C      1  0.5528700000000  0.5198770000000  0.4932930000000 1.0
C      1  0.5459590000000  0.4959240000000  0.4853260000000 1.0
C      1  0.5207750000000  0.5523050000000  0.5003790000000 1.0
C      1  0.5253480000000  0.4819520000000  0.4816170000000 1.0
C      1  0.5014190000000  0.5543950000000  0.5208840000000 1.0
C      1  0.4997860000000  0.5295930000000  0.4705570000000 1.0
C      1  0.4808780000000  0.4606500000000  0.4801970000000 1.0
C      1  0.4674900000000  0.4681690000000  0.5346510000000 1.0
C      1  0.4867910000000  0.5088440000000  0.4835430000000 1.0
C      1  0.4918910000000  0.4245100000000  0.5244730000000 1.0
C      1  0.5116650000000  0.5524210000000  0.4716450000000 1.0
C      1  0.4740160000000  0.5137430000000  0.5093620000000 1.0
C      1  0.4791950000000  0.4443860000000  0.5338700000000 1.0
C      1  0.4691580000000  0.4905820000000  0.5241340000000 1.0
C      1  0.5465650000000  0.5425650000000  0.5030380000000 1.0
END
