TITL C-57359-9726-3 0.0252232420897902 125000 -773.751605029099 0 0 111 (C1) n - 1
REM
REM in /rds/project/t2_vol4/rds-t2-cs072/BORA/CARBON/from-Arr/AIRSS/Generating-Clusters/GAP-ML-2020/Only-C1/SD-CG/HFTN-CG
REM
REM
REM
REM
REM
REM ./C.cell (11c1c37f851c82e70ff6c80c92926a4b)
REM AIRSS Version 0.9.1 bugfix July 2018 build 013d7b7c2542+ Fri, 06 Jul 2018 19:26:36 +0100
REM compiler GCC version 9.3.0
REM options -cpp -mtune=generic -march=x86-64 -g -O0
REM seed 1365445469 -1915378704 1198350437 -357477461 -1855080807 -1920803404 1656697956 -1257930530 -1794127851 1790624520 -1162694786 -284837590 497990199 82526727 1510510991 -39622223 753758547 -499564270 94957428 -2130726941 -2058511003 -616178781 278718343 1162763023 2021440339 639074155 172708404 1319403553 -950184352 -1622859990 1829740838 -1869957492 310336634
REM
CELL 1.54180   50.00000   50.00000   50.00000   90.00000   90.00000   90.00000
LATT -1
SFAC C  
C      1  0.4331930000000  0.5504810000000  0.4806430000000 1.0
C      1  0.4985460000000  0.4739760000000  0.5102720000000 1.0
C      1  0.4529710000000  0.4341330000000  0.5162570000000 1.0
C      1  0.4466060000000  0.5714350000000  0.4985450000000 1.0
C      1  0.5743560000000  0.5085560000000  0.5199240000000 1.0
C      1  0.5526450000000  0.5434170000000  0.4400670000000 1.0
C      1  0.5541070000000  0.5182300000000  0.4264240000000 1.0
C      1  0.5614520000000  0.4972050000000  0.5706020000000 1.0
C      1  0.4950380000000  0.5865030000000  0.4739990000000 1.0
C      1  0.5676440000000  0.4734800000000  0.4403590000000 1.0
C      1  0.5144320000000  0.4562750000000  0.5276120000000 1.0
C      1  0.5070110000000  0.5217160000000  0.5282550000000 1.0
C      1  0.4367180000000  0.5208320000000  0.4411160000000 1.0
C      1  0.5222560000000  0.5490770000000  0.4908590000000 1.0
C      1  0.4575160000000  0.4394790000000  0.4486280000000 1.0
C      1  0.4784450000000  0.5309550000000  0.5004750000000 1.0
C      1  0.5665960000000  0.5322640000000  0.5368350000000 1.0
C      1  0.4799320000000  0.5142490000000  0.5246620000000 1.0
C      1  0.5099320000000  0.5615380000000  0.4644590000000 1.0
C      1  0.5671120000000  0.4620750000000  0.4659760000000 1.0
C      1  0.5533600000000  0.5563190000000  0.5311290000000 1.0
C      1  0.4771260000000  0.4200830000000  0.4557800000000 1.0
C      1  0.5610700000000  0.4625480000000  0.5135220000000 1.0
C      1  0.4537260000000  0.4548810000000  0.4943760000000 1.0
C      1  0.5799670000000  0.4812060000000  0.5556650000000 1.0
C      1  0.5445890000000  0.4584210000000  0.4308010000000 1.0
C      1  0.4929100000000  0.4820230000000  0.5870090000000 1.0
C      1  0.5114560000000  0.5280720000000  0.5829610000000 1.0
C      1  0.4901380000000  0.4720060000000  0.4613530000000 1.0
C      1  0.5285640000000  0.5127480000000  0.4142430000000 1.0
C      1  0.5357930000000  0.5393740000000  0.5714050000000 1.0
C      1  0.5258790000000  0.5536170000000  0.4393230000000 1.0
C      1  0.4388610000000  0.5612730000000  0.5255050000000 1.0
C      1  0.5396660000000  0.4418650000000  0.5094790000000 1.0
C      1  0.5393110000000  0.4505430000000  0.4613490000000 1.0
C      1  0.5013780000000  0.5486190000000  0.5119550000000 1.0
C      1  0.5757140000000  0.4728130000000  0.4898060000000 1.0
C      1  0.4886340000000  0.5425890000000  0.4583160000000 1.0
C      1  0.4423670000000  0.5110630000000  0.5630380000000 1.0
C      1  0.5475780000000  0.5663130000000  0.5027460000000 1.0
C      1  0.5334700000000  0.4709340000000  0.5475230000000 1.0
C      1  0.4503680000000  0.4834350000000  0.5027480000000 1.0
C      1  0.4645650000000  0.5126780000000  0.4319190000000 1.0
C      1  0.5163780000000  0.4033690000000  0.5143100000000 1.0
C      1  0.4862390000000  0.5420560000000  0.5787260000000 1.0
C      1  0.4283000000000  0.5004470000000  0.4594220000000 1.0
C      1  0.4702990000000  0.5863500000000  0.4912460000000 1.0
C      1  0.4580280000000  0.5354450000000  0.5681440000000 1.0
C      1  0.5801590000000  0.5009060000000  0.4910560000000 1.0
C      1  0.4478920000000  0.4825060000000  0.5679660000000 1.0
C      1  0.4154310000000  0.5330070000000  0.4977910000000 1.0
C      1  0.4755640000000  0.4983380000000  0.4610720000000 1.0
C      1  0.4512080000000  0.5010060000000  0.4775510000000 1.0
C      1  0.4687720000000  0.5010620000000  0.4045880000000 1.0
C      1  0.5462380000000  0.4885170000000  0.5232980000000 1.0
C      1  0.5001060000000  0.4444060000000  0.4234870000000 1.0
C      1  0.5575810000000  0.5237480000000  0.5628570000000 1.0
C      1  0.4727000000000  0.5755780000000  0.5510210000000 1.0
C      1  0.4742670000000  0.4879660000000  0.5189000000000 1.0
C      1  0.4315810000000  0.5446850000000  0.4528760000000 1.0
C      1  0.4085290000000  0.5055800000000  0.4959760000000 1.0
C      1  0.5490360000000  0.4463630000000  0.5567770000000 1.0
C      1  0.5380470000000  0.4161070000000  0.5267660000000 1.0
C      1  0.4782310000000  0.4564120000000  0.4383990000000 1.0
C      1  0.4224670000000  0.4929600000000  0.5187520000000 1.0
C      1  0.5366680000000  0.5619290000000  0.5537710000000 1.0
C      1  0.5210790000000  0.5164120000000  0.4853010000000 1.0
C      1  0.4073040000000  0.4877660000000  0.4727440000000 1.0
C      1  0.4258470000000  0.5148600000000  0.5394110000000 1.0
C      1  0.4850150000000  0.4570300000000  0.4871870000000 1.0
C      1  0.4519730000000  0.5281440000000  0.4885450000000 1.0
C      1  0.5009510000000  0.4332280000000  0.5464290000000 1.0
C      1  0.4861090000000  0.4210490000000  0.4830940000000 1.0
C      1  0.4220180000000  0.5388750000000  0.5249520000000 1.0
C      1  0.4729940000000  0.4686030000000  0.5748630000000 1.0
C      1  0.4513640000000  0.5585170000000  0.5512590000000 1.0
C      1  0.4763490000000  0.4441250000000  0.5589790000000 1.0
C      1  0.4524090000000  0.4417960000000  0.5438410000000 1.0
C      1  0.5117000000000  0.5345830000000  0.4232330000000 1.0
C      1  0.5339570000000  0.4315700000000  0.4824080000000 1.0
C      1  0.5319160000000  0.4248690000000  0.5531950000000 1.0
C      1  0.4850200000000  0.5338080000000  0.4321260000000 1.0
C      1  0.4884400000000  0.5975040000000  0.5111830000000 1.0
C      1  0.5222830000000  0.4615910000000  0.4144240000000 1.0
C      1  0.4345770000000  0.4629170000000  0.5514800000000 1.0
C      1  0.5319360000000  0.4995660000000  0.4666320000000 1.0
C      1  0.5705690000000  0.4569900000000  0.5433640000000 1.0
C      1  0.5119430000000  0.5994650000000  0.4943700000000 1.0
C      1  0.4891810000000  0.4919530000000  0.3929730000000 1.0
C      1  0.5940260000000  0.4951710000000  0.5376960000000 1.0
C      1  0.4941050000000  0.5755650000000  0.5293470000000 1.0
C      1  0.5155940000000  0.4883810000000  0.4045820000000 1.0
C      1  0.5134260000000  0.5765450000000  0.5527460000000 1.0
C      1  0.5675820000000  0.5593800000000  0.4834390000000 1.0
C      1  0.5135710000000  0.4993190000000  0.5848200000000 1.0
C      1  0.4922190000000  0.5682580000000  0.5702360000000 1.0
C      1  0.4165120000000  0.4621330000000  0.4722280000000 1.0
C      1  0.5355150000000  0.4864470000000  0.5723710000000 1.0
C      1  0.4990470000000  0.4211730000000  0.4375000000000 1.0
C      1  0.5795000000000  0.5147540000000  0.4659110000000 1.0
C      1  0.4168550000000  0.4689870000000  0.5324800000000 1.0
C      1  0.5208690000000  0.5009460000000  0.5118200000000 1.0
C      1  0.5726000000000  0.5013130000000  0.4411280000000 1.0
C      1  0.4918620000000  0.5198000000000  0.4762260000000 1.0
C      1  0.5199690000000  0.4752590000000  0.4622790000000 1.0
C      1  0.5366870000000  0.5949730000000  0.5030190000000 1.0
C      1  0.4394090000000  0.4481100000000  0.4688670000000 1.0
C      1  0.5699850000000  0.5421340000000  0.4635500000000 1.0
C      1  0.5136540000000  0.4123130000000  0.4873930000000 1.0
C      1  0.4927220000000  0.4104030000000  0.5284930000000 1.0
C      1  0.4726380000000  0.4153790000000  0.5092070000000 1.0
END
