TITL C-57554-5616-6 29.0921121192888 125000 -639.277368840605 0 0 94 (C1) n - 1
REM
REM in /rds/project/t2_vol4/rds-t2-cs072/BORA/CARBON/from-Arr/AIRSS/Generating-Clusters/GAP-ML-2020/Only-C1/SD-CG/HFTN-CG
REM
REM
REM
REM
REM
REM ./C.cell (11c1c37f851c82e70ff6c80c92926a4b)
REM AIRSS Version 0.9.1 bugfix July 2018 build 013d7b7c2542+ Fri, 06 Jul 2018 19:26:36 +0100
REM compiler GCC version 9.3.0
REM options -cpp -mtune=generic -march=x86-64 -g -O0
REM seed -1254014425 135239978 741045080 650308666 1037748631 1097903914 983999141 336601206 987088938 -1183882331 827654934 1364971881 -557236062 810316305 -2089830753 -1983766574 -1797528470 1961309782 -1626542942 -524349493 -1299703076 1007374783 -173783053 1243291978 -457640160 1604165276 -1310153630 525505873 -1022460509 1179984933 -997601816 1880914987 1212059634
REM
CELL 1.54180   50.00000   50.00000   50.00000   90.00000   90.00000   90.00000
LATT -1
SFAC C  
C      1  0.5292270000000  0.4798310000000  0.5503410000000 1.0
C      1  0.4083410000000  0.5086480000000  0.4758040000000 1.0
C      1  0.4587120000000  0.4956420000000  0.5387180000000 1.0
C      1  0.4929920000000  0.4351840000000  0.5442370000000 1.0
C      1  0.4886240000000  0.4908090000000  0.5966090000000 1.0
C      1  0.5713100000000  0.5158070000000  0.4506820000000 1.0
C      1  0.5479570000000  0.4441310000000  0.4680380000000 1.0
C      1  0.4191450000000  0.5336500000000  0.4668580000000 1.0
C      1  0.4844640000000  0.4795010000000  0.5415710000000 1.0
C      1  0.5405490000000  0.5216970000000  0.5129270000000 1.0
C      1  0.5627200000000  0.4485800000000  0.5587420000000 1.0
C      1  0.5401480000000  0.4837800000000  0.4393780000000 1.0
C      1  0.4928920000000  0.4721180000000  0.4957660000000 1.0
C      1  0.5141580000000  0.4449740000000  0.4123230000000 1.0
C      1  0.4878340000000  0.5578120000000  0.4584030000000 1.0
C      1  0.4579880000000  0.4952670000000  0.5680780000000 1.0
C      1  0.4834140000000  0.5699710000000  0.5463010000000 1.0
C      1  0.5191240000000  0.4401190000000  0.4683090000000 1.0
C      1  0.4776230000000  0.5213090000000  0.4318240000000 1.0
C      1  0.5642680000000  0.5601740000000  0.4758610000000 1.0
C      1  0.4900520000000  0.5690150000000  0.4852690000000 1.0
C      1  0.4013000000000  0.5294270000000  0.5215170000000 1.0
C      1  0.5455230000000  0.4875910000000  0.4858720000000 1.0
C      1  0.4651380000000  0.5235790000000  0.5291380000000 1.0
C      1  0.5816500000000  0.4883930000000  0.4594930000000 1.0
C      1  0.4466130000000  0.5696450000000  0.4787760000000 1.0
C      1  0.5488820000000  0.5184690000000  0.5638700000000 1.0
C      1  0.5379190000000  0.4406690000000  0.5658730000000 1.0
C      1  0.4461650000000  0.4804930000000  0.5151740000000 1.0
C      1  0.5363860000000  0.4672570000000  0.5233190000000 1.0
C      1  0.5380340000000  0.4316600000000  0.4906670000000 1.0
C      1  0.5191050000000  0.4641570000000  0.5733180000000 1.0
C      1  0.4495400000000  0.4276680000000  0.5289350000000 1.0
C      1  0.5741300000000  0.4716350000000  0.5499130000000 1.0
C      1  0.4935490000000  0.4317160000000  0.4540160000000 1.0
C      1  0.4187150000000  0.4839890000000  0.5057700000000 1.0
C      1  0.5161070000000  0.4882260000000  0.5912260000000 1.0
C      1  0.5446440000000  0.5353070000000  0.5410850000000 1.0
C      1  0.4033900000000  0.5082410000000  0.5054840000000 1.0
C      1  0.5136090000000  0.5075420000000  0.5170210000000 1.0
C      1  0.5221050000000  0.4288040000000  0.5425390000000 1.0
C      1  0.5257970000000  0.5143470000000  0.5815530000000 1.0
C      1  0.4839930000000  0.4572960000000  0.5200280000000 1.0
C      1  0.4739990000000  0.5165960000000  0.4868650000000 1.0
C      1  0.5363750000000  0.5583760000000  0.4685830000000 1.0
C      1  0.5776520000000  0.5343920000000  0.4726110000000 1.0
C      1  0.5475110000000  0.5129080000000  0.4368190000000 1.0
C      1  0.5995490000000  0.4929360000000  0.4786130000000 1.0
C      1  0.5014640000000  0.5243220000000  0.5670520000000 1.0
C      1  0.4483270000000  0.4740910000000  0.4686040000000 1.0
C      1  0.4713110000000  0.4723670000000  0.5823700000000 1.0
C      1  0.4543860000000  0.4467930000000  0.4809130000000 1.0
C      1  0.4552870000000  0.4513160000000  0.5117600000000 1.0
C      1  0.4778850000000  0.5126190000000  0.5814110000000 1.0
C      1  0.4517620000000  0.5111870000000  0.4342870000000 1.0
C      1  0.4664470000000  0.4887290000000  0.4902530000000 1.0
C      1  0.4549030000000  0.4822290000000  0.4407080000000 1.0
C      1  0.5456460000000  0.5730430000000  0.4935210000000 1.0
C      1  0.4664750000000  0.5773880000000  0.4979590000000 1.0
C      1  0.4857280000000  0.5273770000000  0.4613280000000 1.0
C      1  0.5285460000000  0.5582070000000  0.5416420000000 1.0
C      1  0.5244590000000  0.4693300000000  0.4180080000000 1.0
C      1  0.4212780000000  0.4830920000000  0.4768030000000 1.0
C      1  0.4904630000000  0.4590570000000  0.5640680000000 1.0
C      1  0.4644110000000  0.5705570000000  0.5270020000000 1.0
C      1  0.5061870000000  0.4663650000000  0.4714620000000 1.0
C      1  0.4475070000000  0.5470420000000  0.5284050000000 1.0
C      1  0.5354520000000  0.4373780000000  0.5181320000000 1.0
C      1  0.5273000000000  0.5679060000000  0.5146420000000 1.0
C      1  0.5071530000000  0.4988720000000  0.5440450000000 1.0
C      1  0.4905860000000  0.4449260000000  0.4289220000000 1.0
C      1  0.5132990000000  0.4885780000000  0.4539040000000 1.0
C      1  0.4403000000000  0.5346980000000  0.4473960000000 1.0
C      1  0.4773780000000  0.4707790000000  0.4275090000000 1.0
C      1  0.5015240000000  0.5164880000000  0.4196530000000 1.0
C      1  0.5639360000000  0.4790160000000  0.5232890000000 1.0
C      1  0.5060450000000  0.5506820000000  0.5008840000000 1.0
C      1  0.5561180000000  0.4922270000000  0.5584360000000 1.0
C      1  0.5624810000000  0.5022230000000  0.5055350000000 1.0
C      1  0.5208250000000  0.4823310000000  0.5022480000000 1.0
C      1  0.5003740000000  0.4889340000000  0.4255530000000 1.0
C      1  0.4888860000000  0.5249870000000  0.5101130000000 1.0
C      1  0.5861760000000  0.5137260000000  0.4918330000000 1.0
C      1  0.5034740000000  0.5544700000000  0.5564220000000 1.0
C      1  0.4222050000000  0.5468880000000  0.5149600000000 1.0
C      1  0.4694200000000  0.4292500000000  0.4675640000000 1.0
C      1  0.5231420000000  0.5297270000000  0.4358230000000 1.0
C      1  0.5171150000000  0.5568880000000  0.4468910000000 1.0
C      1  0.5129660000000  0.5173610000000  0.4635080000000 1.0
C      1  0.4689310000000  0.4182510000000  0.5430600000000 1.0
C      1  0.4240650000000  0.5541820000000  0.4868640000000 1.0
C      1  0.4567800000000  0.5587590000000  0.4540950000000 1.0
C      1  0.5565700000000  0.4719890000000  0.4612920000000 1.0
C      1  0.5261070000000  0.5340330000000  0.4857520000000 1.0
END
