TITL C-57639-9906-2 -2.18335807242679 125000 -363.437411239349 0 0 54 (C1) n - 1
REM
REM in /rds/project/t2_vol4/rds-t2-cs072/BORA/CARBON/from-Arr/AIRSS/Generating-Clusters/GAP-ML-2020/Only-C1/SD-CG/HFTN-CG
REM
REM
REM
REM
REM
REM ./C.cell (11c1c37f851c82e70ff6c80c92926a4b)
REM AIRSS Version 0.9.1 bugfix July 2018 build 013d7b7c2542+ Fri, 06 Jul 2018 19:26:36 +0100
REM compiler GCC version 9.3.0
REM options -cpp -mtune=generic -march=x86-64 -g -O0
REM seed 1094929165 1541720805 -2058456058 570024462 359752930 -1201986629 -775396987 -1188387415 950707217 -175016297 466709375 -861656982 87217630 230464693 -2131305914 -260208616 -746589701 2022279418 1502375102 -1777028498 -539051299 -891882685 -1392693833 655899248 -1487508931 -871279675 -453344629 504295395 2047782228 -562511895 -553364063 1081388122 1999202724
REM
CELL 1.54180   50.00000   50.00000   50.00000   90.00000   90.00000   90.00000
LATT -1
SFAC C  
C      1  0.5102750000000  0.5301070000000  0.5581950000000 1.0
C      1  0.5001490000000  0.5065390000000  0.5703780000000 1.0
C      1  0.5249210000000  0.5246760000000  0.5157870000000 1.0
C      1  0.4664360000000  0.4580490000000  0.5365640000000 1.0
C      1  0.4899260000000  0.4852450000000  0.4444040000000 1.0
C      1  0.4619990000000  0.5185040000000  0.4654760000000 1.0
C      1  0.5297250000000  0.5374180000000  0.4428270000000 1.0
C      1  0.5037950000000  0.5544440000000  0.4726830000000 1.0
C      1  0.5783420000000  0.4980370000000  0.4738850000000 1.0
C      1  0.4418880000000  0.5240410000000  0.5315520000000 1.0
C      1  0.5391780000000  0.5207480000000  0.4913640000000 1.0
C      1  0.4860400000000  0.5622250000000  0.5230010000000 1.0
C      1  0.4385940000000  0.5282200000000  0.5041580000000 1.0
C      1  0.5322930000000  0.5570670000000  0.4654190000000 1.0
C      1  0.4382600000000  0.4955850000000  0.5374200000000 1.0
C      1  0.4773370000000  0.4973270000000  0.5080080000000 1.0
C      1  0.5518250000000  0.4753920000000  0.5273660000000 1.0
C      1  0.5353890000000  0.4610640000000  0.5080530000000 1.0
C      1  0.5215770000000  0.4614640000000  0.4629200000000 1.0
C      1  0.4852390000000  0.5488160000000  0.4961030000000 1.0
C      1  0.4588120000000  0.5384910000000  0.4860090000000 1.0
C      1  0.4984520000000  0.5197940000000  0.5030460000000 1.0
C      1  0.5532370000000  0.5424960000000  0.4787200000000 1.0
C      1  0.4292940000000  0.5027700000000  0.4924920000000 1.0
C      1  0.4611170000000  0.4652970000000  0.4771320000000 1.0
C      1  0.5592490000000  0.4789040000000  0.4646060000000 1.0
C      1  0.5439030000000  0.4903960000000  0.4420790000000 1.0
C      1  0.5316480000000  0.5197810000000  0.5421580000000 1.0
C      1  0.5509240000000  0.5181680000000  0.4412020000000 1.0
C      1  0.5045250000000  0.5293990000000  0.4543910000000 1.0
C      1  0.4704950000000  0.4647570000000  0.4503200000000 1.0
C      1  0.4645870000000  0.5307880000000  0.5489030000000 1.0
C      1  0.4950970000000  0.4509370000000  0.5378270000000 1.0
C      1  0.4877570000000  0.5475340000000  0.5460140000000 1.0
C      1  0.5073810000000  0.4566680000000  0.5126460000000 1.0
C      1  0.5046220000000  0.4836330000000  0.4737070000000 1.0
C      1  0.5180430000000  0.4825290000000  0.5651160000000 1.0
C      1  0.5767280000000  0.4824600000000  0.5175310000000 1.0
C      1  0.5688260000000  0.5238040000000  0.4630050000000 1.0
C      1  0.5137340000000  0.5116800000000  0.4778000000000 1.0
C      1  0.4431850000000  0.4512400000000  0.5222230000000 1.0
C      1  0.4230720000000  0.4745360000000  0.5282810000000 1.0
C      1  0.5382940000000  0.4920610000000  0.5476880000000 1.0
C      1  0.4747780000000  0.5059660000000  0.5590540000000 1.0
C      1  0.5191320000000  0.4770210000000  0.4386760000000 1.0
C      1  0.5900180000000  0.4927410000000  0.4984980000000 1.0
C      1  0.5434830000000  0.4608290000000  0.4801120000000 1.0
C      1  0.4380780000000  0.4551630000000  0.4932650000000 1.0
C      1  0.5091160000000  0.4570820000000  0.5608030000000 1.0
C      1  0.4548470000000  0.4962370000000  0.4825810000000 1.0
C      1  0.4662320000000  0.4877630000000  0.5370800000000 1.0
C      1  0.4890020000000  0.4721170000000  0.4951960000000 1.0
C      1  0.4814500000000  0.5138990000000  0.4457310000000 1.0
C      1  0.4176950000000  0.4780880000000  0.5005420000000 1.0
END
