TITL C-57636-624-4 -192.34555595184 125000 -461.354086604183 0 0 65 (C1) n - 1
REM
REM in /rds/project/t2_vol4/rds-t2-cs072/BORA/CARBON/from-Arr/AIRSS/Generating-Clusters/GAP-ML-2020/Only-C1/SD-CG/HFTN-CG
REM
REM
REM
REM
REM
REM ./C.cell (11c1c37f851c82e70ff6c80c92926a4b)
REM AIRSS Version 0.9.1 bugfix July 2018 build 013d7b7c2542+ Fri, 06 Jul 2018 19:26:36 +0100
REM compiler GCC version 9.3.0
REM options -cpp -mtune=generic -march=x86-64 -g -O0
REM seed 121576772 200617371 -673800102 -839313765 -635729126 -1407542674 1992608437 -716416494 1798491596 1690460450 -944047985 -2142799081 1972250743 -1331555082 -560365934 1376966379 584867178 1285705603 1972432271 -1908701380 98920835 -496999220 1698179359 1700133184 2081171373 519187746 1526631721 937829268 -1589359812 1240396750 -807689534 1118226998 1487640500
REM
CELL 1.54180   50.00000   50.00000   50.00000   90.00000   90.00000   90.00000
LATT -1
SFAC C  
C      1  0.5363550000000  0.4822540000000  0.4441440000000 1.0
C      1  0.4811990000000  0.5043070000000  0.4347110000000 1.0
C      1  0.4754380000000  0.4913900000000  0.5269150000000 1.0
C      1  0.5677230000000  0.5234040000000  0.4651070000000 1.0
C      1  0.5702510000000  0.4791200000000  0.5231180000000 1.0
C      1  0.5319660000000  0.5334560000000  0.5515420000000 1.0
C      1  0.5302500000000  0.5510690000000  0.4579190000000 1.0
C      1  0.4866150000000  0.4392790000000  0.5158830000000 1.0
C      1  0.5146090000000  0.4363290000000  0.5101100000000 1.0
C      1  0.4957060000000  0.5044680000000  0.4814130000000 1.0
C      1  0.5560230000000  0.4567860000000  0.5122580000000 1.0
C      1  0.5420480000000  0.5579670000000  0.4844050000000 1.0
C      1  0.5270740000000  0.5077200000000  0.5648150000000 1.0
C      1  0.4800930000000  0.4491990000000  0.5413340000000 1.0
C      1  0.5675350000000  0.4841010000000  0.5504490000000 1.0
C      1  0.4697930000000  0.4431240000000  0.4930090000000 1.0
C      1  0.5247600000000  0.4409420000000  0.4833250000000 1.0
C      1  0.4577080000000  0.4875850000000  0.5044580000000 1.0
C      1  0.4630300000000  0.5575700000000  0.4947670000000 1.0
C      1  0.4185520000000  0.4952960000000  0.4908630000000 1.0
C      1  0.5133410000000  0.4662400000000  0.4420220000000 1.0
C      1  0.5077400000000  0.4460580000000  0.4617930000000 1.0
C      1  0.4460220000000  0.4792310000000  0.4534750000000 1.0
C      1  0.4305820000000  0.4917090000000  0.5169010000000 1.0
C      1  0.4643680000000  0.5315990000000  0.5060540000000 1.0
C      1  0.4993580000000  0.5055620000000  0.5681720000000 1.0
C      1  0.4797560000000  0.4451050000000  0.4666180000000 1.0
C      1  0.5658370000000  0.5420980000000  0.4863430000000 1.0
C      1  0.4354140000000  0.4891890000000  0.5444130000000 1.0
C      1  0.5421810000000  0.4829310000000  0.5602080000000 1.0
C      1  0.5276750000000  0.4579860000000  0.5531800000000 1.0
C      1  0.4434920000000  0.5155080000000  0.5525300000000 1.0
C      1  0.5039320000000  0.5205440000000  0.4337660000000 1.0
C      1  0.4683620000000  0.5092290000000  0.4855010000000 1.0
C      1  0.4781210000000  0.5565520000000  0.4502450000000 1.0
C      1  0.4678370000000  0.4625360000000  0.4477540000000 1.0
C      1  0.5306350000000  0.5092630000000  0.4359820000000 1.0
C      1  0.5070150000000  0.5471140000000  0.5484300000000 1.0
C      1  0.5554900000000  0.4759570000000  0.4654350000000 1.0
C      1  0.5346000000000  0.4458490000000  0.5278950000000 1.0
C      1  0.5062220000000  0.5624500000000  0.5234940000000 1.0
C      1  0.5492110000000  0.4555010000000  0.4845490000000 1.0
C      1  0.4193980000000  0.5192530000000  0.4771290000000 1.0
C      1  0.4570390000000  0.5072080000000  0.4534990000000 1.0
C      1  0.5685420000000  0.5289010000000  0.5114410000000 1.0
C      1  0.4483130000000  0.4608850000000  0.4952500000000 1.0
C      1  0.5711080000000  0.4972590000000  0.4762780000000 1.0
C      1  0.5329440000000  0.5601500000000  0.5123410000000 1.0
C      1  0.4850160000000  0.5295630000000  0.5571180000000 1.0
C      1  0.5041600000000  0.4888800000000  0.5227920000000 1.0
C      1  0.5034560000000  0.5473950000000  0.4456310000000 1.0
C      1  0.5744220000000  0.5006830000000  0.5049080000000 1.0
C      1  0.5120900000000  0.5011310000000  0.5006190000000 1.0
C      1  0.5487880000000  0.5421120000000  0.5291380000000 1.0
C      1  0.4643750000000  0.4747250000000  0.5482460000000 1.0
C      1  0.4566840000000  0.5325890000000  0.5678650000000 1.0
C      1  0.5465050000000  0.5293430000000  0.4476940000000 1.0
C      1  0.4834170000000  0.5663890000000  0.5092950000000 1.0
C      1  0.4388470000000  0.5296960000000  0.4603020000000 1.0
C      1  0.4880970000000  0.4769990000000  0.4339200000000 1.0
C      1  0.4860090000000  0.4807930000000  0.5680280000000 1.0
C      1  0.5006330000000  0.4575480000000  0.5592560000000 1.0
C      1  0.4570700000000  0.5532930000000  0.4661420000000 1.0
C      1  0.4689160000000  0.5197530000000  0.5322620000000 1.0
C      1  0.4302520000000  0.4718760000000  0.4755410000000 1.0
END
