TITL C-57361-9000-5 -25.704790906145 125000 -413.41212100111 0 0 61 (C1) n - 1
REM
REM in /rds/project/t2_vol4/rds-t2-cs072/BORA/CARBON/from-Arr/AIRSS/Generating-Clusters/GAP-ML-2020/Only-C1/SD-CG/HFTN-CG
REM
REM
REM
REM
REM
REM ./C.cell (11c1c37f851c82e70ff6c80c92926a4b)
REM AIRSS Version 0.9.1 bugfix July 2018 build 013d7b7c2542+ Fri, 06 Jul 2018 19:26:36 +0100
REM compiler GCC version 9.3.0
REM options -cpp -mtune=generic -march=x86-64 -g -O0
REM seed 1613018770 -95816586 -873162717 1360498170 -385085234 -773440097 -1603418644 -1314335876 945186398 -271234172 -520923871 -2142905335 1157448949 1851892425 164350211 1989065576 -95568780 -1194825133 -649774146 -1673364318 -1222252204 571713103 -2055831597 -2081041812 -62031438 -144982568 1512534468 668059391 -884284662 1294197059 60897807 -830181363 -1096337448
REM
CELL 1.54180   50.00000   50.00000   50.00000   90.00000   90.00000   90.00000
LATT -1
SFAC C  
C      1  0.4456910000000  0.5340250000000  0.5444390000000 1.0
C      1  0.5206490000000  0.4375260000000  0.5295020000000 1.0
C      1  0.4784410000000  0.5021610000000  0.4754140000000 1.0
C      1  0.5626620000000  0.5532270000000  0.5407430000000 1.0
C      1  0.4672810000000  0.5530760000000  0.5442290000000 1.0
C      1  0.5086990000000  0.4592980000000  0.4463510000000 1.0
C      1  0.5376490000000  0.5552780000000  0.5301870000000 1.0
C      1  0.5634310000000  0.5358080000000  0.4977280000000 1.0
C      1  0.5680270000000  0.4868600000000  0.4904660000000 1.0
C      1  0.5648950000000  0.4825980000000  0.5194450000000 1.0
C      1  0.4490080000000  0.4493960000000  0.4853550000000 1.0
C      1  0.5141300000000  0.5396580000000  0.5398960000000 1.0
C      1  0.4923310000000  0.4333460000000  0.4875680000000 1.0
C      1  0.4854390000000  0.5442410000000  0.4969020000000 1.0
C      1  0.4495880000000  0.5388540000000  0.4675730000000 1.0
C      1  0.5002640000000  0.4803480000000  0.4290230000000 1.0
C      1  0.4447550000000  0.5058110000000  0.5078750000000 1.0
C      1  0.5265630000000  0.4523470000000  0.4886960000000 1.0
C      1  0.4905380000000  0.5413010000000  0.4492130000000 1.0
C      1  0.5227730000000  0.5098170000000  0.5323930000000 1.0
C      1  0.5059510000000  0.5388760000000  0.5687320000000 1.0
C      1  0.5135730000000  0.4749540000000  0.5045250000000 1.0
C      1  0.5533960000000  0.5054990000000  0.4560860000000 1.0
C      1  0.4631280000000  0.5234660000000  0.4900260000000 1.0
C      1  0.5537770000000  0.4778050000000  0.4656710000000 1.0
C      1  0.4860110000000  0.5203000000000  0.4301270000000 1.0
C      1  0.4597930000000  0.4852670000000  0.4535870000000 1.0
C      1  0.5044520000000  0.4628550000000  0.5310120000000 1.0
C      1  0.5467960000000  0.4377340000000  0.5383680000000 1.0
C      1  0.5377710000000  0.5482610000000  0.5012410000000 1.0
C      1  0.5667110000000  0.5142380000000  0.4803580000000 1.0
C      1  0.5119680000000  0.5063300000000  0.4265720000000 1.0
C      1  0.5604530000000  0.4576920000000  0.5301580000000 1.0
C      1  0.4757240000000  0.4585880000000  0.5245900000000 1.0
C      1  0.4639070000000  0.5175800000000  0.5622150000000 1.0
C      1  0.5142790000000  0.5338990000000  0.4898350000000 1.0
C      1  0.4342960000000  0.5243780000000  0.4514230000000 1.0
C      1  0.5329780000000  0.4587570000000  0.4619190000000 1.0
C      1  0.5686980000000  0.5302570000000  0.5266600000000 1.0
C      1  0.5131330000000  0.5174690000000  0.5864060000000 1.0
C      1  0.5309600000000  0.5180170000000  0.4439030000000 1.0
C      1  0.4885200000000  0.5504560000000  0.5254310000000 1.0
C      1  0.4786980000000  0.5416810000000  0.5691070000000 1.0
C      1  0.4298680000000  0.5229770000000  0.5268960000000 1.0
C      1  0.4736640000000  0.5536890000000  0.4685660000000 1.0
C      1  0.5132340000000  0.4939270000000  0.5770590000000 1.0
C      1  0.5051990000000  0.4887280000000  0.5489400000000 1.0
C      1  0.5157800000000  0.5354430000000  0.4603690000000 1.0
C      1  0.4743050000000  0.4932910000000  0.4303990000000 1.0
C      1  0.5538680000000  0.5059700000000  0.5319200000000 1.0
C      1  0.4623390000000  0.4569580000000  0.4609910000000 1.0
C      1  0.4681990000000  0.4882790000000  0.5212540000000 1.0
C      1  0.4268680000000  0.4635250000000  0.4907370000000 1.0
C      1  0.4697460000000  0.4410040000000  0.5035410000000 1.0
C      1  0.4879750000000  0.4455530000000  0.4611210000000 1.0
C      1  0.4289610000000  0.4903710000000  0.4873020000000 1.0
C      1  0.4894970000000  0.4903370000000  0.4985740000000 1.0
C      1  0.4777010000000  0.4984600000000  0.5460650000000 1.0
C      1  0.4340730000000  0.4976930000000  0.4593470000000 1.0
C      1  0.5147220000000  0.5051910000000  0.5048120000000 1.0
C      1  0.5162130000000  0.4292730000000  0.5011560000000 1.0
END
