TITL C-57381-9011-6 -0.0137364852712687 125000 -548.348454492861 0 0 78 (C1) n - 1
REM
REM in /rds/project/t2_vol4/rds-t2-cs072/BORA/CARBON/from-Arr/AIRSS/Generating-Clusters/GAP-ML-2020/Only-C1/SD-CG/HFTN-CG
REM
REM
REM
REM
REM
REM ./C.cell (11c1c37f851c82e70ff6c80c92926a4b)
REM AIRSS Version 0.9.1 bugfix July 2018 build 013d7b7c2542+ Fri, 06 Jul 2018 19:26:36 +0100
REM compiler GCC version 9.3.0
REM options -cpp -mtune=generic -march=x86-64 -g -O0
REM seed 466066591 131444628 -743452231 2020312014 -410006807 -1717032954 1180011222 1099668916 -1756421208 2057886804 -1555244330 -1522110830 -1298874313 -474295549 -164336128 1439385994 772426207 -63106261 383005815 819312824 -1837863382 -1767472367 1110060739 2137420627 1058614033 1596092929 1624577541 -926699896 1706860970 -546345879 -1500761806 1476192817 836221491
REM
CELL 1.54180   50.00000   50.00000   50.00000   90.00000   90.00000   90.00000
LATT -1
SFAC C  
C      1  0.5461800000000  0.4674210000000  0.4417770000000 1.0
C      1  0.4347900000000  0.4851870000000  0.4767670000000 1.0
C      1  0.4957140000000  0.4474600000000  0.5468480000000 1.0
C      1  0.4363440000000  0.4762880000000  0.5371740000000 1.0
C      1  0.4688020000000  0.4497000000000  0.5538980000000 1.0
C      1  0.4458300000000  0.5418000000000  0.4687760000000 1.0
C      1  0.4838940000000  0.5488270000000  0.5477090000000 1.0
C      1  0.5013770000000  0.4774370000000  0.5058610000000 1.0
C      1  0.5203850000000  0.5178340000000  0.5244830000000 1.0
C      1  0.5245910000000  0.5205550000000  0.4972520000000 1.0
C      1  0.5540130000000  0.5430470000000  0.5518020000000 1.0
C      1  0.5533640000000  0.5546520000000  0.5261940000000 1.0
C      1  0.4834540000000  0.4351550000000  0.4528170000000 1.0
C      1  0.5106940000000  0.5592110000000  0.5492190000000 1.0
C      1  0.5709340000000  0.5113090000000  0.5245530000000 1.0
C      1  0.5335070000000  0.4907120000000  0.4295790000000 1.0
C      1  0.5441510000000  0.4995160000000  0.5643780000000 1.0
C      1  0.5540340000000  0.4499620000000  0.4791250000000 1.0
C      1  0.5405690000000  0.4974230000000  0.4878810000000 1.0
C      1  0.4674300000000  0.4719070000000  0.5715220000000 1.0
C      1  0.5234100000000  0.5181190000000  0.5744630000000 1.0
C      1  0.4497660000000  0.5163540000000  0.5604080000000 1.0
C      1  0.4257010000000  0.4991230000000  0.5235170000000 1.0
C      1  0.5259120000000  0.5670620000000  0.5251160000000 1.0
C      1  0.5019060000000  0.5295420000000  0.4802560000000 1.0
C      1  0.5294850000000  0.5443900000000  0.5654080000000 1.0
C      1  0.5286340000000  0.5658220000000  0.4771690000000 1.0
C      1  0.4662160000000  0.5242650000000  0.4258110000000 1.0
C      1  0.4253720000000  0.5045740000000  0.4954840000000 1.0
C      1  0.4751090000000  0.4195940000000  0.4891570000000 1.0
C      1  0.4658060000000  0.4442020000000  0.5052140000000 1.0
C      1  0.5123840000000  0.4648930000000  0.5623560000000 1.0
C      1  0.4864220000000  0.5539580000000  0.4956660000000 1.0
C      1  0.5009620000000  0.4990040000000  0.5272910000000 1.0
C      1  0.4692130000000  0.5583640000000  0.4708760000000 1.0
C      1  0.4717700000000  0.5443900000000  0.5202360000000 1.0
C      1  0.4424310000000  0.5414720000000  0.5184720000000 1.0
C      1  0.5691340000000  0.5357280000000  0.5090840000000 1.0
C      1  0.5445360000000  0.4452500000000  0.5061410000000 1.0
C      1  0.4850400000000  0.5070820000000  0.4723360000000 1.0
C      1  0.5631500000000  0.5162780000000  0.5511990000000 1.0
C      1  0.5072660000000  0.4182930000000  0.4858120000000 1.0
C      1  0.4863640000000  0.5574580000000  0.4472240000000 1.0
C      1  0.4754500000000  0.5280750000000  0.5659340000000 1.0
C      1  0.4405070000000  0.4954590000000  0.4510120000000 1.0
C      1  0.5185180000000  0.4787150000000  0.4821540000000 1.0
C      1  0.5187410000000  0.4324110000000  0.5061430000000 1.0
C      1  0.5644900000000  0.4738760000000  0.4629960000000 1.0
C      1  0.4767260000000  0.5492040000000  0.4227960000000 1.0
C      1  0.5121540000000  0.4295220000000  0.4596920000000 1.0
C      1  0.4333320000000  0.5325980000000  0.4923740000000 1.0
C      1  0.5606570000000  0.5046880000000  0.4668710000000 1.0
C      1  0.4754120000000  0.4927380000000  0.4957070000000 1.0
C      1  0.4585240000000  0.4678170000000  0.4842000000000 1.0
C      1  0.5362450000000  0.4434360000000  0.4554680000000 1.0
C      1  0.4334880000000  0.5229790000000  0.5379720000000 1.0
C      1  0.4748310000000  0.5085840000000  0.5202550000000 1.0
C      1  0.5127700000000  0.5487380000000  0.4577730000000 1.0
C      1  0.4782610000000  0.4975970000000  0.4227600000000 1.0
C      1  0.5528990000000  0.5520340000000  0.4684030000000 1.0
C      1  0.5052670000000  0.4900270000000  0.4309030000000 1.0
C      1  0.4603690000000  0.4807640000000  0.4374200000000 1.0
C      1  0.4446380000000  0.5232020000000  0.4459510000000 1.0
C      1  0.4512350000000  0.4517090000000  0.5308930000000 1.0
C      1  0.5493950000000  0.4664420000000  0.5265820000000 1.0
C      1  0.5387630000000  0.5399980000000  0.4459770000000 1.0
C      1  0.4744540000000  0.4636640000000  0.4576780000000 1.0
C      1  0.5594670000000  0.4885440000000  0.5124770000000 1.0
C      1  0.4471250000000  0.4879660000000  0.5618090000000 1.0
C      1  0.5476750000000  0.5135310000000  0.4414880000000 1.0
C      1  0.5383860000000  0.4732700000000  0.5536910000000 1.0
C      1  0.5691920000000  0.5325830000000  0.4809980000000 1.0
C      1  0.4961220000000  0.4485210000000  0.5171550000000 1.0
C      1  0.4989910000000  0.4835840000000  0.4594460000000 1.0
C      1  0.5129610000000  0.5692240000000  0.5004370000000 1.0
C      1  0.4936010000000  0.4822440000000  0.5763630000000 1.0
C      1  0.4965600000000  0.5106990000000  0.5775580000000 1.0
C      1  0.4667450000000  0.4149380000000  0.4643490000000 1.0
END
