TITL C-58682-4071-27 24.1964102676593 125000 -1201.28548790938 0 0 168 (C1) n - 1
REM
REM in /rds/project/t2_vol4/rds-t2-cs072/BORA/CARBON/from-Arr/AIRSS/Generating-Clusters/GAP-ML-2020/Only-C1/SD-CG/HFTN-CG/C160-200
REM
REM
REM
REM
REM
REM ./C.cell (f2ad243b7eb7c0cd63fb1bbaf7e03044)
REM AIRSS Version 0.9.1 bugfix July 2018 build 013d7b7c2542+ Fri, 06 Jul 2018 19:26:36 +0100
REM compiler GCC version 9.3.0
REM options -cpp -mtune=generic -march=x86-64 -g -O0
REM seed 447943279 -2024208465 1417900114 -64766788 1936464041 -1456177636 -1012188707 749155238 683221489 972573796 -496627461 -231162586 383189581 614282495 1668247059 2022150206 1409764239 -918347151 -1096319178 -988632855 -1843045476 1722345374 -1463386214 1016455178 2097863273 1540794956 -1138363610 1781781160 -1377254368 807922992 -1851790323 -344578498 -255666311
REM
CELL 1.54180   50.00000   50.00000   50.00000   90.00000   90.00000   90.00000
LATT -1
SFAC C  
C      1  0.5120780000000  0.4567330000000  0.3949810000000 1.0
C      1  0.4771650000000  0.5989840000000  0.5467710000000 1.0
C      1  0.4594860000000  0.5458590000000  0.5936550000000 1.0
C      1  0.4114960000000  0.5319730000000  0.4667650000000 1.0
C      1  0.4940440000000  0.5473820000000  0.4009140000000 1.0
C      1  0.4393850000000  0.4533320000000  0.5812000000000 1.0
C      1  0.4950180000000  0.6030320000000  0.5025440000000 1.0
C      1  0.4873590000000  0.5605250000000  0.5149650000000 1.0
C      1  0.5610480000000  0.5727650000000  0.5443910000000 1.0
C      1  0.5503470000000  0.5767510000000  0.4519200000000 1.0
C      1  0.4719560000000  0.4453720000000  0.5143810000000 1.0
C      1  0.5071630000000  0.4789180000000  0.4481320000000 1.0
C      1  0.4929400000000  0.6035750000000  0.4746700000000 1.0
C      1  0.4286600000000  0.5460380000000  0.5561020000000 1.0
C      1  0.4983240000000  0.5209440000000  0.3912660000000 1.0
C      1  0.4271650000000  0.4420320000000  0.5342260000000 1.0
C      1  0.5711460000000  0.5522190000000  0.5620650000000 1.0
C      1  0.5316980000000  0.4694190000000  0.6044050000000 1.0
C      1  0.4880380000000  0.4561150000000  0.6014250000000 1.0
C      1  0.5040030000000  0.5564890000000  0.5828750000000 1.0
C      1  0.4721040000000  0.5089190000000  0.3896910000000 1.0
C      1  0.4411700000000  0.4349690000000  0.5591320000000 1.0
C      1  0.5827600000000  0.4472720000000  0.4611350000000 1.0
C      1  0.4548040000000  0.4947570000000  0.5495250000000 1.0
C      1  0.4593400000000  0.4904540000000  0.4559280000000 1.0
C      1  0.5393490000000  0.5852640000000  0.5576070000000 1.0
C      1  0.5957900000000  0.5206950000000  0.4661050000000 1.0
C      1  0.5142410000000  0.4006150000000  0.5089330000000 1.0
C      1  0.5647610000000  0.5028600000000  0.5893140000000 1.0
C      1  0.5482510000000  0.5194970000000  0.4098350000000 1.0
C      1  0.4466590000000  0.5768860000000  0.4671860000000 1.0
C      1  0.5635010000000  0.4977860000000  0.4810450000000 1.0
C      1  0.5561450000000  0.4753310000000  0.5916960000000 1.0
C      1  0.4008650000000  0.5076060000000  0.5538670000000 1.0
C      1  0.4384150000000  0.5632240000000  0.4432140000000 1.0
C      1  0.5645740000000  0.4605350000000  0.5688420000000 1.0
C      1  0.5925310000000  0.4963640000000  0.4839370000000 1.0
C      1  0.5068370000000  0.3866350000000  0.4552420000000 1.0
C      1  0.4776230000000  0.5164490000000  0.4573730000000 1.0
C      1  0.5897530000000  0.5280920000000  0.5236020000000 1.0
C      1  0.4089780000000  0.5305780000000  0.5416860000000 1.0
C      1  0.4491980000000  0.4753560000000  0.4120560000000 1.0
C      1  0.5313450000000  0.5691180000000  0.5804030000000 1.0
C      1  0.4063740000000  0.4817850000000  0.5598160000000 1.0
C      1  0.5069620000000  0.5013190000000  0.4268250000000 1.0
C      1  0.5956740000000  0.5022220000000  0.5131480000000 1.0
C      1  0.5233100000000  0.5052060000000  0.4016510000000 1.0
C      1  0.5055130000000  0.5574690000000  0.4275710000000 1.0
C      1  0.4061300000000  0.4801980000000  0.4659830000000 1.0
C      1  0.4659970000000  0.5513270000000  0.4027840000000 1.0
C      1  0.4617670000000  0.5046930000000  0.5022750000000 1.0
C      1  0.5874650000000  0.5461590000000  0.4778280000000 1.0
C      1  0.5085130000000  0.5070250000000  0.4981940000000 1.0
C      1  0.4995410000000  0.4729030000000  0.5452570000000 1.0
C      1  0.5281740000000  0.5241760000000  0.4620000000000 1.0
C      1  0.5287780000000  0.3983910000000  0.4400260000000 1.0
C      1  0.5174910000000  0.6084030000000  0.4634220000000 1.0
C      1  0.5392580000000  0.5938210000000  0.4719350000000 1.0
C      1  0.5643370000000  0.4165500000000  0.4961290000000 1.0
C      1  0.5214170000000  0.4327800000000  0.5712850000000 1.0
C      1  0.4040790000000  0.4623440000000  0.4887440000000 1.0
C      1  0.5428140000000  0.5904190000000  0.5004930000000 1.0
C      1  0.4872000000000  0.5390070000000  0.5326030000000 1.0
C      1  0.5103990000000  0.4104460000000  0.4215220000000 1.0
C      1  0.4682930000000  0.4139180000000  0.4526050000000 1.0
C      1  0.4618430000000  0.5811920000000  0.5626020000000 1.0
C      1  0.4671330000000  0.5020880000000  0.6038870000000 1.0
C      1  0.4690790000000  0.4026310000000  0.4800960000000 1.0
C      1  0.4530280000000  0.4657640000000  0.4404230000000 1.0
C      1  0.5430850000000  0.4461810000000  0.4371510000000 1.0
C      1  0.4273760000000  0.4925380000000  0.4202210000000 1.0
C      1  0.5778720000000  0.5467830000000  0.4319740000000 1.0
C      1  0.4732360000000  0.5886070000000  0.4601530000000 1.0
C      1  0.5812280000000  0.5493350000000  0.5054850000000 1.0
C      1  0.5049400000000  0.5363650000000  0.5554630000000 1.0
C      1  0.4950450000000  0.4060300000000  0.5289800000000 1.0
C      1  0.4657420000000  0.4439380000000  0.5897690000000 1.0
C      1  0.5004880000000  0.5097640000000  0.5654840000000 1.0
C      1  0.5413650000000  0.4220560000000  0.4545270000000 1.0
C      1  0.4968350000000  0.4250240000000  0.5526600000000 1.0
C      1  0.4520560000000  0.5270250000000  0.4003300000000 1.0
C      1  0.4708930000000  0.4437290000000  0.4537210000000 1.0
C      1  0.4951810000000  0.4944900000000  0.4723670000000 1.0
C      1  0.4990230000000  0.4491200000000  0.4445240000000 1.0
C      1  0.4702140000000  0.4825410000000  0.4823590000000 1.0
C      1  0.5209590000000  0.6021470000000  0.5431800000000 1.0
C      1  0.5152200000000  0.4911930000000  0.6135090000000 1.0
C      1  0.5821330000000  0.5048340000000  0.5667560000000 1.0
C      1  0.5130840000000  0.4295610000000  0.4674240000000 1.0
C      1  0.4051360000000  0.4645690000000  0.5370430000000 1.0
C      1  0.4334100000000  0.5705120000000  0.4929890000000 1.0
C      1  0.4098720000000  0.4335160000000  0.4913040000000 1.0
C      1  0.5149420000000  0.4483460000000  0.5940180000000 1.0
C      1  0.5851400000000  0.5294500000000  0.5520520000000 1.0
C      1  0.4673920000000  0.4803640000000  0.3907270000000 1.0
C      1  0.5294970000000  0.4927050000000  0.5119420000000 1.0
C      1  0.5326440000000  0.4634590000000  0.4828080000000 1.0
C      1  0.4747000000000  0.5883820000000  0.5189130000000 1.0
C      1  0.4149440000000  0.5474100000000  0.4910890000000 1.0
C      1  0.5727360000000  0.4754230000000  0.4164270000000 1.0
C      1  0.5281200000000  0.5312340000000  0.5370130000000 1.0
C      1  0.4853900000000  0.5122940000000  0.5194380000000 1.0
C      1  0.5211230000000  0.6015930000000  0.5146000000000 1.0
C      1  0.5026590000000  0.5365800000000  0.6057650000000 1.0
C      1  0.5319220000000  0.4783450000000  0.3909870000000 1.0
C      1  0.5581690000000  0.4720560000000  0.3935840000000 1.0
C      1  0.4688640000000  0.4273430000000  0.5665810000000 1.0
C      1  0.5543300000000  0.4262150000000  0.5343740000000 1.0
C      1  0.5529620000000  0.5462820000000  0.4171650000000 1.0
C      1  0.4907890000000  0.5478270000000  0.4896400000000 1.0
C      1  0.5340830000000  0.5450680000000  0.5131320000000 1.0
C      1  0.4326380000000  0.4514220000000  0.4904980000000 1.0
C      1  0.5936040000000  0.4644850000000  0.4819780000000 1.0
C      1  0.4044580000000  0.5308400000000  0.5131050000000 1.0
C      1  0.4458000000000  0.5788850000000  0.5181400000000 1.0
C      1  0.4237300000000  0.5388380000000  0.4415120000000 1.0
C      1  0.5915000000000  0.4559030000000  0.5093980000000 1.0
C      1  0.4453400000000  0.4591160000000  0.5163730000000 1.0
C      1  0.5342840000000  0.4721250000000  0.4545180000000 1.0
C      1  0.5751560000000  0.5619060000000  0.4556800000000 1.0
C      1  0.5350080000000  0.5647700000000  0.4299190000000 1.0
C      1  0.5158740000000  0.4398820000000  0.4200160000000 1.0
C      1  0.4493420000000  0.4051550000000  0.5013120000000 1.0
C      1  0.5719300000000  0.4536440000000  0.4349470000000 1.0
C      1  0.5876000000000  0.5215420000000  0.4382580000000 1.0
C      1  0.5186700000000  0.5341800000000  0.4891660000000 1.0
C      1  0.4456120000000  0.4893790000000  0.5228730000000 1.0
C      1  0.4413970000000  0.5700180000000  0.5460790000000 1.0
C      1  0.4249080000000  0.4197390000000  0.5096100000000 1.0
C      1  0.4882200000000  0.3998820000000  0.4371920000000 1.0
C      1  0.5348630000000  0.5039200000000  0.5367050000000 1.0
C      1  0.5524160000000  0.5496670000000  0.5841640000000 1.0
C      1  0.4006430000000  0.5064920000000  0.4751030000000 1.0
C      1  0.5766940000000  0.4327950000000  0.5162230000000 1.0
C      1  0.4877600000000  0.4832180000000  0.6103650000000 1.0
C      1  0.4757970000000  0.5282320000000  0.6083670000000 1.0
C      1  0.5097310000000  0.4485120000000  0.4882880000000 1.0
C      1  0.5481730000000  0.5003270000000  0.4563210000000 1.0
C      1  0.5035450000000  0.5262500000000  0.4425220000000 1.0
C      1  0.5663900000000  0.4245430000000  0.4695920000000 1.0
C      1  0.5830820000000  0.4786740000000  0.5544810000000 1.0
C      1  0.4798730000000  0.4543580000000  0.4869090000000 1.0
C      1  0.3954980000000  0.5056190000000  0.5032290000000 1.0
C      1  0.4930900000000  0.4489600000000  0.5348600000000 1.0
C      1  0.5486410000000  0.4796120000000  0.4979560000000 1.0
C      1  0.4268310000000  0.4787410000000  0.5800920000000 1.0
C      1  0.5571770000000  0.5663560000000  0.5145010000000 1.0
C      1  0.5235310000000  0.5183880000000  0.6102690000000 1.0
C      1  0.4244310000000  0.4776080000000  0.4450600000000 1.0
C      1  0.5411140000000  0.4102080000000  0.5132910000000 1.0
C      1  0.4683900000000  0.5298170000000  0.4816430000000 1.0
C      1  0.5202670000000  0.4897500000000  0.5562510000000 1.0
C      1  0.4455520000000  0.5025060000000  0.5809430000000 1.0
C      1  0.5662410000000  0.5030470000000  0.4276070000000 1.0
C      1  0.4824530000000  0.4961540000000  0.5450130000000 1.0
C      1  0.4825200000000  0.5767190000000  0.4359720000000 1.0
C      1  0.4749670000000  0.5665490000000  0.5828670000000 1.0
C      1  0.4399770000000  0.5321400000000  0.5786880000000 1.0
C      1  0.4590310000000  0.5675350000000  0.4239950000000 1.0
C      1  0.5930770000000  0.4780640000000  0.5277940000000 1.0
C      1  0.4696420000000  0.4145730000000  0.5178910000000 1.0
C      1  0.4305470000000  0.5207980000000  0.4188490000000 1.0
C      1  0.5476820000000  0.4380760000000  0.5596730000000 1.0
C      1  0.5002680000000  0.4004140000000  0.4813320000000 1.0
C      1  0.3975060000000  0.4779040000000  0.5123650000000 1.0
C      1  0.5487010000000  0.5246740000000  0.5977960000000 1.0
C      1  0.4877240000000  0.4630630000000  0.3860040000000 1.0
C      1  0.4982260000000  0.6138400000000  0.5547040000000 1.0
END
