TITL C-58682-4071-8 108.777085425395 125000 -1377.53669742528 0 0 194 (C1) n - 1
REM
REM in /rds/project/t2_vol4/rds-t2-cs072/BORA/CARBON/from-Arr/AIRSS/Generating-Clusters/GAP-ML-2020/Only-C1/SD-CG/HFTN-CG/C160-200
REM
REM
REM
REM
REM
REM ./C.cell (f2ad243b7eb7c0cd63fb1bbaf7e03044)
REM AIRSS Version 0.9.1 bugfix July 2018 build 013d7b7c2542+ Fri, 06 Jul 2018 19:26:36 +0100
REM compiler GCC version 9.3.0
REM options -cpp -mtune=generic -march=x86-64 -g -O0
REM seed 1884503449 575098995 628470280 -1827729699 490797199 -1367524844 1314698453 746118444 433981046 379121854 -575645908 -575052061 222225570 -1197755071 2096531259 1966222828 80754303 -664822142 18514628 -1298795240 -22085195 86350357 1986765314 183145440 -350593535 877799996 -625077097 824760840 1846810678 1411509369 1582029336 223814531 -177385162
REM
CELL 1.54180   50.00000   50.00000   50.00000   90.00000   90.00000   90.00000
LATT -1
SFAC C  
C      1  0.4745110000000  0.4573230000000  0.4653690000000 1.0
C      1  0.4500390000000  0.5175070000000  0.3899960000000 1.0
C      1  0.4584400000000  0.5810820000000  0.4953230000000 1.0
C      1  0.4906160000000  0.4798170000000  0.5767460000000 1.0
C      1  0.5454330000000  0.5449320000000  0.5356350000000 1.0
C      1  0.5065860000000  0.4542310000000  0.3914270000000 1.0
C      1  0.4183600000000  0.5792260000000  0.5030610000000 1.0
C      1  0.5263400000000  0.3814600000000  0.5037490000000 1.0
C      1  0.3835400000000  0.4893890000000  0.5047550000000 1.0
C      1  0.4621510000000  0.4452860000000  0.6017410000000 1.0
C      1  0.4381460000000  0.4512510000000  0.5881320000000 1.0
C      1  0.4193920000000  0.4948640000000  0.4736180000000 1.0
C      1  0.5290530000000  0.4099870000000  0.4608800000000 1.0
C      1  0.5896810000000  0.4700670000000  0.5602170000000 1.0
C      1  0.5015320000000  0.5291830000000  0.4662190000000 1.0
C      1  0.5492010000000  0.5510000000000  0.4232410000000 1.0
C      1  0.5894100000000  0.4741810000000  0.4697040000000 1.0
C      1  0.5318280000000  0.4692770000000  0.3877640000000 1.0
C      1  0.4547330000000  0.5948090000000  0.5417180000000 1.0
C      1  0.5501520000000  0.5763040000000  0.4645900000000 1.0
C      1  0.4919600000000  0.4894010000000  0.6051030000000 1.0
C      1  0.4654310000000  0.4999900000000  0.4896910000000 1.0
C      1  0.4630460000000  0.5495650000000  0.4887490000000 1.0
C      1  0.5461030000000  0.5073850000000  0.4512150000000 1.0
C      1  0.5453260000000  0.4408350000000  0.5178650000000 1.0
C      1  0.5996410000000  0.4974320000000  0.5568970000000 1.0
C      1  0.4147820000000  0.5765830000000  0.4740210000000 1.0
C      1  0.5074100000000  0.5550430000000  0.5099920000000 1.0
C      1  0.5299660000000  0.4011970000000  0.5639370000000 1.0
C      1  0.5833230000000  0.5145620000000  0.5753490000000 1.0
C      1  0.5431250000000  0.5141980000000  0.3918270000000 1.0
C      1  0.3851930000000  0.4731960000000  0.5262940000000 1.0
C      1  0.5066370000000  0.5999650000000  0.4521280000000 1.0
C      1  0.6130370000000  0.4814860000000  0.5125620000000 1.0
C      1  0.5423410000000  0.5343860000000  0.5911840000000 1.0
C      1  0.4664170000000  0.5794660000000  0.5848360000000 1.0
C      1  0.5168690000000  0.5478800000000  0.5928300000000 1.0
C      1  0.4272560000000  0.4560700000000  0.5373780000000 1.0
C      1  0.4646660000000  0.4813700000000  0.5631400000000 1.0
C      1  0.4059860000000  0.4373330000000  0.4979930000000 1.0
C      1  0.6103800000000  0.4903120000000  0.4859590000000 1.0
C      1  0.4459820000000  0.5790530000000  0.5640290000000 1.0
C      1  0.5059420000000  0.3923820000000  0.5538160000000 1.0
C      1  0.5314340000000  0.5298370000000  0.4640910000000 1.0
C      1  0.5686970000000  0.5392540000000  0.5734740000000 1.0
C      1  0.3932850000000  0.4630850000000  0.4995450000000 1.0
C      1  0.4376190000000  0.5532240000000  0.5569280000000 1.0
C      1  0.4822680000000  0.4294520000000  0.4537490000000 1.0
C      1  0.4920820000000  0.5504470000000  0.4850900000000 1.0
C      1  0.5016100000000  0.4225740000000  0.6000000000000 1.0
C      1  0.5887020000000  0.4769170000000  0.4371270000000 1.0
C      1  0.4901400000000  0.5880780000000  0.5721050000000 1.0
C      1  0.4770220000000  0.4268590000000  0.5857380000000 1.0
C      1  0.5007510000000  0.4926070000000  0.4385080000000 1.0
C      1  0.5381070000000  0.4689650000000  0.5240400000000 1.0
C      1  0.4357220000000  0.4763780000000  0.5144920000000 1.0
C      1  0.5059080000000  0.4908580000000  0.5535450000000 1.0
C      1  0.4183000000000  0.5178830000000  0.5434290000000 1.0
C      1  0.4608310000000  0.5215510000000  0.4480870000000 1.0
C      1  0.4933080000000  0.5041180000000  0.4819090000000 1.0
C      1  0.5015400000000  0.4313020000000  0.4078990000000 1.0
C      1  0.4410750000000  0.4922220000000  0.3989340000000 1.0
C      1  0.5434160000000  0.5152980000000  0.5391470000000 1.0
C      1  0.4971480000000  0.4272200000000  0.4963860000000 1.0
C      1  0.5433590000000  0.5073330000000  0.6014190000000 1.0
C      1  0.5658080000000  0.4310490000000  0.4984180000000 1.0
C      1  0.4903340000000  0.5213030000000  0.4384100000000 1.0
C      1  0.5328010000000  0.5367480000000  0.4059130000000 1.0
C      1  0.5549590000000  0.6048440000000  0.5304770000000 1.0
C      1  0.4021470000000  0.4909310000000  0.4509080000000 1.0
C      1  0.5672010000000  0.4964570000000  0.5901170000000 1.0
C      1  0.5047880000000  0.5392820000000  0.4137940000000 1.0
C      1  0.5665690000000  0.4991820000000  0.4018600000000 1.0
C      1  0.4773560000000  0.5194100000000  0.3818240000000 1.0
C      1  0.4548740000000  0.5221580000000  0.5069530000000 1.0
C      1  0.5843930000000  0.5632550000000  0.4990810000000 1.0
C      1  0.3994170000000  0.5387830000000  0.4922180000000 1.0
C      1  0.4778290000000  0.4326700000000  0.4250820000000 1.0
C      1  0.4638020000000  0.5803900000000  0.4184300000000 1.0
C      1  0.6113100000000  0.5035400000000  0.5313780000000 1.0
C      1  0.5370180000000  0.5493500000000  0.5074780000000 1.0
C      1  0.5925750000000  0.5510430000000  0.5231200000000 1.0
C      1  0.5588550000000  0.4718510000000  0.4004290000000 1.0
C      1  0.5094400000000  0.4311450000000  0.4699980000000 1.0
C      1  0.5359840000000  0.6122760000000  0.4920310000000 1.0
C      1  0.5523700000000  0.4042550000000  0.5447660000000 1.0
C      1  0.4219990000000  0.4693110000000  0.4885720000000 1.0
C      1  0.5232800000000  0.4882210000000  0.6097040000000 1.0
C      1  0.4164010000000  0.5458240000000  0.5399010000000 1.0
C      1  0.5715680000000  0.4588720000000  0.4232250000000 1.0
C      1  0.5100510000000  0.5658610000000  0.5712420000000 1.0
C      1  0.4444130000000  0.4159420000000  0.5162630000000 1.0
C      1  0.4280760000000  0.4423310000000  0.4743480000000 1.0
C      1  0.4875630000000  0.3905210000000  0.5340210000000 1.0
C      1  0.5040780000000  0.4458720000000  0.6172710000000 1.0
C      1  0.5367950000000  0.5555250000000  0.4489080000000 1.0
C      1  0.5279660000000  0.4596410000000  0.6126500000000 1.0
C      1  0.4070840000000  0.5557600000000  0.5143430000000 1.0
C      1  0.6045930000000  0.5344630000000  0.4640130000000 1.0
C      1  0.4842380000000  0.4712650000000  0.3873620000000 1.0
C      1  0.5223320000000  0.4655130000000  0.5511630000000 1.0
C      1  0.5771000000000  0.5698850000000  0.4530450000000 1.0
C      1  0.4830140000000  0.6003170000000  0.5466980000000 1.0
C      1  0.5660170000000  0.4298950000000  0.5375180000000 1.0
C      1  0.4642190000000  0.4737440000000  0.5062220000000 1.0
C      1  0.4550270000000  0.5090480000000  0.5768660000000 1.0
C      1  0.5414660000000  0.4664680000000  0.4588080000000 1.0
C      1  0.4377500000000  0.5783320000000  0.4306560000000 1.0
C      1  0.4251480000000  0.5063730000000  0.5688410000000 1.0
C      1  0.4493640000000  0.4544010000000  0.5592730000000 1.0
C      1  0.4866970000000  0.5445540000000  0.3921010000000 1.0
C      1  0.5870180000000  0.4498730000000  0.4904320000000 1.0
C      1  0.5564990000000  0.5709560000000  0.4945170000000 1.0
C      1  0.4049460000000  0.5100450000000  0.4962730000000 1.0
C      1  0.4493250000000  0.5013070000000  0.4658440000000 1.0
C      1  0.5406530000000  0.4203390000000  0.4366190000000 1.0
C      1  0.5599220000000  0.5991260000000  0.5030590000000 1.0
C      1  0.4152370000000  0.4643570000000  0.5929970000000 1.0
C      1  0.4584380000000  0.4692790000000  0.4008050000000 1.0
C      1  0.5766110000000  0.5517190000000  0.4310620000000 1.0
C      1  0.4098020000000  0.4824480000000  0.5728100000000 1.0
C      1  0.4149760000000  0.4709490000000  0.4345190000000 1.0
C      1  0.5153460000000  0.4292390000000  0.5201550000000 1.0
C      1  0.5402810000000  0.3925600000000  0.4796780000000 1.0
C      1  0.5239640000000  0.4169630000000  0.4153430000000 1.0
C      1  0.5031750000000  0.6059090000000  0.5278300000000 1.0
C      1  0.4420060000000  0.5905960000000  0.5160290000000 1.0
C      1  0.4032710000000  0.5516270000000  0.4664250000000 1.0
C      1  0.4049350000000  0.5128870000000  0.4322740000000 1.0
C      1  0.5551940000000  0.4939260000000  0.5226420000000 1.0
C      1  0.5869690000000  0.5030180000000  0.4236930000000 1.0
C      1  0.6116710000000  0.5188860000000  0.4869850000000 1.0
C      1  0.4945070000000  0.4969490000000  0.3792650000000 1.0
C      1  0.4565720000000  0.5964280000000  0.4713740000000 1.0
C      1  0.4239780000000  0.5551550000000  0.4206500000000 1.0
C      1  0.4813440000000  0.4619480000000  0.6156900000000 1.0
C      1  0.6084010000000  0.5275520000000  0.5154070000000 1.0
C      1  0.4730300000000  0.4328230000000  0.5555190000000 1.0
C      1  0.5292660000000  0.5691850000000  0.5489880000000 1.0
C      1  0.5142230000000  0.5044120000000  0.5031930000000 1.0
C      1  0.5235580000000  0.4957120000000  0.3811550000000 1.0
C      1  0.4948000000000  0.4784490000000  0.4635850000000 1.0
C      1  0.4888070000000  0.4688350000000  0.5209370000000 1.0
C      1  0.5312230000000  0.5995400000000  0.4670330000000 1.0
C      1  0.4882810000000  0.5478930000000  0.5571900000000 1.0
C      1  0.4860350000000  0.3990810000000  0.4890390000000 1.0
C      1  0.4979010000000  0.3822030000000  0.5076050000000 1.0
C      1  0.4797310000000  0.6017250000000  0.4575400000000 1.0
C      1  0.4707820000000  0.5196140000000  0.5315860000000 1.0
C      1  0.4542740000000  0.4488150000000  0.4211490000000 1.0
C      1  0.4721140000000  0.4477070000000  0.4927770000000 1.0
C      1  0.4996670000000  0.4463460000000  0.5401980000000 1.0
C      1  0.5440360000000  0.4574520000000  0.5725420000000 1.0
C      1  0.4887930000000  0.5397210000000  0.6040680000000 1.0
C      1  0.5483460000000  0.3905260000000  0.5203200000000 1.0
C      1  0.5933810000000  0.5285670000000  0.4369260000000 1.0
C      1  0.4717040000000  0.5607190000000  0.6030900000000 1.0
C      1  0.5940720000000  0.5593220000000  0.4730960000000 1.0
C      1  0.4680440000000  0.4088680000000  0.4708970000000 1.0
C      1  0.4334150000000  0.5888300000000  0.4567210000000 1.0
C      1  0.4654530000000  0.4101480000000  0.5356790000000 1.0
C      1  0.4277640000000  0.5069140000000  0.5169350000000 1.0
C      1  0.4531440000000  0.5437850000000  0.4625460000000 1.0
C      1  0.4185070000000  0.4926180000000  0.4157990000000 1.0
C      1  0.5884930000000  0.4486350000000  0.5407230000000 1.0
C      1  0.4314810000000  0.4496710000000  0.4420990000000 1.0
C      1  0.5608870000000  0.4878850000000  0.4713140000000 1.0
C      1  0.5276210000000  0.6165440000000  0.5196720000000 1.0
C      1  0.4502060000000  0.4254980000000  0.4873000000000 1.0
C      1  0.4070590000000  0.5404640000000  0.4391430000000 1.0
C      1  0.4611900000000  0.5334750000000  0.5580600000000 1.0
C      1  0.5117390000000  0.5787720000000  0.5265020000000 1.0
C      1  0.5266540000000  0.4159460000000  0.5886430000000 1.0
C      1  0.5545930000000  0.4453700000000  0.4413810000000 1.0
C      1  0.4971030000000  0.5354160000000  0.5325610000000 1.0
C      1  0.5614820000000  0.4023930000000  0.4962090000000 1.0
C      1  0.5156810000000  0.4746200000000  0.5050460000000 1.0
C      1  0.5402830000000  0.4404010000000  0.5946520000000 1.0
C      1  0.4410400000000  0.5437980000000  0.3999930000000 1.0
C      1  0.4753480000000  0.5137650000000  0.6014350000000 1.0
C      1  0.5993620000000  0.4568540000000  0.5153090000000 1.0
C      1  0.4027240000000  0.4685860000000  0.5479370000000 1.0
C      1  0.5175730000000  0.4611490000000  0.4754790000000 1.0
C      1  0.5571640000000  0.5034570000000  0.4961790000000 1.0
C      1  0.5285740000000  0.4885730000000  0.4400990000000 1.0
C      1  0.5679080000000  0.4714890000000  0.5777240000000 1.0
C      1  0.5157730000000  0.5127190000000  0.5351560000000 1.0
C      1  0.4213950000000  0.4310640000000  0.5212560000000 1.0
C      1  0.4862790000000  0.5922630000000  0.4319830000000 1.0
C      1  0.4783790000000  0.4902840000000  0.5382960000000 1.0
C      1  0.5565350000000  0.5829200000000  0.5474820000000 1.0
C      1  0.4644230000000  0.5602640000000  0.3990490000000 1.0
C      1  0.5717530000000  0.5564280000000  0.5464910000000 1.0
C      1  0.5375440000000  0.5238530000000  0.4923060000000 1.0
END
