TITL C-60901-7059-8 -231.873670004883 125000 -832.703790369551 0 0 120 (C1) n - 1
REM
REM in /rds/project/t2_vol4/rds-t2-cs072/BORA/CARBON/from-Arr/AIRSS/Generating-Clusters/GAP-ML-2020/Only-C1/SD-CG/HFTN-CG
REM
REM
REM
REM
REM
REM ./C.cell (11c1c37f851c82e70ff6c80c92926a4b)
REM AIRSS Version 0.9.1 bugfix July 2018 build 013d7b7c2542+ Fri, 06 Jul 2018 19:26:36 +0100
REM compiler GCC version 9.3.0
REM options -cpp -mtune=generic -march=x86-64 -g -O0
REM seed -317833204 980638264 1009485150 -859229808 -406963834 -1772323669 -1231660090 1710236247 -158267935 1058301873 1358788189 -1789395565 -488290831 234413548 -1771867017 -1469844376 -927443394 -212501829 2071433835 -1475555178 1689034722 1052417560 117029257 -559149885 1085312650 -1026909179 -1277546953 -498307855 1340259124 -592551652 1523851424 -1105574005 -858984789
REM
CELL 1.54180   50.00000   50.00000   50.00000   90.00000   90.00000   90.00000
LATT -1
SFAC C  
C      1  0.4824960000000  0.4554330000000  0.5824250000000 1.0
C      1  0.4415760000000  0.4655400000000  0.5499550000000 1.0
C      1  0.5885330000000  0.5331470000000  0.5169890000000 1.0
C      1  0.5252100000000  0.5654240000000  0.5796030000000 1.0
C      1  0.5692830000000  0.4614390000000  0.4471630000000 1.0
C      1  0.5907080000000  0.5004150000000  0.5495300000000 1.0
C      1  0.5443400000000  0.5055800000000  0.5162640000000 1.0
C      1  0.5112000000000  0.5796010000000  0.4385420000000 1.0
C      1  0.5252030000000  0.4888300000000  0.5016440000000 1.0
C      1  0.4770180000000  0.5761520000000  0.5245710000000 1.0
C      1  0.4656160000000  0.4091190000000  0.5078600000000 1.0
C      1  0.5053370000000  0.5233070000000  0.4760880000000 1.0
C      1  0.5192090000000  0.5602540000000  0.4187050000000 1.0
C      1  0.4857370000000  0.5357260000000  0.5609760000000 1.0
C      1  0.5022120000000  0.5759250000000  0.5679310000000 1.0
C      1  0.4586690000000  0.5174190000000  0.4691940000000 1.0
C      1  0.5103120000000  0.4904750000000  0.4181880000000 1.0
C      1  0.5607690000000  0.5452900000000  0.5551540000000 1.0
C      1  0.5189340000000  0.4234480000000  0.5534580000000 1.0
C      1  0.4543340000000  0.4892240000000  0.4345970000000 1.0
C      1  0.4800570000000  0.4778040000000  0.4864040000000 1.0
C      1  0.5455590000000  0.5019030000000  0.5662420000000 1.0
C      1  0.5131410000000  0.4132140000000  0.5273760000000 1.0
C      1  0.4320410000000  0.4368130000000  0.4811810000000 1.0
C      1  0.5304410000000  0.4487630000000  0.4403270000000 1.0
C      1  0.5353630000000  0.4840670000000  0.4747260000000 1.0
C      1  0.4731270000000  0.4234470000000  0.4614340000000 1.0
C      1  0.4480710000000  0.4625290000000  0.4414850000000 1.0
C      1  0.4508500000000  0.5095730000000  0.5099570000000 1.0
C      1  0.5112230000000  0.4822570000000  0.5454830000000 1.0
C      1  0.4901530000000  0.4693730000000  0.4571210000000 1.0
C      1  0.5175850000000  0.4600470000000  0.4644410000000 1.0
C      1  0.4676580000000  0.4661330000000  0.5609780000000 1.0
C      1  0.4310410000000  0.5604860000000  0.5204870000000 1.0
C      1  0.5205270000000  0.4629380000000  0.5697590000000 1.0
C      1  0.5837460000000  0.5285320000000  0.5450770000000 1.0
C      1  0.5544770000000  0.5306530000000  0.4698210000000 1.0
C      1  0.4326010000000  0.4932960000000  0.5513190000000 1.0
C      1  0.5038300000000  0.5392830000000  0.4056200000000 1.0
C      1  0.5761820000000  0.5153030000000  0.4559670000000 1.0
C      1  0.4502920000000  0.4215370000000  0.5267090000000 1.0
C      1  0.4121970000000  0.5016830000000  0.4596120000000 1.0
C      1  0.5702160000000  0.4491600000000  0.4926840000000 1.0
C      1  0.5004310000000  0.4383380000000  0.5693130000000 1.0
C      1  0.5037140000000  0.5023270000000  0.5916420000000 1.0
C      1  0.5730760000000  0.4569550000000  0.5201020000000 1.0
C      1  0.4778450000000  0.5060370000000  0.5228290000000 1.0
C      1  0.4370150000000  0.5385010000000  0.5613120000000 1.0
C      1  0.5679890000000  0.5515360000000  0.5113810000000 1.0
C      1  0.5014380000000  0.5777430000000  0.5388270000000 1.0
C      1  0.4104400000000  0.4748340000000  0.4671780000000 1.0
C      1  0.4613750000000  0.5835180000000  0.4569230000000 1.0
C      1  0.5205050000000  0.5153700000000  0.4081210000000 1.0
C      1  0.4779210000000  0.5606190000000  0.5729420000000 1.0
C      1  0.4211830000000  0.4493000000000  0.5046740000000 1.0
C      1  0.4991360000000  0.4175610000000  0.4698270000000 1.0
C      1  0.5549120000000  0.4375430000000  0.4499970000000 1.0
C      1  0.4779710000000  0.5102470000000  0.5720610000000 1.0
C      1  0.4067530000000  0.4722400000000  0.4958190000000 1.0
C      1  0.4887340000000  0.5852060000000  0.4573950000000 1.0
C      1  0.5283110000000  0.5085690000000  0.5421350000000 1.0
C      1  0.5953850000000  0.4900960000000  0.5225290000000 1.0
C      1  0.4854580000000  0.4928500000000  0.4380400000000 1.0
C      1  0.5537630000000  0.5300000000000  0.4989980000000 1.0
C      1  0.5495660000000  0.5556950000000  0.4538760000000 1.0
C      1  0.4721130000000  0.4478880000000  0.4475040000000 1.0
C      1  0.5284470000000  0.4262230000000  0.5063880000000 1.0
C      1  0.4386190000000  0.5418220000000  0.4374000000000 1.0
C      1  0.5408130000000  0.4429690000000  0.5594940000000 1.0
C      1  0.5640470000000  0.4543960000000  0.5482300000000 1.0
C      1  0.5042530000000  0.4743080000000  0.5919310000000 1.0
C      1  0.4466360000000  0.5126620000000  0.5682200000000 1.0
C      1  0.5675100000000  0.4840770000000  0.5571480000000 1.0
C      1  0.4849820000000  0.5190090000000  0.4561080000000 1.0
C      1  0.4843250000000  0.5321410000000  0.5308950000000 1.0
C      1  0.5588330000000  0.4793570000000  0.4275180000000 1.0
C      1  0.5107410000000  0.3969990000000  0.4842150000000 1.0
C      1  0.5306620000000  0.5760480000000  0.4597820000000 1.0
C      1  0.4373840000000  0.5127770000000  0.4472990000000 1.0
C      1  0.4541900000000  0.4191340000000  0.4823530000000 1.0
C      1  0.5665150000000  0.4854150000000  0.5244240000000 1.0
C      1  0.4532580000000  0.5429790000000  0.4137060000000 1.0
C      1  0.5974660000000  0.5088870000000  0.5014990000000 1.0
C      1  0.5469520000000  0.5232420000000  0.4175330000000 1.0
C      1  0.5656100000000  0.5064700000000  0.4304740000000 1.0
C      1  0.5571380000000  0.4272670000000  0.4769810000000 1.0
C      1  0.5704000000000  0.4731190000000  0.4743680000000 1.0
C      1  0.4269900000000  0.4539980000000  0.4583470000000 1.0
C      1  0.5210990000000  0.5595990000000  0.5260100000000 1.0
C      1  0.5064520000000  0.5538030000000  0.4957750000000 1.0
C      1  0.4355840000000  0.4444610000000  0.5299130000000 1.0
C      1  0.4524400000000  0.5626870000000  0.5620920000000 1.0
C      1  0.5089610000000  0.5777480000000  0.4787360000000 1.0
C      1  0.4759660000000  0.5415580000000  0.4017600000000 1.0
C      1  0.4231360000000  0.5086860000000  0.5271780000000 1.0
C      1  0.5316150000000  0.4716130000000  0.4225000000000 1.0
C      1  0.5393270000000  0.4077990000000  0.4878250000000 1.0
C      1  0.4919210000000  0.4570040000000  0.5042100000000 1.0
C      1  0.4415350000000  0.5649500000000  0.4592480000000 1.0
C      1  0.4041920000000  0.4981580000000  0.5067580000000 1.0
C      1  0.5308360000000  0.5144400000000  0.5873610000000 1.0
C      1  0.4971790000000  0.5005620000000  0.4974440000000 1.0
C      1  0.5402700000000  0.5428450000000  0.5796960000000 1.0
C      1  0.5509630000000  0.5598760000000  0.5321890000000 1.0
C      1  0.4547030000000  0.4919750000000  0.4865180000000 1.0
C      1  0.4556680000000  0.5361480000000  0.4940340000000 1.0
C      1  0.4027590000000  0.5152390000000  0.4833600000000 1.0
C      1  0.5873710000000  0.4984430000000  0.4762290000000 1.0
C      1  0.4944090000000  0.4013520000000  0.5090130000000 1.0
C      1  0.4793780000000  0.5510240000000  0.5078980000000 1.0
C      1  0.4832300000000  0.4894560000000  0.5494510000000 1.0
C      1  0.4231450000000  0.5376110000000  0.5362230000000 1.0
C      1  0.5135440000000  0.4684840000000  0.5195790000000 1.0
C      1  0.5304760000000  0.5123240000000  0.4654090000000 1.0
C      1  0.5443830000000  0.5494800000000  0.4269420000000 1.0
C      1  0.4077960000000  0.5411190000000  0.4844310000000 1.0
C      1  0.4316070000000  0.5548790000000  0.4891230000000 1.0
C      1  0.4503800000000  0.5747640000000  0.5357540000000 1.0
C      1  0.5120810000000  0.5338460000000  0.5402070000000 1.0
C      1  0.5097160000000  0.4412520000000  0.4863440000000 1.0
END
