TITL C-60892-4695-1 28.6730352062273 125000 -868.706429806967 0 0 124 (C1) n - 1
REM
REM in /rds/project/t2_vol4/rds-t2-cs072/BORA/CARBON/from-Arr/AIRSS/Generating-Clusters/GAP-ML-2020/Only-C1/SD-CG/HFTN-CG
REM
REM
REM
REM
REM
REM ./C.cell (11c1c37f851c82e70ff6c80c92926a4b)
REM AIRSS Version 0.9.1 bugfix July 2018 build 013d7b7c2542+ Fri, 06 Jul 2018 19:26:36 +0100
REM compiler GCC version 9.3.0
REM options -cpp -mtune=generic -march=x86-64 -g -O0
REM seed -1493502225 1005700729 -1930360101 -1614936768 1563383606 -548332104 2039134652 952880961 1518668860 -1492643751 -781747803 -807092343 -320593203 -1826564840 1376595494 556433060 1499536230 308307217 -1735809535 -159360132 -94752131 -1261102155 1404986310 -881265699 308380874 393723158 -230783128 1391655327 -50450936 -1706601042 -238115869 -1699290622 -1220181174
REM
CELL 1.54180   50.00000   50.00000   50.00000   90.00000   90.00000   90.00000
LATT -1
SFAC C  
C      1  0.5228530000000  0.4662910000000  0.5229490000000 1.0
C      1  0.5028490000000  0.5693100000000  0.4594490000000 1.0
C      1  0.4945480000000  0.5903250000000  0.5361130000000 1.0
C      1  0.4363910000000  0.5328080000000  0.5214070000000 1.0
C      1  0.4472080000000  0.4484910000000  0.4334910000000 1.0
C      1  0.5109950000000  0.5315300000000  0.5147980000000 1.0
C      1  0.4839840000000  0.4654230000000  0.5787400000000 1.0
C      1  0.6165490000000  0.5370100000000  0.4914860000000 1.0
C      1  0.5648310000000  0.5356770000000  0.4667830000000 1.0
C      1  0.5297860000000  0.5449540000000  0.5849050000000 1.0
C      1  0.4537770000000  0.4684280000000  0.4930350000000 1.0
C      1  0.4190410000000  0.4775760000000  0.4600200000000 1.0
C      1  0.4768140000000  0.4110470000000  0.4524780000000 1.0
C      1  0.4974900000000  0.4830500000000  0.5971670000000 1.0
C      1  0.4733900000000  0.5448120000000  0.4906300000000 1.0
C      1  0.4433780000000  0.4372820000000  0.5279360000000 1.0
C      1  0.5015090000000  0.4014520000000  0.4653160000000 1.0
C      1  0.4586810000000  0.4943790000000  0.5065780000000 1.0
C      1  0.5248270000000  0.4896720000000  0.5988210000000 1.0
C      1  0.5791260000000  0.5450480000000  0.5160370000000 1.0
C      1  0.6064630000000  0.5544580000000  0.5077930000000 1.0
C      1  0.4993330000000  0.5103670000000  0.5877290000000 1.0
C      1  0.4254600000000  0.4483680000000  0.4519200000000 1.0
C      1  0.5300010000000  0.4361110000000  0.5268570000000 1.0
C      1  0.4711380000000  0.5926610000000  0.5198490000000 1.0
C      1  0.5182530000000  0.4129550000000  0.4456510000000 1.0
C      1  0.5468310000000  0.4979450000000  0.5834240000000 1.0
C      1  0.5689420000000  0.4371330000000  0.5005410000000 1.0
C      1  0.5535160000000  0.5275460000000  0.5837080000000 1.0
C      1  0.4394740000000  0.5674260000000  0.4550010000000 1.0
C      1  0.4304190000000  0.4449770000000  0.5011870000000 1.0
C      1  0.5386630000000  0.4662600000000  0.4790860000000 1.0
C      1  0.5277710000000  0.5593080000000  0.4503980000000 1.0
C      1  0.5501530000000  0.5600700000000  0.4686190000000 1.0
C      1  0.5848240000000  0.4726850000000  0.4667240000000 1.0
C      1  0.4749430000000  0.5012700000000  0.5477830000000 1.0
C      1  0.4557690000000  0.5214730000000  0.4958290000000 1.0
C      1  0.5442370000000  0.4507200000000  0.4366630000000 1.0
C      1  0.4580510000000  0.4167450000000  0.4735690000000 1.0
C      1  0.5202860000000  0.5914930000000  0.5252410000000 1.0
C      1  0.4788940000000  0.4521020000000  0.4936230000000 1.0
C      1  0.4996040000000  0.5892780000000  0.4799200000000 1.0
C      1  0.5950790000000  0.5060930000000  0.5348230000000 1.0
C      1  0.4532580000000  0.5745570000000  0.5324460000000 1.0
C      1  0.5401120000000  0.4278670000000  0.4531290000000 1.0
C      1  0.4403520000000  0.4602300000000  0.5452380000000 1.0
C      1  0.4163120000000  0.4728620000000  0.5341200000000 1.0
C      1  0.4476260000000  0.5845610000000  0.4780840000000 1.0
C      1  0.4695740000000  0.4621430000000  0.4188100000000 1.0
C      1  0.5983380000000  0.4756940000000  0.5052900000000 1.0
C      1  0.4822220000000  0.5479340000000  0.4610420000000 1.0
C      1  0.4623650000000  0.4747760000000  0.5610140000000 1.0
C      1  0.4651590000000  0.4909880000000  0.4208200000000 1.0
C      1  0.5770030000000  0.5269230000000  0.5421540000000 1.0
C      1  0.5466340000000  0.5750720000000  0.4922080000000 1.0
C      1  0.5910730000000  0.4793730000000  0.5321730000000 1.0
C      1  0.4118370000000  0.5166170000000  0.5180700000000 1.0
C      1  0.4862330000000  0.5171310000000  0.4580870000000 1.0
C      1  0.4670560000000  0.5570360000000  0.5505980000000 1.0
C      1  0.5946980000000  0.4974590000000  0.4832020000000 1.0
C      1  0.5548570000000  0.5232300000000  0.4426140000000 1.0
C      1  0.4543920000000  0.5287350000000  0.5490140000000 1.0
C      1  0.4323210000000  0.5255110000000  0.5723570000000 1.0
C      1  0.4413490000000  0.5079680000000  0.4259970000000 1.0
C      1  0.4666540000000  0.4658140000000  0.4493690000000 1.0
C      1  0.4920550000000  0.5490840000000  0.5092510000000 1.0
C      1  0.4863940000000  0.4169320000000  0.5451590000000 1.0
C      1  0.5443290000000  0.4783730000000  0.5046920000000 1.0
C      1  0.5093000000000  0.5342000000000  0.5991890000000 1.0
C      1  0.4815770000000  0.4920250000000  0.5207770000000 1.0
C      1  0.4595480000000  0.5089680000000  0.4696500000000 1.0
C      1  0.5747200000000  0.5363200000000  0.5693520000000 1.0
C      1  0.5494790000000  0.4858010000000  0.5555560000000 1.0
C      1  0.5134160000000  0.5161380000000  0.4199120000000 1.0
C      1  0.4975210000000  0.4705120000000  0.5091630000000 1.0
C      1  0.5097290000000  0.4751830000000  0.4763950000000 1.0
C      1  0.5728520000000  0.5208020000000  0.4923380000000 1.0
C      1  0.4086190000000  0.4992220000000  0.5405450000000 1.0
C      1  0.5225690000000  0.5908560000000  0.4967190000000 1.0
C      1  0.5526290000000  0.4956260000000  0.4358020000000 1.0
C      1  0.5024590000000  0.4091030000000  0.4919560000000 1.0
C      1  0.4592670000000  0.5527000000000  0.4425770000000 1.0
C      1  0.5290450000000  0.4912170000000  0.4205050000000 1.0
C      1  0.5489160000000  0.5121660000000  0.5370320000000 1.0
C      1  0.4108820000000  0.5241990000000  0.4666220000000 1.0
C      1  0.5080940000000  0.5039010000000  0.4745580000000 1.0
C      1  0.5038730000000  0.5048870000000  0.5567520000000 1.0
C      1  0.4268610000000  0.5691980000000  0.4919680000000 1.0
C      1  0.4494510000000  0.4811710000000  0.4669240000000 1.0
C      1  0.5308680000000  0.5359700000000  0.4333720000000 1.0
C      1  0.5573640000000  0.5652600000000  0.5170680000000 1.0
C      1  0.4897360000000  0.4562780000000  0.4662780000000 1.0
C      1  0.5444650000000  0.4343230000000  0.4825340000000 1.0
C      1  0.4721020000000  0.5934500000000  0.4906690000000 1.0
C      1  0.4039390000000  0.5096110000000  0.4911560000000 1.0
C      1  0.4580840000000  0.5315430000000  0.4249850000000 1.0
C      1  0.5204690000000  0.4772750000000  0.5511570000000 1.0
C      1  0.4333960000000  0.4315890000000  0.4741950000000 1.0
C      1  0.4097330000000  0.4640650000000  0.5078390000000 1.0
C      1  0.4839730000000  0.5137180000000  0.4267590000000 1.0
C      1  0.4332670000000  0.5615460000000  0.5180870000000 1.0
C      1  0.6178110000000  0.5147460000000  0.4780470000000 1.0
C      1  0.4132480000000  0.5099110000000  0.5664810000000 1.0
C      1  0.4965510000000  0.4485630000000  0.4178210000000 1.0
C      1  0.5094020000000  0.4304790000000  0.5489090000000 1.0
C      1  0.4189610000000  0.5042370000000  0.4457250000000 1.0
C      1  0.5259050000000  0.4219750000000  0.5012530000000 1.0
C      1  0.5587920000000  0.4722640000000  0.4528910000000 1.0
C      1  0.5216540000000  0.5259230000000  0.5428630000000 1.0
C      1  0.5689910000000  0.4649840000000  0.5435870000000 1.0
C      1  0.4755380000000  0.4202240000000  0.4986270000000 1.0
C      1  0.4190250000000  0.5520600000000  0.4691260000000 1.0
C      1  0.5600320000000  0.4417190000000  0.5282410000000 1.0
C      1  0.5878540000000  0.4550100000000  0.4897740000000 1.0
C      1  0.5228460000000  0.5165670000000  0.4949960000000 1.0
C      1  0.4950640000000  0.4236050000000  0.4312100000000 1.0
C      1  0.5065860000000  0.4548010000000  0.5644170000000 1.0
C      1  0.5230810000000  0.4622670000000  0.4205000000000 1.0
C      1  0.5488010000000  0.5063340000000  0.5068080000000 1.0
C      1  0.4044470000000  0.4818670000000  0.4860310000000 1.0
C      1  0.5214590000000  0.5550180000000  0.5568880000000 1.0
C      1  0.4659700000000  0.4196890000000  0.5269470000000 1.0
C      1  0.5378490000000  0.5723770000000  0.5374340000000 1.0
C      1  0.4935920000000  0.5676740000000  0.5540160000000 1.0
END
