TITL C-60909-5343-4 63.6219359456035 125000 -726.280646726028 0 0 105 (C1) n - 1
REM
REM in /rds/project/t2_vol4/rds-t2-cs072/BORA/CARBON/from-Arr/AIRSS/Generating-Clusters/GAP-ML-2020/Only-C1/SD-CG/HFTN-CG
REM
REM
REM
REM
REM
REM ./C.cell (11c1c37f851c82e70ff6c80c92926a4b)
REM AIRSS Version 0.9.1 bugfix July 2018 build 013d7b7c2542+ Fri, 06 Jul 2018 19:26:36 +0100
REM compiler GCC version 9.3.0
REM options -cpp -mtune=generic -march=x86-64 -g -O0
REM seed -834541501 -439516017 197571914 429288701 1562593050 -177410071 -806675435 -1820831810 -535853561 548520909 995081683 781822456 98896506 1971589363 -835039569 1663307401 1887971695 -1883473198 -617454726 -1575097014 -971283101 2059873015 846832206 1358768366 2143758779 1334215576 1135009388 -1409359671 949697241 48175389 -479612524 -1871755890 169400785
REM
CELL 1.54180   50.00000   50.00000   50.00000   90.00000   90.00000   90.00000
LATT -1
SFAC C  
C      1  0.5160800000000  0.5926380000000  0.5095380000000 1.0
C      1  0.4671630000000  0.5334200000000  0.5009700000000 1.0
C      1  0.5331400000000  0.5279640000000  0.4940600000000 1.0
C      1  0.4989420000000  0.5272300000000  0.4125520000000 1.0
C      1  0.4783370000000  0.5024160000000  0.4673420000000 1.0
C      1  0.4217880000000  0.5271520000000  0.4869640000000 1.0
C      1  0.4670940000000  0.5047780000000  0.4920690000000 1.0
C      1  0.5215310000000  0.4262470000000  0.5282770000000 1.0
C      1  0.5587260000000  0.4573450000000  0.5659990000000 1.0
C      1  0.4174630000000  0.5061700000000  0.4692830000000 1.0
C      1  0.5501710000000  0.4784020000000  0.4308270000000 1.0
C      1  0.5041130000000  0.4810440000000  0.4166330000000 1.0
C      1  0.5044710000000  0.4193670000000  0.4552690000000 1.0
C      1  0.5139430000000  0.4864490000000  0.5105090000000 1.0
C      1  0.4947590000000  0.5362970000000  0.5801180000000 1.0
C      1  0.4417630000000  0.4900330000000  0.5561360000000 1.0
C      1  0.4509920000000  0.5050110000000  0.5766320000000 1.0
C      1  0.5678420000000  0.4802480000000  0.5516350000000 1.0
C      1  0.5307550000000  0.4609040000000  0.5691390000000 1.0
C      1  0.5608010000000  0.4341330000000  0.5518850000000 1.0
C      1  0.5447090000000  0.5821450000000  0.5114200000000 1.0
C      1  0.5602550000000  0.4563840000000  0.4708640000000 1.0
C      1  0.5418500000000  0.4575940000000  0.4496020000000 1.0
C      1  0.5153040000000  0.4533600000000  0.5455930000000 1.0
C      1  0.4945200000000  0.4613990000000  0.4341240000000 1.0
C      1  0.4107510000000  0.4708510000000  0.5020510000000 1.0
C      1  0.5146600000000  0.5895600000000  0.5410510000000 1.0
C      1  0.4475650000000  0.4580390000000  0.4869540000000 1.0
C      1  0.4775500000000  0.4172160000000  0.5378960000000 1.0
C      1  0.5038810000000  0.5101210000000  0.4675680000000 1.0
C      1  0.4603370000000  0.4445050000000  0.4620740000000 1.0
C      1  0.4659020000000  0.4847820000000  0.5360490000000 1.0
C      1  0.4083140000000  0.4912000000000  0.5220030000000 1.0
C      1  0.5762560000000  0.4885150000000  0.4302500000000 1.0
C      1  0.5165850000000  0.5956250000000  0.4798040000000 1.0
C      1  0.5237290000000  0.5587570000000  0.4517860000000 1.0
C      1  0.4620680000000  0.5075790000000  0.4192770000000 1.0
C      1  0.4983900000000  0.4085570000000  0.5231300000000 1.0
C      1  0.5364780000000  0.5087530000000  0.5746040000000 1.0
C      1  0.4363490000000  0.4418900000000  0.5360270000000 1.0
C      1  0.5726360000000  0.5206000000000  0.5097740000000 1.0
C      1  0.4743530000000  0.4009990000000  0.4808380000000 1.0
C      1  0.5133520000000  0.4480900000000  0.4530920000000 1.0
C      1  0.5204960000000  0.4845930000000  0.5790560000000 1.0
C      1  0.4497770000000  0.4857920000000  0.4338190000000 1.0
C      1  0.4723410000000  0.5363700000000  0.4229600000000 1.0
C      1  0.5337050000000  0.4667860000000  0.5209500000000 1.0
C      1  0.4681080000000  0.5854330000000  0.4800490000000 1.0
C      1  0.4868030000000  0.5009050000000  0.4074950000000 1.0
C      1  0.4611240000000  0.5378470000000  0.5305120000000 1.0
C      1  0.5663640000000  0.5272090000000  0.5377980000000 1.0
C      1  0.4930420000000  0.4840740000000  0.5740720000000 1.0
C      1  0.4877490000000  0.5626990000000  0.5767220000000 1.0
C      1  0.4159820000000  0.4803510000000  0.5479120000000 1.0
C      1  0.4271740000000  0.4893250000000  0.4505190000000 1.0
C      1  0.4337430000000  0.5299470000000  0.5340710000000 1.0
C      1  0.4705760000000  0.5587130000000  0.4404080000000 1.0
C      1  0.4677370000000  0.5852930000000  0.5084830000000 1.0
C      1  0.5528890000000  0.4334880000000  0.4870210000000 1.0
C      1  0.5722810000000  0.5009780000000  0.4549380000000 1.0
C      1  0.5267880000000  0.5217500000000  0.4203950000000 1.0
C      1  0.5177030000000  0.4040240000000  0.4762140000000 1.0
C      1  0.4232160000000  0.4759420000000  0.4759960000000 1.0
C      1  0.4287180000000  0.4484610000000  0.5087330000000 1.0
C      1  0.5107540000000  0.5386600000000  0.4756050000000 1.0
C      1  0.4963080000000  0.5721580000000  0.4453160000000 1.0
C      1  0.5443420000000  0.4078550000000  0.4809120000000 1.0
C      1  0.4545490000000  0.5642800000000  0.4648390000000 1.0
C      1  0.4180390000000  0.5184390000000  0.5152520000000 1.0
C      1  0.4929540000000  0.4682320000000  0.5008080000000 1.0
C      1  0.5607000000000  0.5384340000000  0.4868580000000 1.0
C      1  0.4791120000000  0.5114170000000  0.5405690000000 1.0
C      1  0.5301430000000  0.4424720000000  0.5036100000000 1.0
C      1  0.5634230000000  0.4754270000000  0.5243420000000 1.0
C      1  0.4652240000000  0.4392170000000  0.5465890000000 1.0
C      1  0.5427260000000  0.5768700000000  0.5395390000000 1.0
C      1  0.4970510000000  0.3981450000000  0.4959930000000 1.0
C      1  0.5618230000000  0.5282590000000  0.4577020000000 1.0
C      1  0.4852620000000  0.4647660000000  0.5519230000000 1.0
C      1  0.5167900000000  0.5327370000000  0.5191270000000 1.0
C      1  0.5294330000000  0.4932450000000  0.4187570000000 1.0
C      1  0.5548340000000  0.5685890000000  0.4888720000000 1.0
C      1  0.4667630000000  0.4623710000000  0.4408100000000 1.0
C      1  0.5605420000000  0.5065680000000  0.5576870000000 1.0
C      1  0.5234230000000  0.5000930000000  0.4859070000000 1.0
C      1  0.4753180000000  0.4198580000000  0.4616100000000 1.0
C      1  0.5220170000000  0.5321780000000  0.5713700000000 1.0
C      1  0.4923000000000  0.5916660000000  0.4655390000000 1.0
C      1  0.4889570000000  0.5787680000000  0.5542470000000 1.0
C      1  0.4704580000000  0.5694170000000  0.5330440000000 1.0
C      1  0.5055440000000  0.5081550000000  0.5281090000000 1.0
C      1  0.4950490000000  0.5453480000000  0.4996530000000 1.0
C      1  0.5369690000000  0.5788320000000  0.4687980000000 1.0
C      1  0.4785830000000  0.5102270000000  0.5728950000000 1.0
C      1  0.5060750000000  0.4485790000000  0.4859680000000 1.0
C      1  0.5728280000000  0.4818590000000  0.4777910000000 1.0
C      1  0.5412980000000  0.5381560000000  0.4392300000000 1.0
C      1  0.4661330000000  0.4787800000000  0.5050750000000 1.0
C      1  0.4441950000000  0.5453110000000  0.4835600000000 1.0
C      1  0.5297800000000  0.5435300000000  0.5455370000000 1.0
C      1  0.4935550000000  0.5727650000000  0.5088950000000 1.0
C      1  0.5485520000000  0.4170650000000  0.5384460000000 1.0
C      1  0.4153040000000  0.4525170000000  0.5502010000000 1.0
C      1  0.5566650000000  0.5524540000000  0.5452420000000 1.0
C      1  0.5742420000000  0.4925490000000  0.5039870000000 1.0
END
