TITL C-60889-4534-7 -14.5392938916606 125000 -374.821341295143 0 0 56 (C1) n - 1
REM
REM in /rds/project/t2_vol4/rds-t2-cs072/BORA/CARBON/from-Arr/AIRSS/Generating-Clusters/GAP-ML-2020/Only-C1/SD-CG/HFTN-CG
REM
REM
REM
REM
REM
REM ./C.cell (11c1c37f851c82e70ff6c80c92926a4b)
REM AIRSS Version 0.9.1 bugfix July 2018 build 013d7b7c2542+ Fri, 06 Jul 2018 19:26:36 +0100
REM compiler GCC version 9.3.0
REM options -cpp -mtune=generic -march=x86-64 -g -O0
REM seed -423968894 -218317321 -2146928415 2046221660 472012124 -858188116 -43082428 -931232763 -1054664291 889499344 -1896154118 -1473209834 757890508 -2126882861 -1070925136 -1418809136 -1429806344 -956128865 -148320323 -1914332868 -1653142916 -1713169346 -1586764621 -1223046291 1892666180 634156128 100803200 1250890290 -1425016799 657623939 -1783907116 -1883741263 -795765823
REM
CELL 1.54180   50.00000   50.00000   50.00000   90.00000   90.00000   90.00000
LATT -1
SFAC C  
C      1  0.5479860000000  0.5386980000000  0.4818430000000 1.0
C      1  0.5391670000000  0.4691600000000  0.5299310000000 1.0
C      1  0.4461900000000  0.5397100000000  0.5375950000000 1.0
C      1  0.4666270000000  0.4699480000000  0.5473070000000 1.0
C      1  0.4834870000000  0.4405720000000  0.5098550000000 1.0
C      1  0.5055310000000  0.5300920000000  0.5091700000000 1.0
C      1  0.4642500000000  0.5511830000000  0.5195540000000 1.0
C      1  0.4683660000000  0.4382100000000  0.4853900000000 1.0
C      1  0.5208080000000  0.4416810000000  0.4948520000000 1.0
C      1  0.4624630000000  0.4877480000000  0.4747200000000 1.0
C      1  0.4388400000000  0.5211820000000  0.4857520000000 1.0
C      1  0.4624520000000  0.4846770000000  0.4452180000000 1.0
C      1  0.4863890000000  0.4473120000000  0.4630870000000 1.0
C      1  0.4774600000000  0.5263280000000  0.5086380000000 1.0
C      1  0.5330960000000  0.5493160000000  0.5456310000000 1.0
C      1  0.5330420000000  0.5328540000000  0.4590500000000 1.0
C      1  0.5085880000000  0.4988610000000  0.4722660000000 1.0
C      1  0.4900680000000  0.5812570000000  0.4913350000000 1.0
C      1  0.4909240000000  0.4747140000000  0.4779830000000 1.0
C      1  0.4873280000000  0.5691260000000  0.5168740000000 1.0
C      1  0.5066520000000  0.5443880000000  0.4591850000000 1.0
C      1  0.4890910000000  0.5201830000000  0.4597080000000 1.0
C      1  0.5148140000000  0.4388940000000  0.4670270000000 1.0
C      1  0.4347200000000  0.5117180000000  0.5302430000000 1.0
C      1  0.5181140000000  0.4563550000000  0.5488100000000 1.0
C      1  0.5552090000000  0.4927480000000  0.4738290000000 1.0
C      1  0.4303670000000  0.5024890000000  0.5045600000000 1.0
C      1  0.4837380000000  0.5151790000000  0.5364160000000 1.0
C      1  0.5151600000000  0.4847600000000  0.5178630000000 1.0
C      1  0.5449550000000  0.4534830000000  0.5040690000000 1.0
C      1  0.5251120000000  0.4798390000000  0.4401320000000 1.0
C      1  0.5192900000000  0.5067550000000  0.4991710000000 1.0
C      1  0.4953070000000  0.4709800000000  0.5555460000000 1.0
C      1  0.4625040000000  0.5213490000000  0.5548730000000 1.0
C      1  0.4514490000000  0.4958260000000  0.5483760000000 1.0
C      1  0.4822070000000  0.5032460000000  0.4364300000000 1.0
C      1  0.4790390000000  0.4612990000000  0.4381800000000 1.0
C      1  0.5299340000000  0.5068580000000  0.5564100000000 1.0
C      1  0.5504990000000  0.4950040000000  0.5395790000000 1.0
C      1  0.5505720000000  0.4656230000000  0.4783780000000 1.0
C      1  0.5606320000000  0.5155480000000  0.5218980000000 1.0
C      1  0.4988330000000  0.4802990000000  0.4295150000000 1.0
C      1  0.5544010000000  0.5429950000000  0.5270890000000 1.0
C      1  0.5148140000000  0.5548600000000  0.5209240000000 1.0
C      1  0.4621720000000  0.4515910000000  0.5263030000000 1.0
C      1  0.5408140000000  0.5546020000000  0.5042800000000 1.0
C      1  0.5538190000000  0.5126880000000  0.4939700000000 1.0
C      1  0.5045790000000  0.4968620000000  0.5443010000000 1.0
C      1  0.5012780000000  0.4628480000000  0.5028990000000 1.0
C      1  0.5333060000000  0.4570910000000  0.4565020000000 1.0
C      1  0.4476520000000  0.4524470000000  0.5007850000000 1.0
C      1  0.4666410000000  0.5171420000000  0.4811320000000 1.0
C      1  0.4416240000000  0.4782660000000  0.4922000000000 1.0
C      1  0.5330110000000  0.5325820000000  0.5668930000000 1.0
C      1  0.4999780000000  0.5677900000000  0.4717770000000 1.0
C      1  0.5346490000000  0.5027860000000  0.4546980000000 1.0
END
