TITL C-60892-4695-3 24.7388569622751 125000 -43.4683243603275 0 0 7 (C2v) n - 1
REM
REM in /rds/project/t2_vol4/rds-t2-cs072/BORA/CARBON/from-Arr/AIRSS/Generating-Clusters/GAP-ML-2020/Only-C1/SD-CG/HFTN-CG
REM
REM
REM
REM
REM
REM ./C.cell (11c1c37f851c82e70ff6c80c92926a4b)
REM AIRSS Version 0.9.1 bugfix July 2018 build 013d7b7c2542+ Fri, 06 Jul 2018 19:26:36 +0100
REM compiler GCC version 9.3.0
REM options -cpp -mtune=generic -march=x86-64 -g -O0
REM seed -1718840204 -310629729 2043729654 -1511356857 -1756670579 -840576129 -1626252816 2114397433 -1513684501 -1667123344 1283499622 -1485049949 457649963 -437435395 -851477314 -1775295483 1177238833 498660552 1187611423 -1496968134 1196243088 390318596 1589658529 -1848144228 -18712371 1093113417 1710172772 831882719 667416343 -362884097 187663249 -496853715 -1462457090
REM
CELL 1.54180   50.00000   50.00000   50.00000   90.00000   90.00000   90.00000
LATT -1
SFAC C  
C      1  0.5182300000000  0.5203600000000  0.4970240000000 1.0
C      1  0.5123200000000  0.5463460000000  0.4899480000000 1.0
C      1  0.5067850000000  0.4983660000000  0.5065950000000 1.0
C      1  0.4661690000000  0.4697330000000  0.5184420000000 1.0
C      1  0.5252290000000  0.5323390000000  0.4731960000000 1.0
C      1  0.4921890000000  0.4771300000000  0.5131030000000 1.0
C      1  0.4790780000000  0.4557260000000  0.5016910000000 1.0
END
