TITL C-60890-4815-4 -0.238425845225363 125000 -637.933845880474 0 0 90 (C1) n - 1
REM
REM in /rds/project/t2_vol4/rds-t2-cs072/BORA/CARBON/from-Arr/AIRSS/Generating-Clusters/GAP-ML-2020/Only-C1/SD-CG/HFTN-CG
REM
REM
REM
REM
REM
REM ./C.cell (11c1c37f851c82e70ff6c80c92926a4b)
REM AIRSS Version 0.9.1 bugfix July 2018 build 013d7b7c2542+ Fri, 06 Jul 2018 19:26:36 +0100
REM compiler GCC version 9.3.0
REM options -cpp -mtune=generic -march=x86-64 -g -O0
REM seed 1415084609 1279641511 511454432 -1506818801 -1343318854 -1352117543 -269841612 498890196 1986565203 -1556712644 -1739226552 1720364022 -716423299 -218973265 -1732943904 -1208364963 666278013 -1103440317 -2016739536 -611510618 -1101419402 781372627 1785111859 -1791910506 -718995989 2106991408 -624795903 -2057884390 673821305 -1002309701 464566721 -2142816266 1179153141
REM
CELL 1.54180   50.00000   50.00000   50.00000   90.00000   90.00000   90.00000
LATT -1
SFAC C  
C      1  0.4155030000000  0.4913030000000  0.5113310000000 1.0
C      1  0.4980450000000  0.4982750000000  0.5758280000000 1.0
C      1  0.5020450000000  0.4887350000000  0.4696840000000 1.0
C      1  0.4213390000000  0.5390900000000  0.5279890000000 1.0
C      1  0.4714450000000  0.4862510000000  0.5077200000000 1.0
C      1  0.5173830000000  0.4426550000000  0.4374450000000 1.0
C      1  0.5878460000000  0.5123440000000  0.5343670000000 1.0
C      1  0.5651630000000  0.4375380000000  0.4906030000000 1.0
C      1  0.4696160000000  0.4448740000000  0.4489400000000 1.0
C      1  0.5811840000000  0.4980160000000  0.4978260000000 1.0
C      1  0.5051590000000  0.5209310000000  0.4209310000000 1.0
C      1  0.4776260000000  0.4330320000000  0.4740600000000 1.0
C      1  0.5710880000000  0.4635800000000  0.5352390000000 1.0
C      1  0.4206180000000  0.4930710000000  0.4823000000000 1.0
C      1  0.5093160000000  0.5617290000000  0.5547460000000 1.0
C      1  0.5417190000000  0.5668240000000  0.4669060000000 1.0
C      1  0.4830060000000  0.5773140000000  0.5217320000000 1.0
C      1  0.4929160000000  0.4729510000000  0.5205990000000 1.0
C      1  0.5043460000000  0.4372390000000  0.4845090000000 1.0
C      1  0.4960530000000  0.4747690000000  0.4177900000000 1.0
C      1  0.4935410000000  0.4253170000000  0.5341790000000 1.0
C      1  0.4462190000000  0.4621640000000  0.4478760000000 1.0
C      1  0.4481120000000  0.4842200000000  0.4307550000000 1.0
C      1  0.4873160000000  0.4701840000000  0.5699580000000 1.0
C      1  0.5180680000000  0.4649030000000  0.4768010000000 1.0
C      1  0.4513050000000  0.4295940000000  0.5196830000000 1.0
C      1  0.5299500000000  0.5437740000000  0.5498100000000 1.0
C      1  0.5244850000000  0.5355500000000  0.5178270000000 1.0
C      1  0.4558660000000  0.4287400000000  0.4909270000000 1.0
C      1  0.4719670000000  0.4886830000000  0.4161400000000 1.0
C      1  0.4819800000000  0.5217700000000  0.5697230000000 1.0
C      1  0.5092930000000  0.5783070000000  0.5311790000000 1.0
C      1  0.5222020000000  0.5754070000000  0.4845320000000 1.0
C      1  0.4313890000000  0.4445990000000  0.4867600000000 1.0
C      1  0.5364160000000  0.4582550000000  0.4520300000000 1.0
C      1  0.4631590000000  0.4591210000000  0.5579920000000 1.0
C      1  0.5529260000000  0.5046280000000  0.4562980000000 1.0
C      1  0.4434700000000  0.5433700000000  0.4717270000000 1.0
C      1  0.5337850000000  0.4324390000000  0.5262430000000 1.0
C      1  0.4574190000000  0.5287910000000  0.4311810000000 1.0
C      1  0.5018990000000  0.5188920000000  0.5114620000000 1.0
C      1  0.5685350000000  0.5235000000000  0.5523110000000 1.0
C      1  0.4295900000000  0.5164550000000  0.4665100000000 1.0
C      1  0.4266200000000  0.4438680000000  0.5149970000000 1.0
C      1  0.5273400000000  0.4958570000000  0.5770370000000 1.0
C      1  0.5313300000000  0.4820060000000  0.4957730000000 1.0
C      1  0.4288450000000  0.4668440000000  0.4705190000000 1.0
C      1  0.5469580000000  0.5261690000000  0.5011860000000 1.0
C      1  0.5533300000000  0.5024590000000  0.5641230000000 1.0
C      1  0.4778670000000  0.5163330000000  0.4168770000000 1.0
C      1  0.4629020000000  0.5132160000000  0.5507820000000 1.0
C      1  0.5594260000000  0.4423060000000  0.5187830000000 1.0
C      1  0.4373710000000  0.5014520000000  0.5518110000000 1.0
C      1  0.4884350000000  0.5593920000000  0.4506640000000 1.0
C      1  0.5844950000000  0.4853240000000  0.5235990000000 1.0
C      1  0.4924730000000  0.4501310000000  0.4320450000000 1.0
C      1  0.5560230000000  0.5320760000000  0.4524940000000 1.0
C      1  0.4774300000000  0.4940750000000  0.4803780000000 1.0
C      1  0.5702120000000  0.5451140000000  0.5018190000000 1.0
C      1  0.4750060000000  0.5738070000000  0.4946260000000 1.0
C      1  0.5401840000000  0.4863680000000  0.4388230000000 1.0
C      1  0.5180010000000  0.4938870000000  0.4222070000000 1.0
C      1  0.4428870000000  0.5546960000000  0.5226950000000 1.0
C      1  0.4978930000000  0.5148500000000  0.4820130000000 1.0
C      1  0.5093700000000  0.5458820000000  0.4348220000000 1.0
C      1  0.4618320000000  0.5489900000000  0.4498380000000 1.0
C      1  0.5525500000000  0.5003610000000  0.4865430000000 1.0
C      1  0.5631050000000  0.5495800000000  0.4748290000000 1.0
C      1  0.4389550000000  0.5094870000000  0.4404800000000 1.0
C      1  0.4666500000000  0.5616020000000  0.5389050000000 1.0
C      1  0.5575140000000  0.4739070000000  0.5581670000000 1.0
C      1  0.5569130000000  0.5491260000000  0.5466210000000 1.0
C      1  0.4839670000000  0.5495710000000  0.5600190000000 1.0
C      1  0.4951900000000  0.5730950000000  0.4749330000000 1.0
C      1  0.4228710000000  0.4677890000000  0.5272390000000 1.0
C      1  0.5351740000000  0.5504540000000  0.4439400000000 1.0
C      1  0.5160810000000  0.4327470000000  0.5495670000000 1.0
C      1  0.4504310000000  0.5590670000000  0.4947390000000 1.0
C      1  0.5584320000000  0.5633370000000  0.5218820000000 1.0
C      1  0.5571690000000  0.4420890000000  0.4670500000000 1.0
C      1  0.5152530000000  0.4897800000000  0.5180550000000 1.0
C      1  0.5295210000000  0.5697810000000  0.5122340000000 1.0
C      1  0.4679910000000  0.4349600000000  0.5412460000000 1.0
C      1  0.5103350000000  0.4260150000000  0.5096540000000 1.0
C      1  0.4736210000000  0.5124680000000  0.5220930000000 1.0
C      1  0.4197780000000  0.5121550000000  0.5308330000000 1.0
C      1  0.5890100000000  0.5241110000000  0.5083380000000 1.0
C      1  0.4387670000000  0.4734030000000  0.5507540000000 1.0
C      1  0.5335950000000  0.4679550000000  0.5729950000000 1.0
C      1  0.5105880000000  0.4528740000000  0.5685240000000 1.0
END
