TITL C-60906-5104-6 -134.076328178421 125000 -396.042711628632 0 0 57 (C1) n - 1
REM
REM in /rds/project/t2_vol4/rds-t2-cs072/BORA/CARBON/from-Arr/AIRSS/Generating-Clusters/GAP-ML-2020/Only-C1/SD-CG/HFTN-CG
REM
REM
REM
REM
REM
REM ./C.cell (11c1c37f851c82e70ff6c80c92926a4b)
REM AIRSS Version 0.9.1 bugfix July 2018 build 013d7b7c2542+ Fri, 06 Jul 2018 19:26:36 +0100
REM compiler GCC version 9.3.0
REM options -cpp -mtune=generic -march=x86-64 -g -O0
REM seed 1723051276 655240863 1877673386 -1532844690 -1771130615 -1344060771 2131123993 1410505248 348822684 -1941594198 -880389114 169675430 -1917938959 -194267678 1739258933 -542668763 1187214650 -577436402 -592711611 1844355365 -1401749171 -352406410 474283042 -2045477154 188475552 -1714685268 -2072629626 1528677150 -781711464 -1974271432 1262046037 -1639845724 -1430132949
REM
CELL 1.54180   50.00000   50.00000   50.00000   90.00000   90.00000   90.00000
LATT -1
SFAC C  
C      1  0.5161930000000  0.4684170000000  0.4405530000000 1.0
C      1  0.5243810000000  0.4709860000000  0.5003640000000 1.0
C      1  0.5183120000000  0.5668920000000  0.4826990000000 1.0
C      1  0.4761510000000  0.4445360000000  0.4566310000000 1.0
C      1  0.5489190000000  0.5047370000000  0.4532310000000 1.0
C      1  0.4445970000000  0.4889010000000  0.5046940000000 1.0
C      1  0.4813240000000  0.4655640000000  0.5276490000000 1.0
C      1  0.4417630000000  0.5131970000000  0.4854040000000 1.0
C      1  0.5375100000000  0.5313060000000  0.4511430000000 1.0
C      1  0.4722690000000  0.5558930000000  0.5028110000000 1.0
C      1  0.5352370000000  0.5469690000000  0.5380960000000 1.0
C      1  0.4743510000000  0.4905020000000  0.5122810000000 1.0
C      1  0.4937380000000  0.4590400000000  0.5736050000000 1.0
C      1  0.5617120000000  0.5111350000000  0.5002720000000 1.0
C      1  0.5024010000000  0.5249140000000  0.5624550000000 1.0
C      1  0.4617660000000  0.5400680000000  0.5459870000000 1.0
C      1  0.5583440000000  0.5026990000000  0.5282500000000 1.0
C      1  0.5582440000000  0.4933080000000  0.4770740000000 1.0
C      1  0.4669140000000  0.4465090000000  0.5099750000000 1.0
C      1  0.5500550000000  0.4767410000000  0.5406130000000 1.0
C      1  0.5447720000000  0.4674860000000  0.4810790000000 1.0
C      1  0.4594290000000  0.4946460000000  0.5565080000000 1.0
C      1  0.5292810000000  0.5797500000000  0.5045690000000 1.0
C      1  0.4826970000000  0.5536720000000  0.4545530000000 1.0
C      1  0.4426760000000  0.5288710000000  0.5283900000000 1.0
C      1  0.5453020000000  0.5579130000000  0.5149840000000 1.0
C      1  0.5197190000000  0.4591720000000  0.5657770000000 1.0
C      1  0.5069770000000  0.5476820000000  0.5454000000000 1.0
C      1  0.5318190000000  0.4527060000000  0.4597330000000 1.0
C      1  0.4874110000000  0.5317320000000  0.4383370000000 1.0
C      1  0.5362580000000  0.4830450000000  0.5656500000000 1.0
C      1  0.5395470000000  0.5479140000000  0.4727120000000 1.0
C      1  0.4888180000000  0.5627200000000  0.4794610000000 1.0
C      1  0.4513650000000  0.4564850000000  0.4667070000000 1.0
C      1  0.4489230000000  0.5367430000000  0.5016110000000 1.0
C      1  0.5311320000000  0.4533220000000  0.5383700000000 1.0
C      1  0.5099020000000  0.4523310000000  0.5176610000000 1.0
C      1  0.4879850000000  0.4631170000000  0.4382490000000 1.0
C      1  0.5209010000000  0.4285940000000  0.4656870000000 1.0
C      1  0.5549730000000  0.5390570000000  0.4952090000000 1.0
C      1  0.5176830000000  0.4987920000000  0.5029370000000 1.0
C      1  0.4732290000000  0.5194390000000  0.5624100000000 1.0
C      1  0.4818000000000  0.5546420000000  0.5312420000000 1.0
C      1  0.4937220000000  0.5047820000000  0.4972250000000 1.0
C      1  0.4470280000000  0.4598980000000  0.4944280000000 1.0
C      1  0.5256940000000  0.4944180000000  0.4376730000000 1.0
C      1  0.4448740000000  0.5069180000000  0.4581470000000 1.0
C      1  0.5275590000000  0.5101150000000  0.5637940000000 1.0
C      1  0.4666680000000  0.5121010000000  0.4376310000000 1.0
C      1  0.4458110000000  0.4789390000000  0.4506340000000 1.0
C      1  0.5461610000000  0.5223360000000  0.5458400000000 1.0
C      1  0.4418880000000  0.5000000000000  0.5325850000000 1.0
C      1  0.4946810000000  0.4297530000000  0.4739840000000 1.0
C      1  0.4908620000000  0.4337480000000  0.5017360000000 1.0
C      1  0.4748490000000  0.4697270000000  0.5564810000000 1.0
C      1  0.5146010000000  0.5214160000000  0.4357730000000 1.0
C      1  0.4688240000000  0.4837010000000  0.4330470000000 1.0
END
