TITL C-60910-6747-1 -132.868033094789 125000 -43.7963967845116 0 0 7 (C2v) n - 1
REM
REM in /rds/project/t2_vol4/rds-t2-cs072/BORA/CARBON/from-Arr/AIRSS/Generating-Clusters/GAP-ML-2020/Only-C1/SD-CG/HFTN-CG
REM
REM
REM
REM
REM
REM ./C.cell (11c1c37f851c82e70ff6c80c92926a4b)
REM AIRSS Version 0.9.1 bugfix July 2018 build 013d7b7c2542+ Fri, 06 Jul 2018 19:26:36 +0100
REM compiler GCC version 9.3.0
REM options -cpp -mtune=generic -march=x86-64 -g -O0
REM seed 1706991325 980629859 1002182150 923422523 962195637 1770117771 -308268977 1952025650 359014957 -1641833173 716002494 -1394832527 2084445302 -846068143 1681615125 -1116436696 1914370320 -185375019 -232526561 -78380684 584469295 -128917372 1237254502 -70169407 238945854 152610090 -416313979 1586678837 2033240046 431259685 1409387429 276015104 -1980471581
REM
CELL 1.54180   50.00000   50.00000   50.00000   90.00000   90.00000   90.00000
LATT -1
SFAC C  
C      1  0.4453610000000  0.4940000000000  0.4933760000000 1.0
C      1  0.4967450000000  0.4991470000000  0.5002030000000 1.0
C      1  0.4506010000000  0.4787170000000  0.5131150000000 1.0
C      1  0.5699620000000  0.5183470000000  0.4956340000000 1.0
C      1  0.5455560000000  0.5119470000000  0.4971570000000 1.0
C      1  0.5206570000000  0.5054170000000  0.4987110000000 1.0
C      1  0.4711180000000  0.4924260000000  0.5018020000000 1.0
END
