TITL C-60890-4815-7 9.67274760846163 125000 -208.079920705125 0 0 32 (C1) n - 1
REM
REM in /rds/project/t2_vol4/rds-t2-cs072/BORA/CARBON/from-Arr/AIRSS/Generating-Clusters/GAP-ML-2020/Only-C1/SD-CG/HFTN-CG
REM
REM
REM
REM
REM
REM ./C.cell (11c1c37f851c82e70ff6c80c92926a4b)
REM AIRSS Version 0.9.1 bugfix July 2018 build 013d7b7c2542+ Fri, 06 Jul 2018 19:26:36 +0100
REM compiler GCC version 9.3.0
REM options -cpp -mtune=generic -march=x86-64 -g -O0
REM seed 750072858 1586479969 1593703766 146580581 -1066002043 1635990316 -92482215 -1322453634 269417953 -224424854 -853757240 849351646 -1326835999 276887297 -2059413620 574570040 68410176 903844131 769261048 -1143833266 1502789076 1083638255 -1073609696 1500213332 909045570 1930931204 -830996422 -1954000899 521917402 1679134139 -1841946249 985033801 -305397961
REM
CELL 1.54180   50.00000   50.00000   50.00000   90.00000   90.00000   90.00000
LATT -1
SFAC C  
C      1  0.4618500000000  0.4698730000000  0.4660250000000 1.0
C      1  0.5468410000000  0.4817470000000  0.4819700000000 1.0
C      1  0.4720590000000  0.5115160000000  0.5510920000000 1.0
C      1  0.5273340000000  0.4647710000000  0.5300930000000 1.0
C      1  0.5443700000000  0.5005680000000  0.5030280000000 1.0
C      1  0.5219320000000  0.5104650000000  0.5507000000000 1.0
C      1  0.4653040000000  0.4952490000000  0.4559540000000 1.0
C      1  0.5088770000000  0.4630240000000  0.4627560000000 1.0
C      1  0.4842700000000  0.4576070000000  0.4763360000000 1.0
C      1  0.4894810000000  0.5039810000000  0.4439700000000 1.0
C      1  0.5009310000000  0.5024210000000  0.5177890000000 1.0
C      1  0.5019680000000  0.5019090000000  0.4873650000000 1.0
C      1  0.5300510000000  0.5169410000000  0.4826600000000 1.0
C      1  0.5164600000000  0.4538470000000  0.5077720000000 1.0
C      1  0.4515660000000  0.4921110000000  0.4805010000000 1.0
C      1  0.5162300000000  0.5404300000000  0.4903080000000 1.0
C      1  0.4689180000000  0.5288100000000  0.5042580000000 1.0
C      1  0.5290090000000  0.4603290000000  0.4830120000000 1.0
C      1  0.5286930000000  0.4930540000000  0.5276700000000 1.0
C      1  0.4582850000000  0.4915120000000  0.5329770000000 1.0
C      1  0.4852000000000  0.5280810000000  0.4555160000000 1.0
C      1  0.4887030000000  0.4584500000000  0.5043200000000 1.0
C      1  0.5130090000000  0.4875850000000  0.4480510000000 1.0
C      1  0.5361000000000  0.5003050000000  0.4602100000000 1.0
C      1  0.5252470000000  0.5382230000000  0.5428480000000 1.0
C      1  0.4887550000000  0.5322610000000  0.4826500000000 1.0
C      1  0.4827110000000  0.5283580000000  0.5291140000000 1.0
C      1  0.4965280000000  0.5049630000000  0.5627100000000 1.0
C      1  0.4567920000000  0.5025830000000  0.5053080000000 1.0
C      1  0.5007390000000  0.5499270000000  0.5358130000000 1.0
C      1  0.5210520000000  0.5486880000000  0.5162200000000 1.0
C      1  0.4807370000000  0.4804080000000  0.5210030000000 1.0
END
