TITL C-60882-1751-6 -0.327593293314739 125000 -891.207374350626 0 0 126 (C1) n - 1
REM
REM in /rds/project/t2_vol4/rds-t2-cs072/BORA/CARBON/from-Arr/AIRSS/Generating-Clusters/GAP-ML-2020/Only-C1/SD-CG/HFTN-CG
REM
REM
REM
REM
REM
REM ./C.cell (11c1c37f851c82e70ff6c80c92926a4b)
REM AIRSS Version 0.9.1 bugfix July 2018 build 013d7b7c2542+ Fri, 06 Jul 2018 19:26:36 +0100
REM compiler GCC version 9.3.0
REM options -cpp -mtune=generic -march=x86-64 -g -O0
REM seed 1247354939 -195435700 64944219 938180819 975132710 -1428501395 -1785847826 1666853560 1558239501 -1343803147 -220448288 -460564798 -1661086347 1536795968 -1134074589 -38295297 -146802945 -1324294951 -815574314 -780544799 1447215442 1934514164 1024359155 -721203141 -1870085925 1508936912 -517054848 -837128393 -1886470872 -1674388851 641397642 206503886 655623365
REM
CELL 1.54180   50.00000   50.00000   50.00000   90.00000   90.00000   90.00000
LATT -1
SFAC C  
C      1  0.4629280000000  0.5178770000000  0.5055510000000 1.0
C      1  0.4637510000000  0.4201780000000  0.5302010000000 1.0
C      1  0.4703830000000  0.5393480000000  0.5450920000000 1.0
C      1  0.5183940000000  0.4701380000000  0.5446850000000 1.0
C      1  0.5424070000000  0.5676640000000  0.4596730000000 1.0
C      1  0.4700760000000  0.5111130000000  0.5542620000000 1.0
C      1  0.4977800000000  0.5095020000000  0.5734050000000 1.0
C      1  0.4737050000000  0.4348570000000  0.4850330000000 1.0
C      1  0.4736230000000  0.4767170000000  0.5898340000000 1.0
C      1  0.5406110000000  0.4530680000000  0.4133820000000 1.0
C      1  0.5547600000000  0.5335910000000  0.5630420000000 1.0
C      1  0.4102180000000  0.4762900000000  0.4993680000000 1.0
C      1  0.5893760000000  0.4744040000000  0.5292700000000 1.0
C      1  0.5742460000000  0.4595670000000  0.5497150000000 1.0
C      1  0.4595810000000  0.4817670000000  0.4090140000000 1.0
C      1  0.5677400000000  0.4257650000000  0.5144090000000 1.0
C      1  0.5613620000000  0.4763280000000  0.5689770000000 1.0
C      1  0.5259830000000  0.4757090000000  0.4968230000000 1.0
C      1  0.5176370000000  0.4671180000000  0.4042070000000 1.0
C      1  0.4566610000000  0.5202280000000  0.4181960000000 1.0
C      1  0.4945150000000  0.4499720000000  0.4126040000000 1.0
C      1  0.5909540000000  0.4681410000000  0.5006200000000 1.0
C      1  0.4512880000000  0.4466590000000  0.4406330000000 1.0
C      1  0.4908350000000  0.4271060000000  0.5367030000000 1.0
C      1  0.5854420000000  0.5022330000000  0.5325910000000 1.0
C      1  0.5574270000000  0.4640650000000  0.4333250000000 1.0
C      1  0.4298070000000  0.4343900000000  0.4999240000000 1.0
C      1  0.4917990000000  0.5471270000000  0.4432600000000 1.0
C      1  0.5419050000000  0.5849700000000  0.5063210000000 1.0
C      1  0.4744650000000  0.4557840000000  0.5705290000000 1.0
C      1  0.5264230000000  0.5791860000000  0.4796750000000 1.0
C      1  0.5142850000000  0.5502850000000  0.4909180000000 1.0
C      1  0.4122350000000  0.5273040000000  0.5344810000000 1.0
C      1  0.4929700000000  0.4202700000000  0.4515990000000 1.0
C      1  0.6026450000000  0.5143880000000  0.4918230000000 1.0
C      1  0.5383930000000  0.4710510000000  0.5227880000000 1.0
C      1  0.5462000000000  0.5071230000000  0.4180870000000 1.0
C      1  0.4777210000000  0.4840010000000  0.4712360000000 1.0
C      1  0.5005060000000  0.4932420000000  0.5076480000000 1.0
C      1  0.5378780000000  0.4222710000000  0.5429320000000 1.0
C      1  0.4488180000000  0.5829470000000  0.5321270000000 1.0
C      1  0.5736550000000  0.5308940000000  0.4596570000000 1.0
C      1  0.4476550000000  0.4481380000000  0.5662220000000 1.0
C      1  0.5334590000000  0.4314200000000  0.4310290000000 1.0
C      1  0.4852380000000  0.5751790000000  0.4543430000000 1.0
C      1  0.4576640000000  0.5755040000000  0.4601400000000 1.0
C      1  0.4403590000000  0.4971110000000  0.4239400000000 1.0
C      1  0.5396930000000  0.5155120000000  0.5101980000000 1.0
C      1  0.4247390000000  0.5393630000000  0.4666040000000 1.0
C      1  0.4762730000000  0.5053870000000  0.4036890000000 1.0
C      1  0.5631080000000  0.4317170000000  0.4740740000000 1.0
C      1  0.4116800000000  0.4675220000000  0.5270530000000 1.0
C      1  0.4478090000000  0.4903230000000  0.5865750000000 1.0
C      1  0.5084790000000  0.5353040000000  0.5835290000000 1.0
C      1  0.5563880000000  0.5568730000000  0.5446790000000 1.0
C      1  0.4785850000000  0.4751610000000  0.5189730000000 1.0
C      1  0.5040930000000  0.4802780000000  0.4587610000000 1.0
C      1  0.4202810000000  0.5491970000000  0.4928900000000 1.0
C      1  0.4445280000000  0.5523570000000  0.4510470000000 1.0
C      1  0.5026470000000  0.5148850000000  0.4048370000000 1.0
C      1  0.4223480000000  0.4413480000000  0.5262350000000 1.0
C      1  0.4815000000000  0.5101760000000  0.4850700000000 1.0
C      1  0.4987640000000  0.4884510000000  0.5945170000000 1.0
C      1  0.4540070000000  0.5843620000000  0.4859460000000 1.0
C      1  0.4182380000000  0.5105660000000  0.4652940000000 1.0
C      1  0.5497650000000  0.5029370000000  0.5569800000000 1.0
C      1  0.5632160000000  0.4326020000000  0.5413980000000 1.0
C      1  0.4969790000000  0.5865910000000  0.5246850000000 1.0
C      1  0.4152760000000  0.4820460000000  0.5519270000000 1.0
C      1  0.4078760000000  0.5034820000000  0.4906440000000 1.0
C      1  0.5478330000000  0.4706130000000  0.5932120000000 1.0
C      1  0.5233490000000  0.4954710000000  0.4040590000000 1.0
C      1  0.5160210000000  0.4168960000000  0.5274410000000 1.0
C      1  0.5006790000000  0.5408280000000  0.5377140000000 1.0
C      1  0.4775450000000  0.5976110000000  0.4939490000000 1.0
C      1  0.5131980000000  0.5129950000000  0.5271220000000 1.0
C      1  0.5057210000000  0.4285830000000  0.4282310000000 1.0
C      1  0.4439340000000  0.5159030000000  0.5712400000000 1.0
C      1  0.5180860000000  0.4986790000000  0.5526210000000 1.0
C      1  0.4266460000000  0.4898400000000  0.4471780000000 1.0
C      1  0.5217380000000  0.4148640000000  0.4986120000000 1.0
C      1  0.5388010000000  0.5337540000000  0.4255880000000 1.0
C      1  0.5812510000000  0.4425140000000  0.4942050000000 1.0
C      1  0.4424540000000  0.5661730000000  0.5058440000000 1.0
C      1  0.5251390000000  0.5901800000000  0.5282160000000 1.0
C      1  0.4309730000000  0.4621660000000  0.4553440000000 1.0
C      1  0.5913160000000  0.5388590000000  0.4797520000000 1.0
C      1  0.5561580000000  0.4987920000000  0.5290870000000 1.0
C      1  0.5183730000000  0.5062930000000  0.4637000000000 1.0
C      1  0.5964800000000  0.5236170000000  0.5180850000000 1.0
C      1  0.5108150000000  0.5374570000000  0.4209480000000 1.0
C      1  0.4668830000000  0.4565820000000  0.4176500000000 1.0
C      1  0.5861350000000  0.5492820000000  0.5063760000000 1.0
C      1  0.5392640000000  0.5001220000000  0.4835360000000 1.0
C      1  0.4552550000000  0.4211770000000  0.5026810000000 1.0
C      1  0.5010810000000  0.5299150000000  0.4707970000000 1.0
C      1  0.4948150000000  0.5571430000000  0.5136950000000 1.0
C      1  0.4630640000000  0.4979620000000  0.5272950000000 1.0
C      1  0.5533380000000  0.5469840000000  0.4467120000000 1.0
C      1  0.5040490000000  0.4289920000000  0.4786110000000 1.0
C      1  0.4665100000000  0.4290450000000  0.4562740000000 1.0
C      1  0.4917130000000  0.4565980000000  0.5436810000000 1.0
C      1  0.4084760000000  0.5275340000000  0.5077240000000 1.0
C      1  0.4518450000000  0.5469020000000  0.5675050000000 1.0
C      1  0.5136150000000  0.5557270000000  0.5616150000000 1.0
C      1  0.4723820000000  0.5987010000000  0.5227470000000 1.0
C      1  0.4636980000000  0.5402660000000  0.4350530000000 1.0
C      1  0.5618030000000  0.4909390000000  0.4361380000000 1.0
C      1  0.4222030000000  0.4558680000000  0.4818410000000 1.0
C      1  0.5896940000000  0.4912200000000  0.4828120000000 1.0
C      1  0.4710440000000  0.4643270000000  0.4921560000000 1.0
C      1  0.5451680000000  0.4453170000000  0.4554390000000 1.0
C      1  0.5493740000000  0.4162880000000  0.4943760000000 1.0
C      1  0.4200620000000  0.5105850000000  0.5537600000000 1.0
C      1  0.4986990000000  0.5902730000000  0.4743920000000 1.0
C      1  0.5338280000000  0.5734380000000  0.5501990000000 1.0
C      1  0.5600190000000  0.5606730000000  0.5143100000000 1.0
C      1  0.4445990000000  0.5708370000000  0.5568320000000 1.0
C      1  0.4315700000000  0.4709200000000  0.5722200000000 1.0
C      1  0.5230640000000  0.4760060000000  0.5985490000000 1.0
C      1  0.5336180000000  0.5420130000000  0.5798610000000 1.0
C      1  0.5669180000000  0.5014770000000  0.4647660000000 1.0
C      1  0.4655010000000  0.5457960000000  0.5144810000000 1.0
C      1  0.4422440000000  0.4318000000000  0.5445320000000 1.0
C      1  0.5407580000000  0.5417700000000  0.5015270000000 1.0
C      1  0.5191660000000  0.4570010000000  0.4728100000000 1.0
END
