TITL C-60889-4534-10 -40.9479413413963 125000 -329.817607954435 0 0 50 (C1) n - 1
REM
REM in /rds/project/t2_vol4/rds-t2-cs072/BORA/CARBON/from-Arr/AIRSS/Generating-Clusters/GAP-ML-2020/Only-C1/SD-CG/HFTN-CG
REM
REM
REM
REM
REM
REM ./C.cell (11c1c37f851c82e70ff6c80c92926a4b)
REM AIRSS Version 0.9.1 bugfix July 2018 build 013d7b7c2542+ Fri, 06 Jul 2018 19:26:36 +0100
REM compiler GCC version 9.3.0
REM options -cpp -mtune=generic -march=x86-64 -g -O0
REM seed -1959698624 2130539503 -2006935372 -1019654405 762966047 626009513 -1871333409 1778438322 1077106223 593921914 334319032 -2079808228 404400917 -882300346 -1255290245 1317486866 97641727 -879852149 358617063 -934503600 -28978422 1859341706 -1868484670 -1532031634 859473863 1181896178 -966729581 -856905985 -1991519396 1336917329 -1302659601 1146101014 295699508
REM
CELL 1.54180   50.00000   50.00000   50.00000   90.00000   90.00000   90.00000
LATT -1
SFAC C  
C      1  0.4805300000000  0.5239150000000  0.5208690000000 1.0
C      1  0.4656210000000  0.5372810000000  0.5424890000000 1.0
C      1  0.4994610000000  0.4247880000000  0.4719480000000 1.0
C      1  0.5279110000000  0.5538220000000  0.4696330000000 1.0
C      1  0.4417210000000  0.5101080000000  0.4955510000000 1.0
C      1  0.5310030000000  0.5219280000000  0.5061280000000 1.0
C      1  0.5458230000000  0.5069880000000  0.4554160000000 1.0
C      1  0.5664250000000  0.4611610000000  0.5183610000000 1.0
C      1  0.4883430000000  0.5363710000000  0.4947370000000 1.0
C      1  0.5158760000000  0.4689090000000  0.4675010000000 1.0
C      1  0.5128590000000  0.5564100000000  0.5305440000000 1.0
C      1  0.5234940000000  0.4564150000000  0.5397280000000 1.0
C      1  0.4684330000000  0.4503860000000  0.4635180000000 1.0
C      1  0.4782710000000  0.4802790000000  0.4938260000000 1.0
C      1  0.4984120000000  0.4918270000000  0.4750890000000 1.0
C      1  0.4784720000000  0.4336100000000  0.4875950000000 1.0
C      1  0.4973380000000  0.4484040000000  0.4559930000000 1.0
C      1  0.5305120000000  0.4595270000000  0.4914390000000 1.0
C      1  0.4570900000000  0.4803230000000  0.5351690000000 1.0
C      1  0.5406220000000  0.5502710000000  0.4950840000000 1.0
C      1  0.5246740000000  0.5271260000000  0.4580240000000 1.0
C      1  0.4978090000000  0.4921500000000  0.5644760000000 1.0
C      1  0.4709020000000  0.5024280000000  0.5656620000000 1.0
C      1  0.5042290000000  0.5217980000000  0.4378230000000 1.0
C      1  0.4621080000000  0.5296800000000  0.5663520000000 1.0
C      1  0.5007960000000  0.5645950000000  0.5050410000000 1.0
C      1  0.4874020000000  0.5021020000000  0.4490640000000 1.0
C      1  0.5012760000000  0.5667650000000  0.4753930000000 1.0
C      1  0.4500560000000  0.4855340000000  0.5607160000000 1.0
C      1  0.4400700000000  0.5210990000000  0.4704800000000 1.0
C      1  0.5187360000000  0.5060360000000  0.5509270000000 1.0
C      1  0.5476580000000  0.5003420000000  0.5149030000000 1.0
C      1  0.4770760000000  0.4597610000000  0.5354920000000 1.0
C      1  0.5601040000000  0.4861190000000  0.4687380000000 1.0
C      1  0.5293420000000  0.5692830000000  0.5128540000000 1.0
C      1  0.4645700000000  0.4994980000000  0.5128490000000 1.0
C      1  0.5540620000000  0.4764260000000  0.4970390000000 1.0
C      1  0.5389920000000  0.4803120000000  0.4514660000000 1.0
C      1  0.4787020000000  0.5282710000000  0.4449270000000 1.0
C      1  0.5104190000000  0.5176570000000  0.4840790000000 1.0
C      1  0.4383570000000  0.4930100000000  0.4726370000000 1.0
C      1  0.5116430000000  0.5260010000000  0.5305300000000 1.0
C      1  0.5158700000000  0.4511590000000  0.5132040000000 1.0
C      1  0.4557440000000  0.5408840000000  0.4554760000000 1.0
C      1  0.4870640000000  0.4540630000000  0.5087190000000 1.0
C      1  0.5499910000000  0.4651860000000  0.5416160000000 1.0
C      1  0.4769190000000  0.5508700000000  0.4714310000000 1.0
C      1  0.4559980000000  0.4714270000000  0.4753330000000 1.0
C      1  0.5420790000000  0.4922790000000  0.5412610000000 1.0
C      1  0.4991360000000  0.4654150000000  0.5528690000000 1.0
END
