TITL C-60883-2189-2 -0.193369379984541 125000 -659.848036869708 0 0 94 (C1) n - 1
REM
REM in /rds/project/t2_vol4/rds-t2-cs072/BORA/CARBON/from-Arr/AIRSS/Generating-Clusters/GAP-ML-2020/Only-C1/SD-CG/HFTN-CG
REM
REM
REM
REM
REM
REM ./C.cell (11c1c37f851c82e70ff6c80c92926a4b)
REM AIRSS Version 0.9.1 bugfix July 2018 build 013d7b7c2542+ Fri, 06 Jul 2018 19:26:36 +0100
REM compiler GCC version 9.3.0
REM options -cpp -mtune=generic -march=x86-64 -g -O0
REM seed -1286040526 1519665610 5664996 -1797544649 -874713049 -657192583 987903031 -453569619 1129496921 -29500868 -226215343 1507864042 901505414 -921824253 1715574293 505866014 -1587112887 617896708 1437910105 -1791846019 1555728436 -1099719791 -1618440858 1447951176 -342434559 504493302 215350056 -531201519 1605525184 -1227423755 -218844770 676705580 643514110
REM
CELL 1.54180   50.00000   50.00000   50.00000   90.00000   90.00000   90.00000
LATT -1
SFAC C  
C      1  0.5374660000000  0.4246140000000  0.4891970000000 1.0
C      1  0.4726400000000  0.5252320000000  0.5609050000000 1.0
C      1  0.5747090000000  0.4599370000000  0.5158280000000 1.0
C      1  0.5339140000000  0.4978090000000  0.5147050000000 1.0
C      1  0.5696550000000  0.4637470000000  0.4877240000000 1.0
C      1  0.4650840000000  0.5150960000000  0.5147740000000 1.0
C      1  0.4531910000000  0.5120850000000  0.4139140000000 1.0
C      1  0.5826890000000  0.4847320000000  0.5269630000000 1.0
C      1  0.5663460000000  0.5173760000000  0.5566940000000 1.0
C      1  0.4191050000000  0.5335520000000  0.4724780000000 1.0
C      1  0.4809110000000  0.4234260000000  0.4907450000000 1.0
C      1  0.5100610000000  0.4649000000000  0.5767960000000 1.0
C      1  0.4793420000000  0.5629880000000  0.5286170000000 1.0
C      1  0.4836070000000  0.4835510000000  0.4894670000000 1.0
C      1  0.4317400000000  0.5291600000000  0.4218990000000 1.0
C      1  0.5309420000000  0.4838030000000  0.5795820000000 1.0
C      1  0.4445290000000  0.5453710000000  0.4833070000000 1.0
C      1  0.5846040000000  0.5045470000000  0.5059990000000 1.0
C      1  0.4914000000000  0.4878490000000  0.5354910000000 1.0
C      1  0.5407660000000  0.5279410000000  0.5662650000000 1.0
C      1  0.5176650000000  0.4145880000000  0.5233860000000 1.0
C      1  0.4777630000000  0.5786840000000  0.5051790000000 1.0
C      1  0.4916440000000  0.5092700000000  0.5766310000000 1.0
C      1  0.5056650000000  0.5299400000000  0.4950930000000 1.0
C      1  0.4763990000000  0.4293770000000  0.5422110000000 1.0
C      1  0.4678670000000  0.4847400000000  0.5160930000000 1.0
C      1  0.4510740000000  0.4940280000000  0.4566080000000 1.0
C      1  0.5730690000000  0.4906950000000  0.5533000000000 1.0
C      1  0.4668990000000  0.4662620000000  0.4221440000000 1.0
C      1  0.5470880000000  0.5688160000000  0.4877190000000 1.0
C      1  0.5207140000000  0.5107620000000  0.5772870000000 1.0
C      1  0.4405100000000  0.4838640000000  0.5497570000000 1.0
C      1  0.5239380000000  0.4629660000000  0.4683040000000 1.0
C      1  0.4435920000000  0.4498570000000  0.4809300000000 1.0
C      1  0.4807980000000  0.5143860000000  0.4900820000000 1.0
C      1  0.4616930000000  0.5695590000000  0.4814460000000 1.0
C      1  0.4335180000000  0.4760460000000  0.4742840000000 1.0
C      1  0.4847090000000  0.5403200000000  0.4507840000000 1.0
C      1  0.5449250000000  0.4219060000000  0.5166120000000 1.0
C      1  0.5042070000000  0.5868630000000  0.4956870000000 1.0
C      1  0.4589700000000  0.4679560000000  0.5654850000000 1.0
C      1  0.5287360000000  0.5779470000000  0.5083490000000 1.0
C      1  0.5448970000000  0.5472550000000  0.4455120000000 1.0
C      1  0.4863260000000  0.5196030000000  0.5360040000000 1.0
C      1  0.5478830000000  0.4479250000000  0.5562510000000 1.0
C      1  0.5454570000000  0.5039200000000  0.4445900000000 1.0
C      1  0.5480170000000  0.4475590000000  0.4761840000000 1.0
C      1  0.4383900000000  0.4738580000000  0.5208370000000 1.0
C      1  0.5051830000000  0.5815860000000  0.4678390000000 1.0
C      1  0.4607000000000  0.4412910000000  0.5614660000000 1.0
C      1  0.5066130000000  0.4675440000000  0.4950020000000 1.0
C      1  0.5010090000000  0.5434210000000  0.5240780000000 1.0
C      1  0.4861240000000  0.4806740000000  0.5692620000000 1.0
C      1  0.4435530000000  0.4464160000000  0.5089140000000 1.0
C      1  0.4444630000000  0.5113050000000  0.5549030000000 1.0
C      1  0.5081610000000  0.4533670000000  0.4440460000000 1.0
C      1  0.4664050000000  0.4364350000000  0.4689030000000 1.0
C      1  0.5545600000000  0.4734970000000  0.5665320000000 1.0
C      1  0.4775940000000  0.4815380000000  0.4604930000000 1.0
C      1  0.5439270000000  0.5496780000000  0.5468130000000 1.0
C      1  0.4816910000000  0.5104160000000  0.4100200000000 1.0
C      1  0.4198530000000  0.5310410000000  0.4447670000000 1.0
C      1  0.4483340000000  0.4870150000000  0.4278280000000 1.0
C      1  0.5305790000000  0.5652890000000  0.4633810000000 1.0
C      1  0.5682500000000  0.5489110000000  0.4882670000000 1.0
C      1  0.5076440000000  0.5450730000000  0.4701390000000 1.0
C      1  0.5785130000000  0.5326330000000  0.5102750000000 1.0
C      1  0.4384430000000  0.5300840000000  0.5119130000000 1.0
C      1  0.4643980000000  0.5548210000000  0.5515960000000 1.0
C      1  0.4234880000000  0.4875340000000  0.4981190000000 1.0
C      1  0.4656230000000  0.4292480000000  0.5151530000000 1.0
C      1  0.4870570000000  0.4801500000000  0.4086870000000 1.0
C      1  0.4376540000000  0.5586660000000  0.5546060000000 1.0
C      1  0.5317950000000  0.5258360000000  0.4318560000000 1.0
C      1  0.4784650000000  0.4526730000000  0.4478920000000 1.0
C      1  0.5691850000000  0.5374890000000  0.5366020000000 1.0
C      1  0.5671820000000  0.5365590000000  0.4622620000000 1.0
C      1  0.5698670000000  0.5085410000000  0.4595280000000 1.0
C      1  0.5266920000000  0.5107150000000  0.4918330000000 1.0
C      1  0.5204320000000  0.4418540000000  0.5631660000000 1.0
C      1  0.5000550000000  0.5224540000000  0.4311790000000 1.0
C      1  0.5779880000000  0.4911300000000  0.4810280000000 1.0
C      1  0.5089120000000  0.4746120000000  0.4252330000000 1.0
C      1  0.4801010000000  0.5692740000000  0.4593650000000 1.0
C      1  0.4324290000000  0.5347900000000  0.5413370000000 1.0
C      1  0.4631480000000  0.5239250000000  0.4675750000000 1.0
C      1  0.5254290000000  0.4927320000000  0.4638590000000 1.0
C      1  0.5015710000000  0.4953800000000  0.4466470000000 1.0
C      1  0.5597690000000  0.4406360000000  0.5311670000000 1.0
C      1  0.5048640000000  0.4251230000000  0.5459230000000 1.0
C      1  0.5157130000000  0.4787980000000  0.5199610000000 1.0
C      1  0.5086310000000  0.4168310000000  0.4956910000000 1.0
C      1  0.4183690000000  0.5154060000000  0.4959990000000 1.0
C      1  0.5244690000000  0.5609440000000  0.5307980000000 1.0
END
