TITL C-60908-5276-10 -13.4784998639653 125000 -175.379248914246 0 0 27 (C1) n - 1
REM
REM in /rds/project/t2_vol4/rds-t2-cs072/BORA/CARBON/from-Arr/AIRSS/Generating-Clusters/GAP-ML-2020/Only-C1/SD-CG/HFTN-CG
REM
REM
REM
REM
REM
REM ./C.cell (11c1c37f851c82e70ff6c80c92926a4b)
REM AIRSS Version 0.9.1 bugfix July 2018 build 013d7b7c2542+ Fri, 06 Jul 2018 19:26:36 +0100
REM compiler GCC version 9.3.0
REM options -cpp -mtune=generic -march=x86-64 -g -O0
REM seed -718245486 420736842 -829475516 576213687 1180489182 260267465 553773410 -109596289 -548509575 -1455918072 554339083 -400647999 520769611 -1620114311 300647165 275649428 -1884397147 493077226 472656671 -178156244 1100510259 1533911587 1429480232 -968394117 1793423859 -1815553762 -924455552 764187598 1377765445 -1494780357 16894939 388918432 -900964515
REM
CELL 1.54180   50.00000   50.00000   50.00000   90.00000   90.00000   90.00000
LATT -1
SFAC C  
C      1  0.5153210000000  0.5039010000000  0.5239290000000 1.0
C      1  0.4917630000000  0.4542680000000  0.4648690000000 1.0
C      1  0.4684480000000  0.5215780000000  0.5100210000000 1.0
C      1  0.4701350000000  0.4695240000000  0.4791290000000 1.0
C      1  0.5144490000000  0.4695560000000  0.4640210000000 1.0
C      1  0.5033880000000  0.4274700000000  0.5160430000000 1.0
C      1  0.4525010000000  0.5066400000000  0.5279860000000 1.0
C      1  0.5223680000000  0.5473820000000  0.4713030000000 1.0
C      1  0.4716120000000  0.5402410000000  0.4648370000000 1.0
C      1  0.4676850000000  0.4628060000000  0.5068350000000 1.0
C      1  0.5044710000000  0.5528170000000  0.5257910000000 1.0
C      1  0.4972860000000  0.4214650000000  0.4906470000000 1.0
C      1  0.4920730000000  0.4261200000000  0.4658350000000 1.0
C      1  0.4687550000000  0.4859690000000  0.5246570000000 1.0
C      1  0.5256080000000  0.5623780000000  0.5384050000000 1.0
C      1  0.4953140000000  0.4539020000000  0.5183530000000 1.0
C      1  0.5572570000000  0.5440490000000  0.5076850000000 1.0
C      1  0.5378710000000  0.5333020000000  0.4899930000000 1.0
C      1  0.5296070000000  0.5071160000000  0.4952960000000 1.0
C      1  0.5417470000000  0.5400990000000  0.5305490000000 1.0
C      1  0.5366910000000  0.5137150000000  0.5410720000000 1.0
C      1  0.4592610000000  0.4930570000000  0.4719070000000 1.0
C      1  0.4968730000000  0.5452530000000  0.4675990000000 1.0
C      1  0.4615080000000  0.5190650000000  0.4807060000000 1.0
C      1  0.4942730000000  0.5287590000000  0.5189720000000 1.0
C      1  0.5263890000000  0.4893500000000  0.4741290000000 1.0
C      1  0.4973440000000  0.4802190000000  0.5294300000000 1.0
END
