TITL C-60900-5109-2 -15.0519018553179 125000 -611.960823400567 0 0 88 (C1) n - 1
REM
REM in /rds/project/t2_vol4/rds-t2-cs072/BORA/CARBON/from-Arr/AIRSS/Generating-Clusters/GAP-ML-2020/Only-C1/SD-CG/HFTN-CG
REM
REM
REM
REM
REM
REM ./C.cell (11c1c37f851c82e70ff6c80c92926a4b)
REM AIRSS Version 0.9.1 bugfix July 2018 build 013d7b7c2542+ Fri, 06 Jul 2018 19:26:36 +0100
REM compiler GCC version 9.3.0
REM options -cpp -mtune=generic -march=x86-64 -g -O0
REM seed -1357150126 829937113 -1249157549 302934005 -545234435 1068233485 -1595962164 -1486698322 -1032575264 -1582764823 1277893070 -1132959178 1397639076 -677605009 -1814786314 -302113809 -750982825 -1760601004 448583663 -432640614 -1331409157 -1421433974 940623103 1757220204 -2142412167 303190693 105505354 1932879049 -725354408 -42438676 -72727588 -443936393 844324148
REM
CELL 1.54180   50.00000   50.00000   50.00000   90.00000   90.00000   90.00000
LATT -1
SFAC C  
C      1  0.4695500000000  0.5123150000000  0.4897900000000 1.0
C      1  0.4584800000000  0.5342700000000  0.5665100000000 1.0
C      1  0.5457880000000  0.4324090000000  0.4508850000000 1.0
C      1  0.5480350000000  0.5583280000000  0.5072760000000 1.0
C      1  0.5383460000000  0.4143930000000  0.4735220000000 1.0
C      1  0.4259960000000  0.5335790000000  0.4973170000000 1.0
C      1  0.5627940000000  0.4263810000000  0.5146970000000 1.0
C      1  0.5838090000000  0.4977520000000  0.4996770000000 1.0
C      1  0.4933120000000  0.4304380000000  0.5329540000000 1.0
C      1  0.4998310000000  0.4811180000000  0.4741810000000 1.0
C      1  0.4675840000000  0.5417350000000  0.5241360000000 1.0
C      1  0.4893680000000  0.4302570000000  0.4661740000000 1.0
C      1  0.5026070000000  0.4709180000000  0.5022240000000 1.0
C      1  0.5116920000000  0.4247680000000  0.4850110000000 1.0
C      1  0.4722480000000  0.4881150000000  0.4770970000000 1.0
C      1  0.4500990000000  0.4761980000000  0.4600740000000 1.0
C      1  0.5115940000000  0.5162710000000  0.5031090000000 1.0
C      1  0.5671330000000  0.5411120000000  0.4957210000000 1.0
C      1  0.4511420000000  0.5866680000000  0.5298020000000 1.0
C      1  0.5654560000000  0.5302580000000  0.4694040000000 1.0
C      1  0.4765830000000  0.5128360000000  0.5739520000000 1.0
C      1  0.4744890000000  0.5818010000000  0.5429500000000 1.0
C      1  0.4969550000000  0.4957970000000  0.5191160000000 1.0
C      1  0.4202700000000  0.5060770000000  0.4881320000000 1.0
C      1  0.4909260000000  0.5317640000000  0.4857730000000 1.0
C      1  0.4365110000000  0.5259800000000  0.5512600000000 1.0
C      1  0.5718560000000  0.5009540000000  0.4721360000000 1.0
C      1  0.5654560000000  0.4885340000000  0.5424430000000 1.0
C      1  0.4314920000000  0.5706990000000  0.5264150000000 1.0
C      1  0.5794760000000  0.5222130000000  0.5129430000000 1.0
C      1  0.5408010000000  0.4848450000000  0.5581980000000 1.0
C      1  0.5233450000000  0.5554710000000  0.4636350000000 1.0
C      1  0.5187160000000  0.4383310000000  0.5440980000000 1.0
C      1  0.5435100000000  0.5380230000000  0.4532160000000 1.0
C      1  0.4270920000000  0.4962710000000  0.4628480000000 1.0
C      1  0.4967630000000  0.4438380000000  0.4429710000000 1.0
C      1  0.4538460000000  0.4424220000000  0.5147790000000 1.0
C      1  0.5504260000000  0.4605020000000  0.4876780000000 1.0
C      1  0.5451310000000  0.4915020000000  0.4332130000000 1.0
C      1  0.5181260000000  0.5653810000000  0.5457440000000 1.0
C      1  0.5483830000000  0.5306400000000  0.5504010000000 1.0
C      1  0.4347800000000  0.4590890000000  0.5009510000000 1.0
C      1  0.4982320000000  0.4674860000000  0.5706640000000 1.0
C      1  0.4856310000000  0.4972510000000  0.4301400000000 1.0
C      1  0.5049510000000  0.5221520000000  0.5706940000000 1.0
C      1  0.4354600000000  0.5105330000000  0.4389910000000 1.0
C      1  0.4729510000000  0.4628210000000  0.5621610000000 1.0
C      1  0.5268050000000  0.5675440000000  0.4901480000000 1.0
C      1  0.5319460000000  0.5175470000000  0.4361120000000 1.0
C      1  0.5713440000000  0.4529470000000  0.5072780000000 1.0
C      1  0.5225820000000  0.4619530000000  0.5608420000000 1.0
C      1  0.5658080000000  0.4818190000000  0.4500830000000 1.0
C      1  0.5034450000000  0.5208900000000  0.4353740000000 1.0
C      1  0.5794130000000  0.4761900000000  0.5199000000000 1.0
C      1  0.4695510000000  0.4436840000000  0.5397530000000 1.0
C      1  0.5569430000000  0.4119350000000  0.4924340000000 1.0
C      1  0.5365710000000  0.4351250000000  0.5234600000000 1.0
C      1  0.4697270000000  0.5101610000000  0.5190660000000 1.0
C      1  0.4426110000000  0.5483890000000  0.4502410000000 1.0
C      1  0.4578030000000  0.4923720000000  0.4345490000000 1.0
C      1  0.5691620000000  0.5164430000000  0.5386320000000 1.0
C      1  0.4284070000000  0.5359800000000  0.4299400000000 1.0
C      1  0.4357450000000  0.5420960000000  0.5244980000000 1.0
C      1  0.5414520000000  0.5541190000000  0.5357240000000 1.0
C      1  0.4696460000000  0.5585620000000  0.4546460000000 1.0
C      1  0.4907530000000  0.4205480000000  0.5059900000000 1.0
C      1  0.4610840000000  0.5661760000000  0.4813450000000 1.0
C      1  0.5254220000000  0.4427490000000  0.4353440000000 1.0
C      1  0.4966140000000  0.5429480000000  0.4554610000000 1.0
C      1  0.4682330000000  0.4328670000000  0.4879020000000 1.0
C      1  0.5309530000000  0.5116460000000  0.5645910000000 1.0
C      1  0.5212150000000  0.4995090000000  0.4825940000000 1.0
C      1  0.4999990000000  0.4738590000000  0.4408490000000 1.0
C      1  0.4619800000000  0.4885990000000  0.5687710000000 1.0
C      1  0.5265380000000  0.4709770000000  0.4290870000000 1.0
C      1  0.4359020000000  0.5522760000000  0.4786010000000 1.0
C      1  0.4425360000000  0.4942450000000  0.5278710000000 1.0
C      1  0.5472910000000  0.4893480000000  0.4872630000000 1.0
C      1  0.5015090000000  0.5489190000000  0.5616310000000 1.0
C      1  0.4377230000000  0.4982690000000  0.5544910000000 1.0
C      1  0.4259170000000  0.4854060000000  0.5073700000000 1.0
C      1  0.4745200000000  0.5541620000000  0.5532430000000 1.0
C      1  0.5027930000000  0.5753360000000  0.5037780000000 1.0
C      1  0.5610380000000  0.4549420000000  0.4609360000000 1.0
C      1  0.4453290000000  0.4513370000000  0.4753570000000 1.0
C      1  0.4803270000000  0.5561060000000  0.5000280000000 1.0
C      1  0.5012320000000  0.5826550000000  0.5306140000000 1.0
C      1  0.5251040000000  0.4488660000000  0.4991420000000 1.0
END
