TITL C-60889-4534-9 0.039606672216378 125000 -585.550945504474 0 0 85 (C1) n - 1
REM
REM in /rds/project/t2_vol4/rds-t2-cs072/BORA/CARBON/from-Arr/AIRSS/Generating-Clusters/GAP-ML-2020/Only-C1/SD-CG/HFTN-CG
REM
REM
REM
REM
REM
REM ./C.cell (11c1c37f851c82e70ff6c80c92926a4b)
REM AIRSS Version 0.9.1 bugfix July 2018 build 013d7b7c2542+ Fri, 06 Jul 2018 19:26:36 +0100
REM compiler GCC version 9.3.0
REM options -cpp -mtune=generic -march=x86-64 -g -O0
REM seed 1149261904 1780780923 2063500253 1483801263 1956381879 309815967 -501866139 1450757125 1334510057 -1176956447 -1266568489 -1669357654 744219746 -1922319365 -648171722 180431381 -311156429 1666793399 1279076276 281728824 -1423210378 786633972 -1246690164 882974830 1697435448 1068233992 1656446736 -118299544 -226424416 -622107866 -715724507 -910975881 -707505928
REM
CELL 1.54180   50.00000   50.00000   50.00000   90.00000   90.00000   90.00000
LATT -1
SFAC C  
C      1  0.5373640000000  0.5300710000000  0.4380450000000 1.0
C      1  0.5643870000000  0.4633620000000  0.4716630000000 1.0
C      1  0.5323020000000  0.5080780000000  0.4932310000000 1.0
C      1  0.4504300000000  0.5580040000000  0.4949030000000 1.0
C      1  0.4876010000000  0.4410370000000  0.5239170000000 1.0
C      1  0.4978400000000  0.4708660000000  0.4808530000000 1.0
C      1  0.4632590000000  0.4785410000000  0.4385360000000 1.0
C      1  0.4590940000000  0.4962440000000  0.5709890000000 1.0
C      1  0.4474830000000  0.5374650000000  0.4724100000000 1.0
C      1  0.5648050000000  0.5403040000000  0.5269040000000 1.0
C      1  0.4774590000000  0.4496090000000  0.5512890000000 1.0
C      1  0.4625490000000  0.5448870000000  0.5441990000000 1.0
C      1  0.5077600000000  0.4827340000000  0.5312880000000 1.0
C      1  0.5266650000000  0.5077170000000  0.4240120000000 1.0
C      1  0.5024380000000  0.5114140000000  0.5784330000000 1.0
C      1  0.4441040000000  0.5456470000000  0.5205530000000 1.0
C      1  0.5724150000000  0.4788490000000  0.4941750000000 1.0
C      1  0.5192630000000  0.4685330000000  0.5560540000000 1.0
C      1  0.5420500000000  0.4454750000000  0.5108300000000 1.0
C      1  0.4668680000000  0.5151660000000  0.5477590000000 1.0
C      1  0.4630970000000  0.5091060000000  0.5194160000000 1.0
C      1  0.5322180000000  0.5730000000000  0.5315690000000 1.0
C      1  0.4145010000000  0.4894500000000  0.5527040000000 1.0
C      1  0.5117900000000  0.4487400000000  0.4615010000000 1.0
C      1  0.4762310000000  0.4323940000000  0.4541600000000 1.0
C      1  0.4406060000000  0.4650890000000  0.5225840000000 1.0
C      1  0.4897660000000  0.4690960000000  0.5106470000000 1.0
C      1  0.4732400000000  0.4875160000000  0.4672790000000 1.0
C      1  0.4812300000000  0.4209090000000  0.4813640000000 1.0
C      1  0.5715590000000  0.5309670000000  0.4811040000000 1.0
C      1  0.4622860000000  0.4817640000000  0.5104230000000 1.0
C      1  0.4424910000000  0.4970880000000  0.4298450000000 1.0
C      1  0.5623980000000  0.5263890000000  0.4538830000000 1.0
C      1  0.4491670000000  0.4861660000000  0.4825510000000 1.0
C      1  0.4891610000000  0.5347070000000  0.4350710000000 1.0
C      1  0.5478090000000  0.5539020000000  0.5458450000000 1.0
C      1  0.4845400000000  0.5230740000000  0.5021910000000 1.0
C      1  0.5030600000000  0.5420940000000  0.5704830000000 1.0
C      1  0.5316780000000  0.5097850000000  0.5748290000000 1.0
C      1  0.5305600000000  0.5000790000000  0.5213580000000 1.0
C      1  0.4413600000000  0.4579680000000  0.4753890000000 1.0
C      1  0.5306900000000  0.5363540000000  0.5602820000000 1.0
C      1  0.5592460000000  0.4675610000000  0.5178830000000 1.0
C      1  0.5499200000000  0.4411180000000  0.4836260000000 1.0
C      1  0.5206930000000  0.5587060000000  0.4695700000000 1.0
C      1  0.5072530000000  0.5392600000000  0.5132530000000 1.0
C      1  0.4988860000000  0.4403310000000  0.4384320000000 1.0
C      1  0.5137210000000  0.4955080000000  0.4777380000000 1.0
C      1  0.4346620000000  0.5177900000000  0.5127790000000 1.0
C      1  0.5414900000000  0.5759930000000  0.5052650000000 1.0
C      1  0.4417370000000  0.5226900000000  0.4277590000000 1.0
C      1  0.4499800000000  0.4571560000000  0.5499750000000 1.0
C      1  0.5289300000000  0.5384170000000  0.4922500000000 1.0
C      1  0.4896970000000  0.5111870000000  0.4764730000000 1.0
C      1  0.5340210000000  0.4804440000000  0.4288420000000 1.0
C      1  0.4877590000000  0.4834710000000  0.4222540000000 1.0
C      1  0.5275460000000  0.4277770000000  0.4718950000000 1.0
C      1  0.4676630000000  0.5797770000000  0.4965670000000 1.0
C      1  0.4425780000000  0.4442720000000  0.5005830000000 1.0
C      1  0.4222540000000  0.4921060000000  0.5271080000000 1.0
C      1  0.5554930000000  0.4900890000000  0.5363490000000 1.0
C      1  0.5410200000000  0.4865700000000  0.5624780000000 1.0
C      1  0.4843530000000  0.4881350000000  0.5822100000000 1.0
C      1  0.4364210000000  0.5137820000000  0.4842960000000 1.0
C      1  0.5781170000000  0.5073040000000  0.4979580000000 1.0
C      1  0.5172560000000  0.5230350000000  0.5349720000000 1.0
C      1  0.5150660000000  0.4308680000000  0.5150570000000 1.0
C      1  0.4554450000000  0.4511020000000  0.4519600000000 1.0
C      1  0.5089350000000  0.4182470000000  0.4902570000000 1.0
C      1  0.4937510000000  0.5826330000000  0.5041160000000 1.0
C      1  0.4945930000000  0.4634100000000  0.5699440000000 1.0
C      1  0.4379420000000  0.4785280000000  0.5661740000000 1.0
C      1  0.5579910000000  0.4772310000000  0.4458120000000 1.0
C      1  0.4606990000000  0.5360050000000  0.4454460000000 1.0
C      1  0.5086190000000  0.4649580000000  0.4264620000000 1.0
C      1  0.5692490000000  0.5015520000000  0.4469060000000 1.0
C      1  0.5183230000000  0.5805320000000  0.4877890000000 1.0
C      1  0.4665550000000  0.4293840000000  0.5038160000000 1.0
C      1  0.5717920000000  0.5129460000000  0.5254480000000 1.0
C      1  0.5029110000000  0.5682470000000  0.5292450000000 1.0
C      1  0.4981180000000  0.5103630000000  0.4220480000000 1.0
C      1  0.4865560000000  0.5573950000000  0.5523320000000 1.0
C      1  0.4956770000000  0.5069550000000  0.5477800000000 1.0
C      1  0.5571570000000  0.5498670000000  0.5001260000000 1.0
C      1  0.5143540000000  0.5476580000000  0.4442460000000 1.0
END
