TITL C-60904-5362-8 204.262194818036 125000 -1060.47673561265 0 0 150 (C1) n - 1
REM
REM in /rds/project/t2_vol4/rds-t2-cs072/BORA/CARBON/from-Arr/AIRSS/Generating-Clusters/GAP-ML-2020/Only-C1/SD-CG/HFTN-CG
REM
REM
REM
REM
REM
REM ./C.cell (11c1c37f851c82e70ff6c80c92926a4b)
REM AIRSS Version 0.9.1 bugfix July 2018 build 013d7b7c2542+ Fri, 06 Jul 2018 19:26:36 +0100
REM compiler GCC version 9.3.0
REM options -cpp -mtune=generic -march=x86-64 -g -O0
REM seed 1256573719 1711989919 -1584885344 -20426634 -2008424568 -1519069694 -1578849754 1037167248 150865180 878279202 -1913340472 571304742 1160947392 545138662 -114682623 1142300519 -904390540 -1302959044 -342211800 751051061 776034045 -1383559583 -1260661913 1919574137 -1268034938 1103737367 -1242629726 -345756000 -953276826 -769743265 359664524 765242959 1624321549
REM
CELL 1.54180   50.00000   50.00000   50.00000   90.00000   90.00000   90.00000
LATT -1
SFAC C  
C      1  0.5912520000000  0.4869210000000  0.4959320000000 1.0
C      1  0.4634490000000  0.5551820000000  0.5743690000000 1.0
C      1  0.5665900000000  0.5009340000000  0.4264750000000 1.0
C      1  0.4758310000000  0.5742700000000  0.4412600000000 1.0
C      1  0.4889530000000  0.4385820000000  0.5793130000000 1.0
C      1  0.5103510000000  0.5575410000000  0.5189020000000 1.0
C      1  0.4640000000000  0.4712710000000  0.4925690000000 1.0
C      1  0.4386910000000  0.5124610000000  0.5792810000000 1.0
C      1  0.4705330000000  0.5065200000000  0.5494000000000 1.0
C      1  0.4713670000000  0.5949720000000  0.5188890000000 1.0
C      1  0.4104310000000  0.4505170000000  0.4965320000000 1.0
C      1  0.4950100000000  0.5009910000000  0.5339840000000 1.0
C      1  0.4106490000000  0.5165740000000  0.5411980000000 1.0
C      1  0.5867970000000  0.5155430000000  0.5392000000000 1.0
C      1  0.4216990000000  0.4278020000000  0.5108620000000 1.0
C      1  0.5041570000000  0.5452610000000  0.5457200000000 1.0
C      1  0.5739010000000  0.4415530000000  0.4843230000000 1.0
C      1  0.4548750000000  0.4416570000000  0.4423680000000 1.0
C      1  0.5595970000000  0.4240090000000  0.5242300000000 1.0
C      1  0.5328130000000  0.5245100000000  0.4584280000000 1.0
C      1  0.5745780000000  0.5415270000000  0.5432000000000 1.0
C      1  0.4701680000000  0.4575140000000  0.4636310000000 1.0
C      1  0.5400890000000  0.4128300000000  0.5422070000000 1.0
C      1  0.5344920000000  0.5441000000000  0.5047400000000 1.0
C      1  0.5374070000000  0.4262000000000  0.5680040000000 1.0
C      1  0.4606870000000  0.4678150000000  0.4016770000000 1.0
C      1  0.4267950000000  0.5460170000000  0.4830840000000 1.0
C      1  0.4447120000000  0.4115310000000  0.5044570000000 1.0
C      1  0.5518910000000  0.4481710000000  0.5757880000000 1.0
C      1  0.4225850000000  0.4728180000000  0.5637440000000 1.0
C      1  0.5334150000000  0.4201620000000  0.4542870000000 1.0
C      1  0.5109480000000  0.4061940000000  0.5421170000000 1.0
C      1  0.5620450000000  0.5048040000000  0.5800890000000 1.0
C      1  0.4450690000000  0.5317080000000  0.4212460000000 1.0
C      1  0.4235790000000  0.5170860000000  0.4934680000000 1.0
C      1  0.4945850000000  0.5894410000000  0.5584180000000 1.0
C      1  0.4123510000000  0.4588900000000  0.5420260000000 1.0
C      1  0.5429170000000  0.5717720000000  0.5590720000000 1.0
C      1  0.5204280000000  0.5867510000000  0.4429070000000 1.0
C      1  0.4244620000000  0.5207400000000  0.4395490000000 1.0
C      1  0.4813720000000  0.5281290000000  0.4559130000000 1.0
C      1  0.5530990000000  0.5311950000000  0.5851390000000 1.0
C      1  0.4504940000000  0.5154780000000  0.5092330000000 1.0
C      1  0.5754270000000  0.4481820000000  0.5314260000000 1.0
C      1  0.5251740000000  0.4651360000000  0.5020280000000 1.0
C      1  0.5008720000000  0.5739090000000  0.4263440000000 1.0
C      1  0.5226690000000  0.5439810000000  0.4773300000000 1.0
C      1  0.5140250000000  0.4416640000000  0.4456290000000 1.0
C      1  0.5047300000000  0.5289530000000  0.3981010000000 1.0
C      1  0.5631920000000  0.5553880000000  0.5188730000000 1.0
C      1  0.4174000000000  0.4775540000000  0.4543610000000 1.0
C      1  0.4837030000000  0.5543060000000  0.5035380000000 1.0
C      1  0.5610430000000  0.5510000000000  0.5665130000000 1.0
C      1  0.4411440000000  0.4880290000000  0.4074930000000 1.0
C      1  0.4632120000000  0.4086340000000  0.5266200000000 1.0
C      1  0.5799590000000  0.4948840000000  0.5598440000000 1.0
C      1  0.4211560000000  0.4907090000000  0.4287830000000 1.0
C      1  0.5426590000000  0.5527120000000  0.4216670000000 1.0
C      1  0.4917720000000  0.4008190000000  0.5210330000000 1.0
C      1  0.4056460000000  0.4723140000000  0.5167450000000 1.0
C      1  0.4498830000000  0.4243130000000  0.5485530000000 1.0
C      1  0.5312740000000  0.4100720000000  0.4817600000000 1.0
C      1  0.4386300000000  0.5619540000000  0.5269600000000 1.0
C      1  0.5558450000000  0.4258570000000  0.4392950000000 1.0
C      1  0.4534120000000  0.5848350000000  0.5380920000000 1.0
C      1  0.5906990000000  0.5135540000000  0.5099970000000 1.0
C      1  0.5827330000000  0.5412470000000  0.4988490000000 1.0
C      1  0.5876950000000  0.5040720000000  0.4461940000000 1.0
C      1  0.4840320000000  0.4807880000000  0.3915750000000 1.0
C      1  0.5214250000000  0.5875390000000  0.5180600000000 1.0
C      1  0.5066480000000  0.4658800000000  0.4009920000000 1.0
C      1  0.5255810000000  0.5314290000000  0.5941600000000 1.0
C      1  0.5088570000000  0.5545420000000  0.5930290000000 1.0
C      1  0.4598750000000  0.5489130000000  0.4416460000000 1.0
C      1  0.5506450000000  0.4762040000000  0.4238480000000 1.0
C      1  0.5087150000000  0.5144750000000  0.4442220000000 1.0
C      1  0.4369380000000  0.4301500000000  0.4603930000000 1.0
C      1  0.4245470000000  0.4335130000000  0.5381810000000 1.0
C      1  0.4973410000000  0.5984030000000  0.5318100000000 1.0
C      1  0.5533160000000  0.5905810000000  0.4825670000000 1.0
C      1  0.4973560000000  0.4722180000000  0.5348660000000 1.0
C      1  0.5026300000000  0.4483210000000  0.4957230000000 1.0
C      1  0.5391350000000  0.5086700000000  0.5357540000000 1.0
C      1  0.5150400000000  0.5531560000000  0.4109220000000 1.0
C      1  0.5030260000000  0.4017400000000  0.4928480000000 1.0
C      1  0.5150960000000  0.5084080000000  0.4139060000000 1.0
C      1  0.5680400000000  0.4655940000000  0.5542460000000 1.0
C      1  0.4165690000000  0.4513160000000  0.4683420000000 1.0
C      1  0.5088320000000  0.5949500000000  0.4679300000000 1.0
C      1  0.4615340000000  0.4407840000000  0.5697170000000 1.0
C      1  0.4934290000000  0.4395150000000  0.4680300000000 1.0
C      1  0.5084210000000  0.4208340000000  0.5679280000000 1.0
C      1  0.4518590000000  0.4951450000000  0.5302370000000 1.0
C      1  0.5400950000000  0.5043790000000  0.4806320000000 1.0
C      1  0.5811400000000  0.5318450000000  0.4502760000000 1.0
C      1  0.5675310000000  0.4498690000000  0.4349600000000 1.0
C      1  0.4948290000000  0.5358590000000  0.4827830000000 1.0
C      1  0.5471220000000  0.5787280000000  0.5324630000000 1.0
C      1  0.4388510000000  0.5667100000000  0.4980770000000 1.0
C      1  0.4823500000000  0.5520340000000  0.5954030000000 1.0
C      1  0.4550420000000  0.5133200000000  0.4025660000000 1.0
C      1  0.5426220000000  0.4814740000000  0.5469990000000 1.0
C      1  0.5526980000000  0.4793800000000  0.4698790000000 1.0
C      1  0.5306730000000  0.4700980000000  0.4484140000000 1.0
C      1  0.4952480000000  0.5084830000000  0.5000660000000 1.0
C      1  0.5312250000000  0.4632600000000  0.5894780000000 1.0
C      1  0.5070000000000  0.4878280000000  0.4566910000000 1.0
C      1  0.5238740000000  0.4663710000000  0.5316100000000 1.0
C      1  0.5408410000000  0.5158430000000  0.5082580000000 1.0
C      1  0.4670940000000  0.5818680000000  0.5626500000000 1.0
C      1  0.5555730000000  0.5283020000000  0.4344030000000 1.0
C      1  0.5275050000000  0.5956980000000  0.4902920000000 1.0
C      1  0.4065440000000  0.5022650000000  0.5153230000000 1.0
C      1  0.4910270000000  0.4881180000000  0.5896020000000 1.0
C      1  0.4625490000000  0.5418510000000  0.5214380000000 1.0
C      1  0.4689460000000  0.4451950000000  0.4182510000000 1.0
C      1  0.4548910000000  0.4672500000000  0.5189010000000 1.0
C      1  0.5802400000000  0.5503100000000  0.4715300000000 1.0
C      1  0.4790370000000  0.4818530000000  0.4512450000000 1.0
C      1  0.4979470000000  0.4453250000000  0.4194660000000 1.0
C      1  0.4178920000000  0.5006340000000  0.5646520000000 1.0
C      1  0.4637450000000  0.4923620000000  0.5777020000000 1.0
C      1  0.5151290000000  0.4908800000000  0.4868030000000 1.0
C      1  0.4297610000000  0.5031030000000  0.4656550000000 1.0
C      1  0.5022500000000  0.4614670000000  0.5909110000000 1.0
C      1  0.4687620000000  0.5006660000000  0.4911520000000 1.0
C      1  0.4241910000000  0.5423790000000  0.5462340000000 1.0
C      1  0.4817140000000  0.4584000000000  0.5143050000000 1.0
C      1  0.5146790000000  0.5695240000000  0.5677190000000 1.0
C      1  0.5461140000000  0.5745060000000  0.4401330000000 1.0
C      1  0.5139130000000  0.5069210000000  0.5813380000000 1.0
C      1  0.4747360000000  0.5375180000000  0.5485420000000 1.0
C      1  0.4384800000000  0.5396820000000  0.5713820000000 1.0
C      1  0.4668630000000  0.5800000000000  0.4932260000000 1.0
C      1  0.5371120000000  0.4888550000000  0.5790860000000 1.0
C      1  0.4829230000000  0.5099930000000  0.3940750000000 1.0
C      1  0.5525230000000  0.4612080000000  0.4913140000000 1.0
C      1  0.4640510000000  0.5044060000000  0.4623610000000 1.0
C      1  0.4805860000000  0.5876770000000  0.4671180000000 1.0
C      1  0.5857360000000  0.4828650000000  0.4665250000000 1.0
C      1  0.5151990000000  0.5178060000000  0.5490790000000 1.0
C      1  0.5276880000000  0.4828330000000  0.4071520000000 1.0
C      1  0.5561760000000  0.4202800000000  0.4960010000000 1.0
C      1  0.5804860000000  0.4614810000000  0.5061970000000 1.0
C      1  0.4488820000000  0.4664000000000  0.5735800000000 1.0
C      1  0.5828170000000  0.4545970000000  0.4586370000000 1.0
C      1  0.5635730000000  0.5739190000000  0.4637750000000 1.0
C      1  0.4829640000000  0.4123020000000  0.4752400000000 1.0
C      1  0.4536840000000  0.4131100000000  0.4781480000000 1.0
C      1  0.4329140000000  0.5456250000000  0.4561090000000 1.0
END
