TITL C-60911-5405-7 -0.089515731201939 125000 -330.442937867705 0 0 49 (C1) n - 1
REM
REM in /rds/project/t2_vol4/rds-t2-cs072/BORA/CARBON/from-Arr/AIRSS/Generating-Clusters/GAP-ML-2020/Only-C1/SD-CG/HFTN-CG
REM
REM
REM
REM
REM
REM ./C.cell (11c1c37f851c82e70ff6c80c92926a4b)
REM AIRSS Version 0.9.1 bugfix July 2018 build 013d7b7c2542+ Fri, 06 Jul 2018 19:26:36 +0100
REM compiler GCC version 9.3.0
REM options -cpp -mtune=generic -march=x86-64 -g -O0
REM seed 2031467616 -234169078 1948483548 -1563263260 -1387823822 517742799 309752984 -132343703 1849995916 342899241 -1773148759 336543901 946600538 1939834072 1083770834 -1923799436 700222757 -331911087 1501218351 112614400 -913589561 466603252 -588454701 1093243945 770281312 -1242882206 -2054205319 614155563 498555813 -2054682647 -1130848469 -944464531 1346769414
REM
CELL 1.54180   50.00000   50.00000   50.00000   90.00000   90.00000   90.00000
LATT -1
SFAC C  
C      1  0.4915920000000  0.5028110000000  0.5900680000000 1.0
C      1  0.5146890000000  0.5102830000000  0.4327210000000 1.0
C      1  0.4631280000000  0.4549320000000  0.4986110000000 1.0
C      1  0.4307890000000  0.4889930000000  0.5141420000000 1.0
C      1  0.4826420000000  0.4463410000000  0.4799430000000 1.0
C      1  0.4375430000000  0.5009270000000  0.5391920000000 1.0
C      1  0.5778640000000  0.5165060000000  0.4630270000000 1.0
C      1  0.5018490000000  0.4418310000000  0.5224940000000 1.0
C      1  0.5504250000000  0.4605070000000  0.5033800000000 1.0
C      1  0.5112910000000  0.5019440000000  0.5714830000000 1.0
C      1  0.4712750000000  0.5267210000000  0.4522440000000 1.0
C      1  0.5071090000000  0.5433600000000  0.5377380000000 1.0
C      1  0.4910220000000  0.4630300000000  0.4599780000000 1.0
C      1  0.4875070000000  0.4790340000000  0.4379740000000 1.0
C      1  0.4775000000000  0.4565760000000  0.5234990000000 1.0
C      1  0.5120430000000  0.4806790000000  0.5475390000000 1.0
C      1  0.5303460000000  0.4518720000000  0.4843780000000 1.0
C      1  0.5155590000000  0.4937680000000  0.4883910000000 1.0
C      1  0.5196640000000  0.4829040000000  0.4384460000000 1.0
C      1  0.5295260000000  0.5024520000000  0.5337760000000 1.0
C      1  0.4473550000000  0.5320320000000  0.4955810000000 1.0
C      1  0.4595630000000  0.4931540000000  0.5562050000000 1.0
C      1  0.5371810000000  0.5056590000000  0.5042420000000 1.0
C      1  0.4503650000000  0.5183510000000  0.4703960000000 1.0
C      1  0.4336810000000  0.5172720000000  0.5159820000000 1.0
C      1  0.5571690000000  0.5258340000000  0.4514740000000 1.0
C      1  0.4869210000000  0.5584150000000  0.4876740000000 1.0
C      1  0.5806410000000  0.4993970000000  0.4830190000000 1.0
C      1  0.4867760000000  0.5487980000000  0.4604000000000 1.0
C      1  0.4428690000000  0.4745250000000  0.4926440000000 1.0
C      1  0.5255190000000  0.5532560000000  0.5174760000000 1.0
C      1  0.5156220000000  0.5485100000000  0.4601820000000 1.0
C      1  0.4827840000000  0.4826590000000  0.5369940000000 1.0
C      1  0.5207150000000  0.4727560000000  0.4660780000000 1.0
C      1  0.4858120000000  0.5080100000000  0.4368200000000 1.0
C      1  0.4821350000000  0.5348830000000  0.5275820000000 1.0
C      1  0.5474190000000  0.4501980000000  0.5284680000000 1.0
C      1  0.5071670000000  0.4385290000000  0.4949220000000 1.0
C      1  0.4821920000000  0.5061490000000  0.5181670000000 1.0
C      1  0.5612870000000  0.4884060000000  0.4979110000000 1.0
C      1  0.4671130000000  0.4987470000000  0.5816960000000 1.0
C      1  0.5223750000000  0.4533960000000  0.5396190000000 1.0
C      1  0.4913190000000  0.5032930000000  0.4924090000000 1.0
C      1  0.5308590000000  0.5307160000000  0.4447480000000 1.0
C      1  0.4463890000000  0.4913090000000  0.4718170000000 1.0
C      1  0.4688670000000  0.5482500000000  0.5054660000000 1.0
C      1  0.5201060000000  0.5217820000000  0.5523200000000 1.0
C      1  0.5388650000000  0.5356840000000  0.5018450000000 1.0
C      1  0.5175720000000  0.5545580000000  0.4888380000000 1.0
END
