TITL C-60911-5405-6 -76.8979566457503 125000 -918.294475140089 0 0 133 (C1) n - 1
REM
REM in /rds/project/t2_vol4/rds-t2-cs072/BORA/CARBON/from-Arr/AIRSS/Generating-Clusters/GAP-ML-2020/Only-C1/SD-CG/HFTN-CG
REM
REM
REM
REM
REM
REM ./C.cell (11c1c37f851c82e70ff6c80c92926a4b)
REM AIRSS Version 0.9.1 bugfix July 2018 build 013d7b7c2542+ Fri, 06 Jul 2018 19:26:36 +0100
REM compiler GCC version 9.3.0
REM options -cpp -mtune=generic -march=x86-64 -g -O0
REM seed -1130653817 -27704988 -489226850 -39106677 -353574115 911156448 -955251380 -1164604681 853444314 -1161797394 -106136659 -343011358 -1696560617 620797600 1683564363 471452618 -830710306 -1787852284 -616968035 -2055048100 -1021960112 -455376417 1874310540 552577455 -1360735283 -1065320697 -170180886 -570023641 2089522221 1177043319 1152736639 -1295660134 508627177
REM
CELL 1.54180   50.00000   50.00000   50.00000   90.00000   90.00000   90.00000
LATT -1
SFAC C  
C      1  0.5220590000000  0.4258880000000  0.4403590000000 1.0
C      1  0.4762690000000  0.5798810000000  0.4861690000000 1.0
C      1  0.4996700000000  0.4979360000000  0.4975310000000 1.0
C      1  0.5003070000000  0.4376940000000  0.4239850000000 1.0
C      1  0.5539340000000  0.5250190000000  0.4766400000000 1.0
C      1  0.4347450000000  0.4419460000000  0.5126500000000 1.0
C      1  0.4968670000000  0.5316770000000  0.4056260000000 1.0
C      1  0.5408590000000  0.4527990000000  0.4086100000000 1.0
C      1  0.4460870000000  0.4960990000000  0.5882300000000 1.0
C      1  0.5156970000000  0.4558990000000  0.4806410000000 1.0
C      1  0.5662560000000  0.4842380000000  0.5706950000000 1.0
C      1  0.5464980000000  0.5471420000000  0.4341540000000 1.0
C      1  0.4061580000000  0.4755730000000  0.4955360000000 1.0
C      1  0.5034570000000  0.4860620000000  0.4094020000000 1.0
C      1  0.4812730000000  0.4349760000000  0.5675590000000 1.0
C      1  0.5482110000000  0.4379560000000  0.4309960000000 1.0
C      1  0.4218630000000  0.5193280000000  0.5464320000000 1.0
C      1  0.4832700000000  0.4276230000000  0.5046870000000 1.0
C      1  0.4072830000000  0.5226880000000  0.4983790000000 1.0
C      1  0.5243210000000  0.4064010000000  0.4900310000000 1.0
C      1  0.4055680000000  0.5113680000000  0.5249650000000 1.0
C      1  0.4628740000000  0.5329550000000  0.4904490000000 1.0
C      1  0.5167270000000  0.4127120000000  0.5361480000000 1.0
C      1  0.4921670000000  0.4504630000000  0.5246600000000 1.0
C      1  0.4277120000000  0.5717760000000  0.4805110000000 1.0
C      1  0.4240930000000  0.5126070000000  0.4115850000000 1.0
C      1  0.5452210000000  0.5566600000000  0.5218070000000 1.0
C      1  0.4867950000000  0.5660530000000  0.4395430000000 1.0
C      1  0.5270410000000  0.5844040000000  0.4946240000000 1.0
C      1  0.5177280000000  0.5351150000000  0.5899250000000 1.0
C      1  0.4485280000000  0.5765470000000  0.4992710000000 1.0
C      1  0.4921660000000  0.4382610000000  0.4762780000000 1.0
C      1  0.5580230000000  0.5541120000000  0.5495080000000 1.0
C      1  0.4308570000000  0.4944680000000  0.4313200000000 1.0
C      1  0.5060960000000  0.4364190000000  0.5505990000000 1.0
C      1  0.4538090000000  0.5278490000000  0.4623390000000 1.0
C      1  0.4132650000000  0.5001420000000  0.4814260000000 1.0
C      1  0.5376630000000  0.5150980000000  0.5898940000000 1.0
C      1  0.4590060000000  0.4808210000000  0.4797920000000 1.0
C      1  0.5414580000000  0.4704680000000  0.5805670000000 1.0
C      1  0.5444370000000  0.4143890000000  0.5328070000000 1.0
C      1  0.4430500000000  0.5212590000000  0.6007780000000 1.0
C      1  0.4335930000000  0.4948390000000  0.5605530000000 1.0
C      1  0.5792760000000  0.4998740000000  0.4524170000000 1.0
C      1  0.5168970000000  0.5114920000000  0.4097740000000 1.0
C      1  0.4374330000000  0.5001530000000  0.4624790000000 1.0
C      1  0.4183440000000  0.4725540000000  0.5460560000000 1.0
C      1  0.5024740000000  0.5578250000000  0.4137740000000 1.0
C      1  0.4706410000000  0.4785610000000  0.5942360000000 1.0
C      1  0.4951640000000  0.6079240000000  0.5242850000000 1.0
C      1  0.4397750000000  0.5714000000000  0.4542910000000 1.0
C      1  0.4958830000000  0.4934260000000  0.5971570000000 1.0
C      1  0.5627080000000  0.5121400000000  0.5737840000000 1.0
C      1  0.4703330000000  0.4661590000000  0.5354910000000 1.0
C      1  0.5355410000000  0.4719760000000  0.5145630000000 1.0
C      1  0.5081390000000  0.5246950000000  0.4564640000000 1.0
C      1  0.5144960000000  0.5053800000000  0.5403710000000 1.0
C      1  0.4548710000000  0.4979870000000  0.5197740000000 1.0
C      1  0.4705630000000  0.5045050000000  0.4967870000000 1.0
C      1  0.4773460000000  0.4903930000000  0.4248340000000 1.0
C      1  0.5542120000000  0.4365550000000  0.5474550000000 1.0
C      1  0.4331170000000  0.4394540000000  0.4646380000000 1.0
C      1  0.4433060000000  0.5296660000000  0.4196280000000 1.0
C      1  0.4676020000000  0.5798050000000  0.4567260000000 1.0
C      1  0.4587850000000  0.5448350000000  0.5592590000000 1.0
C      1  0.5826550000000  0.5108510000000  0.4806960000000 1.0
C      1  0.4673880000000  0.4528400000000  0.5821700000000 1.0
C      1  0.5489490000000  0.5685420000000  0.5714700000000 1.0
C      1  0.5316770000000  0.4533280000000  0.5582260000000 1.0
C      1  0.4626420000000  0.5315360000000  0.5846940000000 1.0
C      1  0.5845530000000  0.5340640000000  0.4982450000000 1.0
C      1  0.4174640000000  0.5484160000000  0.4952540000000 1.0
C      1  0.4184030000000  0.4504450000000  0.4891420000000 1.0
C      1  0.5340370000000  0.4815760000000  0.4687050000000 1.0
C      1  0.4462860000000  0.4188350000000  0.4760690000000 1.0
C      1  0.4524940000000  0.4699310000000  0.5103800000000 1.0
C      1  0.5129020000000  0.4185850000000  0.4659070000000 1.0
C      1  0.4042770000000  0.4829320000000  0.5235810000000 1.0
C      1  0.5143030000000  0.4599380000000  0.4080370000000 1.0
C      1  0.4865560000000  0.5508590000000  0.4922270000000 1.0
C      1  0.5719030000000  0.4485610000000  0.4428880000000 1.0
C      1  0.5923770000000  0.4599170000000  0.4913860000000 1.0
C      1  0.5847150000000  0.4734420000000  0.4463660000000 1.0
C      1  0.4382250000000  0.5451760000000  0.4438890000000 1.0
C      1  0.4507470000000  0.4755430000000  0.4256890000000 1.0
C      1  0.4917570000000  0.5204970000000  0.5863880000000 1.0
C      1  0.4886840000000  0.4819910000000  0.4519310000000 1.0
C      1  0.4809220000000  0.5336130000000  0.4462810000000 1.0
C      1  0.5011780000000  0.5682950000000  0.5607380000000 1.0
C      1  0.4905090000000  0.5143730000000  0.5548940000000 1.0
C      1  0.5276180000000  0.5684960000000  0.4699080000000 1.0
C      1  0.5858160000000  0.4946060000000  0.5256850000000 1.0
C      1  0.5277920000000  0.5656140000000  0.4234210000000 1.0
C      1  0.4974400000000  0.5465080000000  0.5197660000000 1.0
C      1  0.4423190000000  0.5494130000000  0.5121860000000 1.0
C      1  0.5503870000000  0.4814210000000  0.4936240000000 1.0
C      1  0.5248420000000  0.4896560000000  0.5939960000000 1.0
C      1  0.5284310000000  0.4805720000000  0.5395820000000 1.0
C      1  0.5049840000000  0.4080640000000  0.5106310000000 1.0
C      1  0.5087790000000  0.4681170000000  0.5061270000000 1.0
C      1  0.5500900000000  0.5035560000000  0.4518470000000 1.0
C      1  0.4738120000000  0.4348760000000  0.4276250000000 1.0
C      1  0.4975420000000  0.5988390000000  0.4976260000000 1.0
C      1  0.5777070000000  0.4493110000000  0.5380660000000 1.0
C      1  0.5142880000000  0.5773620000000  0.4456000000000 1.0
C      1  0.4384290000000  0.5415330000000  0.5408100000000 1.0
C      1  0.5227290000000  0.5608680000000  0.5776510000000 1.0
C      1  0.5050780000000  0.5877530000000  0.5399090000000 1.0
C      1  0.5134030000000  0.5188720000000  0.5146780000000 1.0
C      1  0.5079790000000  0.4969970000000  0.4679950000000 1.0
C      1  0.5828090000000  0.5221280000000  0.5261860000000 1.0
C      1  0.5728100000000  0.5599850000000  0.4855740000000 1.0
C      1  0.5542030000000  0.5527330000000  0.4631160000000 1.0
C      1  0.5737030000000  0.4204330000000  0.4991030000000 1.0
C      1  0.5341500000000  0.5324780000000  0.4995090000000 1.0
C      1  0.4535070000000  0.4506090000000  0.4417570000000 1.0
C      1  0.5564500000000  0.5753040000000  0.5023990000000 1.0
C      1  0.4537310000000  0.4219720000000  0.5024130000000 1.0
C      1  0.5338590000000  0.5207240000000  0.4337690000000 1.0
C      1  0.5183390000000  0.5689700000000  0.5212100000000 1.0
C      1  0.4302250000000  0.4470650000000  0.5419370000000 1.0
C      1  0.4669670000000  0.4956340000000  0.5460950000000 1.0
C      1  0.4744290000000  0.4603790000000  0.4634570000000 1.0
C      1  0.5808580000000  0.4864120000000  0.4978780000000 1.0
C      1  0.4567540000000  0.4476530000000  0.5549130000000 1.0
C      1  0.4858540000000  0.5455720000000  0.5483100000000 1.0
C      1  0.5806940000000  0.4760740000000  0.5469670000000 1.0
C      1  0.5500790000000  0.4091880000000  0.5042630000000 1.0
C      1  0.5133090000000  0.5438050000000  0.4788820000000 1.0
C      1  0.4731010000000  0.5206430000000  0.4204260000000 1.0
C      1  0.5718210000000  0.5297910000000  0.5522150000000 1.0
C      1  0.5908710000000  0.4524690000000  0.4640460000000 1.0
C      1  0.5865400000000  0.4410900000000  0.5116880000000 1.0
END
