TITL C-60910-6747-3 144.307136167218 125000 -1004.55671325683 0 0 141 (C1) n - 1
REM
REM in /rds/project/t2_vol4/rds-t2-cs072/BORA/CARBON/from-Arr/AIRSS/Generating-Clusters/GAP-ML-2020/Only-C1/SD-CG/HFTN-CG
REM
REM
REM
REM
REM
REM ./C.cell (11c1c37f851c82e70ff6c80c92926a4b)
REM AIRSS Version 0.9.1 bugfix July 2018 build 013d7b7c2542+ Fri, 06 Jul 2018 19:26:36 +0100
REM compiler GCC version 9.3.0
REM options -cpp -mtune=generic -march=x86-64 -g -O0
REM seed -1190334718 1995597369 990484172 -2081619975 1693398302 -225693679 1370244485 551672531 1906699493 -1712458753 300699377 402860798 -1968752311 1465293155 -258703870 -1214412207 -1379047329 -1362889822 809919809 957554566 -664755573 -1642379973 -263530076 -550273543 -1345875867 1683432485 631310789 1183320258 1037707975 -1823701179 872405198 2019282551 -847926641
REM
CELL 1.54180   50.00000   50.00000   50.00000   90.00000   90.00000   90.00000
LATT -1
SFAC C  
C      1  0.4185620000000  0.4789570000000  0.5593890000000 1.0
C      1  0.5504990000000  0.5816850000000  0.4615810000000 1.0
C      1  0.5298430000000  0.5082820000000  0.5484470000000 1.0
C      1  0.5431050000000  0.5745100000000  0.4339380000000 1.0
C      1  0.4909210000000  0.5934780000000  0.5117610000000 1.0
C      1  0.5641000000000  0.5739280000000  0.5259620000000 1.0
C      1  0.5267170000000  0.5941010000000  0.4732030000000 1.0
C      1  0.4327410000000  0.5259830000000  0.4638160000000 1.0
C      1  0.5751240000000  0.5294910000000  0.5506900000000 1.0
C      1  0.5685210000000  0.5291340000000  0.4424610000000 1.0
C      1  0.4418470000000  0.5973630000000  0.4893120000000 1.0
C      1  0.5045410000000  0.4901380000000  0.5898700000000 1.0
C      1  0.5755990000000  0.4472380000000  0.4807150000000 1.0
C      1  0.4788770000000  0.5207040000000  0.5604020000000 1.0
C      1  0.5525190000000  0.5184870000000  0.5677340000000 1.0
C      1  0.5456750000000  0.4676370000000  0.5839420000000 1.0
C      1  0.4598340000000  0.5517480000000  0.5241590000000 1.0
C      1  0.5330070000000  0.5334660000000  0.5873660000000 1.0
C      1  0.5384510000000  0.5874770000000  0.5225190000000 1.0
C      1  0.5238020000000  0.4171630000000  0.5155650000000 1.0
C      1  0.4967370000000  0.4947570000000  0.4875160000000 1.0
C      1  0.5138620000000  0.4473790000000  0.5082460000000 1.0
C      1  0.5304860000000  0.4148160000000  0.5619990000000 1.0
C      1  0.4889340000000  0.4097830000000  0.5565320000000 1.0
C      1  0.5424920000000  0.4962890000000  0.5017800000000 1.0
C      1  0.5958150000000  0.4951610000000  0.4857590000000 1.0
C      1  0.4976310000000  0.5078080000000  0.4128330000000 1.0
C      1  0.4622010000000  0.4190750000000  0.5538570000000 1.0
C      1  0.4346940000000  0.4869610000000  0.4284670000000 1.0
C      1  0.5703040000000  0.5560920000000  0.5456290000000 1.0
C      1  0.4550670000000  0.4237000000000  0.4583440000000 1.0
C      1  0.5439170000000  0.4556280000000  0.4209910000000 1.0
C      1  0.5409440000000  0.4847860000000  0.5308350000000 1.0
C      1  0.5007200000000  0.4969220000000  0.4425020000000 1.0
C      1  0.4290020000000  0.4522150000000  0.5582880000000 1.0
C      1  0.4131510000000  0.5149020000000  0.4855140000000 1.0
C      1  0.5421630000000  0.5436910000000  0.4860140000000 1.0
C      1  0.5859140000000  0.4727480000000  0.4692650000000 1.0
C      1  0.5138130000000  0.5507250000000  0.5834700000000 1.0
C      1  0.4031470000000  0.4896670000000  0.5372400000000 1.0
C      1  0.4203730000000  0.5268170000000  0.5110080000000 1.0
C      1  0.4571180000000  0.4811270000000  0.4124520000000 1.0
C      1  0.4961110000000  0.5590630000000  0.4177750000000 1.0
C      1  0.4587890000000  0.5670710000000  0.4485470000000 1.0
C      1  0.4015190000000  0.4753620000000  0.5131080000000 1.0
C      1  0.4680420000000  0.4553210000000  0.4210070000000 1.0
C      1  0.4690350000000  0.5225770000000  0.5303400000000 1.0
C      1  0.5266240000000  0.4550310000000  0.4824990000000 1.0
C      1  0.5672350000000  0.4466420000000  0.4353080000000 1.0
C      1  0.5251090000000  0.5399200000000  0.4651810000000 1.0
C      1  0.5675000000000  0.5618530000000  0.4775770000000 1.0
C      1  0.5066830000000  0.5523290000000  0.5347380000000 1.0
C      1  0.4532180000000  0.4413080000000  0.5704390000000 1.0
C      1  0.4857320000000  0.5624090000000  0.5128070000000 1.0
C      1  0.4927130000000  0.5497920000000  0.5637130000000 1.0
C      1  0.4516180000000  0.4832070000000  0.5116900000000 1.0
C      1  0.4802370000000  0.4696940000000  0.4789660000000 1.0
C      1  0.4848720000000  0.4531210000000  0.5030820000000 1.0
C      1  0.4287650000000  0.4635040000000  0.4439240000000 1.0
C      1  0.5660420000000  0.5308220000000  0.4141210000000 1.0
C      1  0.4391410000000  0.4221160000000  0.4823310000000 1.0
C      1  0.4066020000000  0.4873940000000  0.4874450000000 1.0
C      1  0.5802860000000  0.5628340000000  0.5045810000000 1.0
C      1  0.4942800000000  0.5083450000000  0.5171510000000 1.0
C      1  0.5078030000000  0.5363030000000  0.4068970000000 1.0
C      1  0.4788300000000  0.5832000000000  0.4658860000000 1.0
C      1  0.5189400000000  0.5799380000000  0.5411860000000 1.0
C      1  0.5266670000000  0.4843210000000  0.4799730000000 1.0
C      1  0.5206420000000  0.5953270000000  0.5009260000000 1.0
C      1  0.4864100000000  0.5126360000000  0.4655400000000 1.0
C      1  0.5958150000000  0.5239940000000  0.4819970000000 1.0
C      1  0.5135010000000  0.5786470000000  0.4305700000000 1.0
C      1  0.5047640000000  0.5913420000000  0.4544840000000 1.0
C      1  0.5666260000000  0.4718140000000  0.5433720000000 1.0
C      1  0.4947800000000  0.4504030000000  0.4294740000000 1.0
C      1  0.5505760000000  0.4955960000000  0.5880180000000 1.0
C      1  0.5182050000000  0.4643310000000  0.5911330000000 1.0
C      1  0.4545190000000  0.5282450000000  0.4187040000000 1.0
C      1  0.4899620000000  0.4703690000000  0.4493640000000 1.0
C      1  0.5083320000000  0.4020470000000  0.4945380000000 1.0
C      1  0.5538700000000  0.4257560000000  0.5231740000000 1.0
C      1  0.4929780000000  0.5931910000000  0.5423300000000 1.0
C      1  0.4374720000000  0.5558950000000  0.4636610000000 1.0
C      1  0.4722000000000  0.4682950000000  0.5243180000000 1.0
C      1  0.4982230000000  0.5376980000000  0.4700300000000 1.0
C      1  0.5134350000000  0.4061900000000  0.5406580000000 1.0
C      1  0.5902340000000  0.5176020000000  0.5278160000000 1.0
C      1  0.4786950000000  0.4012480000000  0.4929980000000 1.0
C      1  0.5762480000000  0.4730410000000  0.4418090000000 1.0
C      1  0.4481380000000  0.4431280000000  0.4382220000000 1.0
C      1  0.5303890000000  0.4955110000000  0.4509660000000 1.0
C      1  0.5239180000000  0.5156870000000  0.3996650000000 1.0
C      1  0.5582720000000  0.5570440000000  0.4190950000000 1.0
C      1  0.4453340000000  0.4169380000000  0.5306360000000 1.0
C      1  0.4323160000000  0.5017980000000  0.5708710000000 1.0
C      1  0.4680170000000  0.5538660000000  0.4254330000000 1.0
C      1  0.4687370000000  0.5994890000000  0.4893490000000 1.0
C      1  0.4991390000000  0.4440750000000  0.5883440000000 1.0
C      1  0.5493970000000  0.5076450000000  0.4071300000000 1.0
C      1  0.4726230000000  0.4552760000000  0.5868530000000 1.0
C      1  0.4695070000000  0.5062160000000  0.4066390000000 1.0
C      1  0.5212430000000  0.4420740000000  0.4310060000000 1.0
C      1  0.5024760000000  0.5007370000000  0.5604450000000 1.0
C      1  0.4333760000000  0.5497570000000  0.5640490000000 1.0
C      1  0.5941100000000  0.4910240000000  0.5141480000000 1.0
C      1  0.4462290000000  0.5078750000000  0.5225170000000 1.0
C      1  0.4528150000000  0.4820460000000  0.4816750000000 1.0
C      1  0.5063540000000  0.4194400000000  0.5774820000000 1.0
C      1  0.4863250000000  0.5579430000000  0.4843630000000 1.0
C      1  0.4356080000000  0.5150500000000  0.4359520000000 1.0
C      1  0.5601490000000  0.4536650000000  0.5637890000000 1.0
C      1  0.5735170000000  0.4422420000000  0.5090420000000 1.0
C      1  0.4525200000000  0.5644940000000  0.5524990000000 1.0
C      1  0.5599360000000  0.4341050000000  0.4592660000000 1.0
C      1  0.4527300000000  0.4086650000000  0.5039330000000 1.0
C      1  0.5393550000000  0.5241250000000  0.5057200000000 1.0
C      1  0.4204520000000  0.4422870000000  0.4871900000000 1.0
C      1  0.4568960000000  0.5085190000000  0.4689850000000 1.0
C      1  0.4749400000000  0.4837320000000  0.5911000000000 1.0
C      1  0.4231180000000  0.4671760000000  0.4721400000000 1.0
C      1  0.4800530000000  0.4098040000000  0.4649410000000 1.0
C      1  0.5273320000000  0.5078900000000  0.5996130000000 1.0
C      1  0.5832090000000  0.5410460000000  0.4630990000000 1.0
C      1  0.4107840000000  0.4481630000000  0.5128750000000 1.0
C      1  0.4241010000000  0.4362450000000  0.5345870000000 1.0
C      1  0.4596360000000  0.5042000000000  0.5788000000000 1.0
C      1  0.5409150000000  0.5222130000000  0.4517440000000 1.0
C      1  0.4067070000000  0.5179640000000  0.5357770000000 1.0
C      1  0.5095440000000  0.4107710000000  0.4670340000000 1.0
C      1  0.4321060000000  0.5708710000000  0.4874970000000 1.0
C      1  0.5181820000000  0.4671660000000  0.5297010000000 1.0
C      1  0.4214390000000  0.5260670000000  0.5596040000000 1.0
C      1  0.5938910000000  0.5373350000000  0.5073030000000 1.0
C      1  0.5289970000000  0.4325750000000  0.4590380000000 1.0
C      1  0.4951010000000  0.4834060000000  0.5356910000000 1.0
C      1  0.5527060000000  0.4290870000000  0.5517690000000 1.0
C      1  0.4773820000000  0.5756100000000  0.5593740000000 1.0
C      1  0.5185760000000  0.5262210000000  0.5260100000000 1.0
C      1  0.4342210000000  0.5523970000000  0.5089960000000 1.0
C      1  0.5844440000000  0.4655840000000  0.5231860000000 1.0
C      1  0.5500870000000  0.4845950000000  0.4282960000000 1.0
END
