TITL C-60888-2087-3 104.376919653531 125000 -451.191824419334 0 0 65 (C1) n - 1
REM
REM in /rds/project/t2_vol4/rds-t2-cs072/BORA/CARBON/from-Arr/AIRSS/Generating-Clusters/GAP-ML-2020/Only-C1/SD-CG/HFTN-CG
REM
REM
REM
REM
REM
REM ./C.cell (11c1c37f851c82e70ff6c80c92926a4b)
REM AIRSS Version 0.9.1 bugfix July 2018 build 013d7b7c2542+ Fri, 06 Jul 2018 19:26:36 +0100
REM compiler GCC version 9.3.0
REM options -cpp -mtune=generic -march=x86-64 -g -O0
REM seed -1851255389 -2003466941 -1303301350 -1475894734 452534385 -1542010227 1770660989 645896931 -429668870 785098591 195554705 267438831 1381777091 1844224855 -19409235 -1964173028 1831328303 117247178 1049820862 -1274891651 -741166100 1353197881 -1492835369 -428266324 1376850708 -834817272 -177937712 -288974701 -298842589 1864870595 -1702179108 -2101682353 210817045
REM
CELL 1.54180   50.00000   50.00000   50.00000   90.00000   90.00000   90.00000
LATT -1
SFAC C  
C      1  0.5319100000000  0.5485310000000  0.5294890000000 1.0
C      1  0.5157650000000  0.4318850000000  0.4817860000000 1.0
C      1  0.5240250000000  0.5344010000000  0.5543040000000 1.0
C      1  0.4574840000000  0.5267330000000  0.5534490000000 1.0
C      1  0.5323830000000  0.4474210000000  0.4647890000000 1.0
C      1  0.4463100000000  0.4559350000000  0.5061050000000 1.0
C      1  0.4763620000000  0.4878490000000  0.4956630000000 1.0
C      1  0.4954810000000  0.4701480000000  0.4835790000000 1.0
C      1  0.4958450000000  0.5049030000000  0.4518430000000 1.0
C      1  0.5036990000000  0.4415130000000  0.5334320000000 1.0
C      1  0.4614240000000  0.5512920000000  0.5383090000000 1.0
C      1  0.5704310000000  0.5133440000000  0.5042630000000 1.0
C      1  0.5294590000000  0.4818840000000  0.5472720000000 1.0
C      1  0.5476440000000  0.5347990000000  0.5084410000000 1.0
C      1  0.5071300000000  0.4619860000000  0.5524660000000 1.0
C      1  0.5386640000000  0.5010980000000  0.4765210000000 1.0
C      1  0.5546190000000  0.4721350000000  0.5355810000000 1.0
C      1  0.4365720000000  0.5304690000000  0.5012690000000 1.0
C      1  0.5038150000000  0.5569140000000  0.4670700000000 1.0
C      1  0.4976540000000  0.4746590000000  0.4527190000000 1.0
C      1  0.4867790000000  0.4394130000000  0.4782780000000 1.0
C      1  0.5190270000000  0.4897160000000  0.5195130000000 1.0
C      1  0.4841540000000  0.5113890000000  0.4800830000000 1.0
C      1  0.5655490000000  0.5170860000000  0.4746100000000 1.0
C      1  0.5430830000000  0.4703650000000  0.4806120000000 1.0
C      1  0.4956170000000  0.5676390000000  0.4937070000000 1.0
C      1  0.5226120000000  0.4629800000000  0.4432950000000 1.0
C      1  0.4667840000000  0.5663220000000  0.4928810000000 1.0
C      1  0.5078380000000  0.5639550000000  0.5201900000000 1.0
C      1  0.4850810000000  0.4772160000000  0.5624230000000 1.0
C      1  0.4578580000000  0.5559850000000  0.4681410000000 1.0
C      1  0.4510860000000  0.5530350000000  0.5129000000000 1.0
C      1  0.4361840000000  0.5051770000000  0.5142030000000 1.0
C      1  0.5712730000000  0.5111590000000  0.4480750000000 1.0
C      1  0.5650530000000  0.4638190000000  0.4984850000000 1.0
C      1  0.5242410000000  0.5148960000000  0.4529750000000 1.0
C      1  0.4398380000000  0.5337850000000  0.4725810000000 1.0
C      1  0.4422250000000  0.4866690000000  0.4652780000000 1.0
C      1  0.4445900000000  0.4831530000000  0.4957200000000 1.0
C      1  0.5274170000000  0.5428550000000  0.4630130000000 1.0
C      1  0.4993360000000  0.5220070000000  0.5019990000000 1.0
C      1  0.5192200000000  0.4687940000000  0.4999900000000 1.0
C      1  0.4771880000000  0.4379830000000  0.5261880000000 1.0
C      1  0.4559360000000  0.4562970000000  0.5332500000000 1.0
C      1  0.4465450000000  0.5032130000000  0.5413220000000 1.0
C      1  0.4991560000000  0.5452820000000  0.5621500000000 1.0
C      1  0.5382700000000  0.4784930000000  0.4267730000000 1.0
C      1  0.4806440000000  0.5246760000000  0.5699350000000 1.0
C      1  0.5226160000000  0.5061750000000  0.5632620000000 1.0
C      1  0.5279590000000  0.5123590000000  0.5020260000000 1.0
C      1  0.4956890000000  0.5012770000000  0.5719480000000 1.0
C      1  0.4591520000000  0.4781460000000  0.5496430000000 1.0
C      1  0.5694160000000  0.4872780000000  0.5149210000000 1.0
C      1  0.5513220000000  0.4482490000000  0.5189660000000 1.0
C      1  0.4511630000000  0.4638570000000  0.4535080000000 1.0
C      1  0.4471610000000  0.5130760000000  0.4551510000000 1.0
C      1  0.4797530000000  0.5488990000000  0.4519130000000 1.0
C      1  0.5498720000000  0.5431330000000  0.4801720000000 1.0
C      1  0.4674780000000  0.4365510000000  0.4989580000000 1.0
C      1  0.5468970000000  0.5027170000000  0.4350610000000 1.0
C      1  0.4757530000000  0.4530720000000  0.4528740000000 1.0
C      1  0.5237840000000  0.4405750000000  0.5111840000000 1.0
C      1  0.4908030000000  0.5001480000000  0.5191840000000 1.0
C      1  0.4735000000000  0.5219830000000  0.4428550000000 1.0
C      1  0.4884240000000  0.5612440000000  0.5414540000000 1.0
END
