TITL C-60886-3157-1 193.355696518001 125000 -814.976893394151 0 0 115 (C1) n - 1
REM
REM in /rds/project/t2_vol4/rds-t2-cs072/BORA/CARBON/from-Arr/AIRSS/Generating-Clusters/GAP-ML-2020/Only-C1/SD-CG/HFTN-CG
REM
REM
REM
REM
REM
REM ./C.cell (11c1c37f851c82e70ff6c80c92926a4b)
REM AIRSS Version 0.9.1 bugfix July 2018 build 013d7b7c2542+ Fri, 06 Jul 2018 19:26:36 +0100
REM compiler GCC version 9.3.0
REM options -cpp -mtune=generic -march=x86-64 -g -O0
REM seed 2032025189 -2025835872 2135864584 346843539 -1231352025 -1709620681 -704146034 -212551124 -392398273 1956062182 -1351729326 337212064 -1816279026 185537498 1930797820 1226708044 -108766320 1454478136 -2053792032 903766267 -446545181 -842588082 -1201742662 23794504 233716561 1428384632 1268718798 -742228439 -862219117 1626581069 1094569157 -1398429478 1185518301
REM
CELL 1.54180   50.00000   50.00000   50.00000   90.00000   90.00000   90.00000
LATT -1
SFAC C  
C      1  0.5670920000000  0.4805070000000  0.5551750000000 1.0
C      1  0.5013540000000  0.4291940000000  0.5606990000000 1.0
C      1  0.4600860000000  0.5063990000000  0.4178270000000 1.0
C      1  0.5527800000000  0.4153960000000  0.5116600000000 1.0
C      1  0.4957590000000  0.5810460000000  0.4673060000000 1.0
C      1  0.4639660000000  0.4662580000000  0.5106210000000 1.0
C      1  0.4298620000000  0.5306040000000  0.5543880000000 1.0
C      1  0.4515710000000  0.5777850000000  0.4824630000000 1.0
C      1  0.4699780000000  0.5609240000000  0.5618460000000 1.0
C      1  0.4596420000000  0.4898400000000  0.5266550000000 1.0
C      1  0.5395160000000  0.5493940000000  0.5734790000000 1.0
C      1  0.4797720000000  0.4728930000000  0.4882930000000 1.0
C      1  0.5014880000000  0.4541020000000  0.5761560000000 1.0
C      1  0.4565330000000  0.5129760000000  0.5804370000000 1.0
C      1  0.4696720000000  0.4205950000000  0.4687320000000 1.0
C      1  0.5132070000000  0.5805570000000  0.5282260000000 1.0
C      1  0.5125800000000  0.5400140000000  0.5813840000000 1.0
C      1  0.5157110000000  0.5784140000000  0.5567110000000 1.0
C      1  0.5352680000000  0.5217740000000  0.4374590000000 1.0
C      1  0.4802770000000  0.4984420000000  0.5855760000000 1.0
C      1  0.4416010000000  0.5645790000000  0.5256340000000 1.0
C      1  0.5492770000000  0.5049840000000  0.5558950000000 1.0
C      1  0.5750240000000  0.4914710000000  0.4599530000000 1.0
C      1  0.4441260000000  0.5109080000000  0.5104600000000 1.0
C      1  0.4817080000000  0.4092460000000  0.4944000000000 1.0
C      1  0.5768200000000  0.5007440000000  0.4345710000000 1.0
C      1  0.4908530000000  0.4226030000000  0.4515800000000 1.0
C      1  0.5285700000000  0.4963600000000  0.5779720000000 1.0
C      1  0.4199510000000  0.4794420000000  0.4733820000000 1.0
C      1  0.5682140000000  0.4611280000000  0.5089830000000 1.0
C      1  0.4147800000000  0.5445790000000  0.5011940000000 1.0
C      1  0.5977260000000  0.5006830000000  0.5241890000000 1.0
C      1  0.4626480000000  0.5187300000000  0.4888190000000 1.0
C      1  0.5065160000000  0.5123270000000  0.5859250000000 1.0
C      1  0.4862070000000  0.5835390000000  0.5187910000000 1.0
C      1  0.5267160000000  0.4683150000000  0.5783740000000 1.0
C      1  0.4943080000000  0.5233140000000  0.5229620000000 1.0
C      1  0.4245370000000  0.4952080000000  0.4500120000000 1.0
C      1  0.5577840000000  0.5346970000000  0.4843430000000 1.0
C      1  0.5649090000000  0.4475860000000  0.4810230000000 1.0
C      1  0.5907340000000  0.5193100000000  0.5059560000000 1.0
C      1  0.5043040000000  0.4830200000000  0.4150100000000 1.0
C      1  0.5346990000000  0.4981500000000  0.5259830000000 1.0
C      1  0.5084300000000  0.4642670000000  0.4834820000000 1.0
C      1  0.5317610000000  0.4838580000000  0.4772660000000 1.0
C      1  0.4287370000000  0.4529270000000  0.4775310000000 1.0
C      1  0.5106880000000  0.5299000000000  0.4803480000000 1.0
C      1  0.4883830000000  0.5064490000000  0.4092140000000 1.0
C      1  0.4596880000000  0.4625350000000  0.4392680000000 1.0
C      1  0.5573880000000  0.4673710000000  0.4607860000000 1.0
C      1  0.4778150000000  0.4704960000000  0.5785290000000 1.0
C      1  0.5539130000000  0.4209970000000  0.4842230000000 1.0
C      1  0.5107140000000  0.4034030000000  0.4974040000000 1.0
C      1  0.5251020000000  0.4202300000000  0.5479190000000 1.0
C      1  0.4304850000000  0.5355950000000  0.5263030000000 1.0
C      1  0.5337260000000  0.4799370000000  0.4187890000000 1.0
C      1  0.4198300000000  0.5223310000000  0.4577150000000 1.0
C      1  0.4874590000000  0.4976140000000  0.5316960000000 1.0
C      1  0.5490930000000  0.4361310000000  0.5508910000000 1.0
C      1  0.4185450000000  0.4957050000000  0.4983580000000 1.0
C      1  0.5781260000000  0.5466020000000  0.5089060000000 1.0
C      1  0.5348870000000  0.5681200000000  0.4185040000000 1.0
C      1  0.4777890000000  0.5493850000000  0.4246800000000 1.0
C      1  0.4786780000000  0.5846330000000  0.4907240000000 1.0
C      1  0.4865490000000  0.5293030000000  0.4959770000000 1.0
C      1  0.4539280000000  0.4621690000000  0.5640380000000 1.0
C      1  0.5112730000000  0.4591430000000  0.5107150000000 1.0
C      1  0.5449120000000  0.4582990000000  0.4343140000000 1.0
C      1  0.4522740000000  0.5402920000000  0.5700120000000 1.0
C      1  0.5397520000000  0.5771520000000  0.5699820000000 1.0
C      1  0.5552500000000  0.5354600000000  0.5546250000000 1.0
C      1  0.5271430000000  0.4071140000000  0.5215120000000 1.0
C      1  0.5460870000000  0.5784480000000  0.4873430000000 1.0
C      1  0.5245270000000  0.5412180000000  0.4202580000000 1.0
C      1  0.4100250000000  0.5228240000000  0.4847790000000 1.0
C      1  0.5034590000000  0.4502590000000  0.4525920000000 1.0
C      1  0.5314590000000  0.5386800000000  0.4977130000000 1.0
C      1  0.4980500000000  0.5337460000000  0.4129870000000 1.0
C      1  0.4338770000000  0.5037980000000  0.5645330000000 1.0
C      1  0.4650840000000  0.5738920000000  0.5365670000000 1.0
C      1  0.4314130000000  0.5684200000000  0.4996840000000 1.0
C      1  0.5695210000000  0.5606460000000  0.4847180000000 1.0
C      1  0.4506190000000  0.4428410000000  0.4605710000000 1.0
C      1  0.5359830000000  0.5678120000000  0.5133440000000 1.0
C      1  0.5845070000000  0.4782900000000  0.5320620000000 1.0
C      1  0.4738060000000  0.4971060000000  0.4759470000000 1.0
C      1  0.4189520000000  0.4745190000000  0.5205950000000 1.0
C      1  0.4552960000000  0.4391810000000  0.5493180000000 1.0
C      1  0.5180730000000  0.4129720000000  0.4492570000000 1.0
C      1  0.4270720000000  0.4506610000000  0.5070820000000 1.0
C      1  0.5630760000000  0.4368540000000  0.5261070000000 1.0
C      1  0.4780280000000  0.5686880000000  0.4465810000000 1.0
C      1  0.4917970000000  0.4984000000000  0.4545260000000 1.0
C      1  0.5596580000000  0.5528120000000  0.5303910000000 1.0
C      1  0.5284030000000  0.4084720000000  0.4752020000000 1.0
C      1  0.5255090000000  0.5843890000000  0.4658100000000 1.0
C      1  0.5505260000000  0.4887300000000  0.5012930000000 1.0
C      1  0.4776420000000  0.4215150000000  0.5463960000000 1.0
C      1  0.5705640000000  0.5075720000000  0.4860890000000 1.0
C      1  0.5228390000000  0.5244640000000  0.5217410000000 1.0
C      1  0.5104740000000  0.4803510000000  0.5276470000000 1.0
C      1  0.4517270000000  0.5657910000000  0.4570380000000 1.0
C      1  0.5273530000000  0.4378210000000  0.4386760000000 1.0
C      1  0.4965540000000  0.5612250000000  0.5707910000000 1.0
C      1  0.4541430000000  0.5332980000000  0.4256950000000 1.0
C      1  0.5345720000000  0.5828850000000  0.4389690000000 1.0
C      1  0.5511830000000  0.5028720000000  0.4240000000000 1.0
C      1  0.5187710000000  0.5082690000000  0.4621350000000 1.0
C      1  0.4891350000000  0.4701800000000  0.4376570000000 1.0
C      1  0.4369440000000  0.5427190000000  0.4460060000000 1.0
C      1  0.5508520000000  0.4596100000000  0.5656890000000 1.0
C      1  0.4694410000000  0.4161530000000  0.5185840000000 1.0
C      1  0.4450180000000  0.4859880000000  0.4316200000000 1.0
C      1  0.4377220000000  0.4813720000000  0.5474320000000 1.0
C      1  0.4498180000000  0.4388010000000  0.5203590000000 1.0
END
