TITL C-60900-5109-1 -0.0868795761450476 125000 -481.794504809114 0 0 70 (C1) n - 1
REM
REM in /rds/project/t2_vol4/rds-t2-cs072/BORA/CARBON/from-Arr/AIRSS/Generating-Clusters/GAP-ML-2020/Only-C1/SD-CG/HFTN-CG
REM
REM
REM
REM
REM
REM ./C.cell (11c1c37f851c82e70ff6c80c92926a4b)
REM AIRSS Version 0.9.1 bugfix July 2018 build 013d7b7c2542+ Fri, 06 Jul 2018 19:26:36 +0100
REM compiler GCC version 9.3.0
REM options -cpp -mtune=generic -march=x86-64 -g -O0
REM seed -1863102865 -827053927 -660564900 165391606 1855391212 112068842 -563584955 1788060857 -1155250518 -1427349764 710420638 -486055519 2118206260 -104359488 753787447 -406121498 1403529809 -290985014 1266870610 1838311168 -839555163 1006593722 2009798040 -1585801387 1612925194 -484815444 -849041363 -527084881 1441097081 -1978654845 1239479652 -549640521 -1127070320
REM
CELL 1.54180   50.00000   50.00000   50.00000   90.00000   90.00000   90.00000
LATT -1
SFAC C  
C      1  0.5678740000000  0.4866190000000  0.5315260000000 1.0
C      1  0.5665290000000  0.5168810000000  0.4766320000000 1.0
C      1  0.5120350000000  0.5284470000000  0.4779690000000 1.0
C      1  0.5361700000000  0.5348720000000  0.4419640000000 1.0
C      1  0.4863830000000  0.4717000000000  0.4497860000000 1.0
C      1  0.5535910000000  0.4722980000000  0.5101700000000 1.0
C      1  0.4450900000000  0.4982140000000  0.4845830000000 1.0
C      1  0.4848920000000  0.5493220000000  0.5724240000000 1.0
C      1  0.4361920000000  0.5070540000000  0.5402280000000 1.0
C      1  0.5573210000000  0.5260690000000  0.5543070000000 1.0
C      1  0.4680090000000  0.4381630000000  0.5489810000000 1.0
C      1  0.4991180000000  0.4231240000000  0.5248810000000 1.0
C      1  0.4607120000000  0.5345920000000  0.4527340000000 1.0
C      1  0.4932620000000  0.4569370000000  0.4797420000000 1.0
C      1  0.5194440000000  0.5609000000000  0.5087110000000 1.0
C      1  0.4701120000000  0.4819160000000  0.5150400000000 1.0
C      1  0.5137680000000  0.4969250000000  0.4168590000000 1.0
C      1  0.5435710000000  0.5495600000000  0.5514000000000 1.0
C      1  0.4617150000000  0.5382910000000  0.5742370000000 1.0
C      1  0.4644470000000  0.4649280000000  0.5564390000000 1.0
C      1  0.5103360000000  0.5058990000000  0.5199920000000 1.0
C      1  0.4596700000000  0.5095480000000  0.4373080000000 1.0
C      1  0.5347810000000  0.4655220000000  0.4429430000000 1.0
C      1  0.5668500000000  0.4911000000000  0.4648330000000 1.0
C      1  0.4612670000000  0.5609600000000  0.4944860000000 1.0
C      1  0.4595850000000  0.4815890000000  0.4448740000000 1.0
C      1  0.4947850000000  0.4856840000000  0.4753780000000 1.0
C      1  0.4851450000000  0.5408730000000  0.4375220000000 1.0
C      1  0.4276220000000  0.5245920000000  0.5180460000000 1.0
C      1  0.5536300000000  0.5203230000000  0.5035130000000 1.0
C      1  0.5387380000000  0.4561240000000  0.5524030000000 1.0
C      1  0.4967040000000  0.5643290000000  0.5517910000000 1.0
C      1  0.4925370000000  0.5241450000000  0.5008350000000 1.0
C      1  0.4954010000000  0.5081870000000  0.3989710000000 1.0
C      1  0.4480380000000  0.5439430000000  0.4762320000000 1.0
C      1  0.5675570000000  0.5150360000000  0.5288300000000 1.0
C      1  0.5562860000000  0.4790900000000  0.5570290000000 1.0
C      1  0.5602080000000  0.4684750000000  0.4813990000000 1.0
C      1  0.4743710000000  0.5004600000000  0.4921200000000 1.0
C      1  0.4418950000000  0.4758470000000  0.4671490000000 1.0
C      1  0.5208750000000  0.4346830000000  0.5103570000000 1.0
C      1  0.4518960000000  0.5654710000000  0.5219940000000 1.0
C      1  0.5356290000000  0.5431370000000  0.4916770000000 1.0
C      1  0.4325130000000  0.5488650000000  0.5341580000000 1.0
C      1  0.4788770000000  0.5678170000000  0.5309490000000 1.0
C      1  0.5396600000000  0.4534250000000  0.4679650000000 1.0
C      1  0.4951380000000  0.4855760000000  0.5306950000000 1.0
C      1  0.5332520000000  0.4970520000000  0.5035940000000 1.0
C      1  0.5180010000000  0.4436610000000  0.4835560000000 1.0
C      1  0.5536230000000  0.5033810000000  0.5715380000000 1.0
C      1  0.4505280000000  0.4835490000000  0.5380570000000 1.0
C      1  0.4927710000000  0.4730480000000  0.5566220000000 1.0
C      1  0.5234240000000  0.5617380000000  0.5384780000000 1.0
C      1  0.4814740000000  0.5184770000000  0.4192600000000 1.0
C      1  0.5094960000000  0.5408730000000  0.4508360000000 1.0
C      1  0.5518150000000  0.5382160000000  0.4657720000000 1.0
C      1  0.5527650000000  0.4883440000000  0.4401880000000 1.0
C      1  0.4696470000000  0.4302330000000  0.5199730000000 1.0
C      1  0.5379210000000  0.5097580000000  0.4282020000000 1.0
C      1  0.4486520000000  0.4331730000000  0.4993780000000 1.0
C      1  0.4412420000000  0.5314820000000  0.5574230000000 1.0
C      1  0.5204420000000  0.4996510000000  0.4754910000000 1.0
C      1  0.4714840000000  0.4557250000000  0.4999100000000 1.0
C      1  0.4891880000000  0.5554720000000  0.5057660000000 1.0
C      1  0.5407340000000  0.4498490000000  0.5246090000000 1.0
C      1  0.5118920000000  0.4519340000000  0.5622560000000 1.0
C      1  0.4329430000000  0.5227540000000  0.4904640000000 1.0
C      1  0.4970020000000  0.4297270000000  0.5529110000000 1.0
C      1  0.4421130000000  0.4516990000000  0.4814450000000 1.0
C      1  0.5093600000000  0.4726920000000  0.4322100000000 1.0
END
