TITL C-60888-2087-7 7.98180268089685 125000 -200.935491551608 0 0 31 (C1) n - 1
REM
REM in /rds/project/t2_vol4/rds-t2-cs072/BORA/CARBON/from-Arr/AIRSS/Generating-Clusters/GAP-ML-2020/Only-C1/SD-CG/HFTN-CG
REM
REM
REM
REM
REM
REM ./C.cell (11c1c37f851c82e70ff6c80c92926a4b)
REM AIRSS Version 0.9.1 bugfix July 2018 build 013d7b7c2542+ Fri, 06 Jul 2018 19:26:36 +0100
REM compiler GCC version 9.3.0
REM options -cpp -mtune=generic -march=x86-64 -g -O0
REM seed 1633558286 -217574378 2024160315 -1394789612 -923897013 -641379344 1470472513 -1090646620 -1628489079 -1042475220 -1410382280 -307734819 -1353305453 2000303069 371199885 -1735839221 1831014509 -1440926967 540917651 -74265017 1145229200 -2014750143 691878625 -543357374 -783390378 1595853474 -1920156806 -1645834267 1823358355 -550092555 2020935881 1157749422 1502199858
REM
CELL 1.54180   50.00000   50.00000   50.00000   90.00000   90.00000   90.00000
LATT -1
SFAC C  
C      1  0.5011270000000  0.4496530000000  0.5100390000000 1.0
C      1  0.5372010000000  0.5110620000000  0.4711070000000 1.0
C      1  0.5206360000000  0.5342020000000  0.4747250000000 1.0
C      1  0.4750460000000  0.4809700000000  0.5214210000000 1.0
C      1  0.4877180000000  0.4578380000000  0.4689790000000 1.0
C      1  0.4483480000000  0.4795700000000  0.4921350000000 1.0
C      1  0.4906660000000  0.4615780000000  0.5337570000000 1.0
C      1  0.4595900000000  0.5221190000000  0.5169520000000 1.0
C      1  0.4505620000000  0.4942370000000  0.5147250000000 1.0
C      1  0.5171450000000  0.5395960000000  0.5029770000000 1.0
C      1  0.4697390000000  0.4800330000000  0.4733190000000 1.0
C      1  0.4714830000000  0.5015580000000  0.4552190000000 1.0
C      1  0.5205540000000  0.4924260000000  0.4557330000000 1.0
C      1  0.4876150000000  0.5177050000000  0.5608710000000 1.0
C      1  0.5139130000000  0.4736970000000  0.4997450000000 1.0
C      1  0.5144850000000  0.4695290000000  0.4700040000000 1.0
C      1  0.4982320000000  0.5065250000000  0.4457030000000 1.0
C      1  0.5231820000000  0.4925810000000  0.5228020000000 1.0
C      1  0.5575500000000  0.5080220000000  0.4905310000000 1.0
C      1  0.5401130000000  0.5511940000000  0.5136010000000 1.0
C      1  0.5014520000000  0.4958340000000  0.5662590000000 1.0
C      1  0.4905360000000  0.4932620000000  0.4989060000000 1.0
C      1  0.5047940000000  0.5173970000000  0.5172540000000 1.0
C      1  0.4883170000000  0.4389230000000  0.4892930000000 1.0
C      1  0.5542840000000  0.5284860000000  0.5114700000000 1.0
C      1  0.5094790000000  0.4798730000000  0.5452930000000 1.0
C      1  0.5519010000000  0.5015320000000  0.5197310000000 1.0
C      1  0.4626740000000  0.5357140000000  0.4936690000000 1.0
C      1  0.4826190000000  0.5241780000000  0.5349200000000 1.0
C      1  0.4977240000000  0.5319750000000  0.4590140000000 1.0
C      1  0.4713150000000  0.5287310000000  0.4698450000000 1.0
END
