TITL C-60904-5362-3 235.354471477579 125000 -855.956198994798 0 0 123 (C1) n - 1
REM
REM in /rds/project/t2_vol4/rds-t2-cs072/BORA/CARBON/from-Arr/AIRSS/Generating-Clusters/GAP-ML-2020/Only-C1/SD-CG/HFTN-CG
REM
REM
REM
REM
REM
REM ./C.cell (11c1c37f851c82e70ff6c80c92926a4b)
REM AIRSS Version 0.9.1 bugfix July 2018 build 013d7b7c2542+ Fri, 06 Jul 2018 19:26:36 +0100
REM compiler GCC version 9.3.0
REM options -cpp -mtune=generic -march=x86-64 -g -O0
REM seed 1109531724 -1580817632 418163572 -2007266967 -1736576562 -1802060903 980232767 -53396338 -1844744472 -715413547 770476731 1691822459 1731344467 39081108 880697945 -423214916 -1848605307 1658749046 82087988 -1931722801 -1787771492 863827485 2062599328 324007633 -66478630 -2064904434 1348914853 737674650 749834648 1946094634 1516346587 -543877102 -1263609948
REM
CELL 1.54180   50.00000   50.00000   50.00000   90.00000   90.00000   90.00000
LATT -1
SFAC C  
C      1  0.5254930000000  0.5085450000000  0.5907430000000 1.0
C      1  0.5690700000000  0.4894990000000  0.4292210000000 1.0
C      1  0.5035470000000  0.5892950000000  0.5007720000000 1.0
C      1  0.5649190000000  0.5182770000000  0.4274340000000 1.0
C      1  0.5724730000000  0.4735160000000  0.5410140000000 1.0
C      1  0.5300390000000  0.4800120000000  0.4761070000000 1.0
C      1  0.5103590000000  0.5070550000000  0.5282760000000 1.0
C      1  0.5592400000000  0.4580940000000  0.5609330000000 1.0
C      1  0.4689070000000  0.5284310000000  0.5349600000000 1.0
C      1  0.5934920000000  0.5283540000000  0.5008070000000 1.0
C      1  0.5767720000000  0.5341080000000  0.4486490000000 1.0
C      1  0.4977340000000  0.5312810000000  0.5375690000000 1.0
C      1  0.4524240000000  0.4873340000000  0.4200080000000 1.0
C      1  0.4296850000000  0.5015750000000  0.5594380000000 1.0
C      1  0.5025490000000  0.4416990000000  0.5648100000000 1.0
C      1  0.5453280000000  0.4754310000000  0.4269630000000 1.0
C      1  0.4842720000000  0.4454430000000  0.4256720000000 1.0
C      1  0.4669770000000  0.5388450000000  0.4197220000000 1.0
C      1  0.5972370000000  0.5027400000000  0.5132760000000 1.0
C      1  0.5820550000000  0.4606570000000  0.4907850000000 1.0
C      1  0.5988520000000  0.4960330000000  0.4677040000000 1.0
C      1  0.5002040000000  0.5821050000000  0.5285400000000 1.0
C      1  0.4564670000000  0.4705050000000  0.5318710000000 1.0
C      1  0.5239820000000  0.4227280000000  0.5562320000000 1.0
C      1  0.5454920000000  0.4833330000000  0.5013790000000 1.0
C      1  0.5295660000000  0.5326590000000  0.5757650000000 1.0
C      1  0.4720230000000  0.4538460000000  0.5125770000000 1.0
C      1  0.5006300000000  0.4911920000000  0.4182570000000 1.0
C      1  0.4606860000000  0.5558170000000  0.5482810000000 1.0
C      1  0.5410520000000  0.4582170000000  0.4543900000000 1.0
C      1  0.4572200000000  0.4686970000000  0.4888930000000 1.0
C      1  0.5385490000000  0.5218380000000  0.4159500000000 1.0
C      1  0.3965840000000  0.4948960000000  0.4686940000000 1.0
C      1  0.4560350000000  0.5136980000000  0.4335190000000 1.0
C      1  0.5222890000000  0.5463200000000  0.4221220000000 1.0
C      1  0.4773730000000  0.4795420000000  0.4700870000000 1.0
C      1  0.4606130000000  0.5712370000000  0.5048190000000 1.0
C      1  0.5626340000000  0.5584140000000  0.4521930000000 1.0
C      1  0.4155190000000  0.5103920000000  0.5365070000000 1.0
C      1  0.4614390000000  0.4764850000000  0.5798180000000 1.0
C      1  0.5761460000000  0.5275710000000  0.5455520000000 1.0
C      1  0.4587610000000  0.5389770000000  0.4894760000000 1.0
C      1  0.4323420000000  0.5405380000000  0.4717920000000 1.0
C      1  0.5060520000000  0.5471030000000  0.5629070000000 1.0
C      1  0.4168030000000  0.5366650000000  0.5245220000000 1.0
C      1  0.5360410000000  0.5618810000000  0.4423340000000 1.0
C      1  0.5283100000000  0.5845980000000  0.4869570000000 1.0
C      1  0.5469590000000  0.4938330000000  0.5837510000000 1.0
C      1  0.5485750000000  0.4345020000000  0.5491790000000 1.0
C      1  0.5279400000000  0.4941550000000  0.4131180000000 1.0
C      1  0.4860500000000  0.4082220000000  0.5358120000000 1.0
C      1  0.5179980000000  0.5689180000000  0.5469370000000 1.0
C      1  0.4441500000000  0.4194640000000  0.5209450000000 1.0
C      1  0.4933390000000  0.5526900000000  0.4212400000000 1.0
C      1  0.4793170000000  0.4033470000000  0.4880050000000 1.0
C      1  0.5033390000000  0.5472640000000  0.4732140000000 1.0
C      1  0.4692820000000  0.5211320000000  0.5815740000000 1.0
C      1  0.4734040000000  0.5746860000000  0.5311040000000 1.0
C      1  0.5237170000000  0.4279600000000  0.5092090000000 1.0
C      1  0.5635430000000  0.5668220000000  0.5219960000000 1.0
C      1  0.5035170000000  0.4881600000000  0.5945120000000 1.0
C      1  0.5135980000000  0.4620860000000  0.5860070000000 1.0
C      1  0.5816660000000  0.5444100000000  0.5223060000000 1.0
C      1  0.5698060000000  0.5707110000000  0.4755630000000 1.0
C      1  0.5529760000000  0.5397310000000  0.5598620000000 1.0
C      1  0.5550040000000  0.5789750000000  0.4966900000000 1.0
C      1  0.5021970000000  0.5036170000000  0.4435550000000 1.0
C      1  0.5379340000000  0.5056570000000  0.5170970000000 1.0
C      1  0.4337630000000  0.5730320000000  0.5145170000000 1.0
C      1  0.5160530000000  0.5241950000000  0.4832230000000 1.0
C      1  0.4455810000000  0.4416670000000  0.4762610000000 1.0
C      1  0.4665020000000  0.5830010000000  0.4605940000000 1.0
C      1  0.4334890000000  0.4757530000000  0.5712180000000 1.0
C      1  0.5134530000000  0.4114660000000  0.5324840000000 1.0
C      1  0.4769350000000  0.5082890000000  0.4563310000000 1.0
C      1  0.4716820000000  0.4226960000000  0.4690460000000 1.0
C      1  0.4305410000000  0.4748900000000  0.4356760000000 1.0
C      1  0.5713080000000  0.4586370000000  0.4636910000000 1.0
C      1  0.4467420000000  0.4889190000000  0.5088800000000 1.0
C      1  0.5995400000000  0.4829110000000  0.4928700000000 1.0
C      1  0.4776670000000  0.5467100000000  0.5733830000000 1.0
C      1  0.4678750000000  0.4043750000000  0.5143600000000 1.0
C      1  0.5418560000000  0.4673500000000  0.5810800000000 1.0
C      1  0.5020000000000  0.4773600000000  0.4882030000000 1.0
C      1  0.4416360000000  0.4528430000000  0.4488050000000 1.0
C      1  0.4766850000000  0.4259530000000  0.5562690000000 1.0
C      1  0.4660270000000  0.5155470000000  0.5071400000000 1.0
C      1  0.5919950000000  0.5233030000000  0.4710420000000 1.0
C      1  0.4153790000000  0.4961700000000  0.4491100000000 1.0
C      1  0.4704750000000  0.4614700000000  0.4447710000000 1.0
C      1  0.4414020000000  0.5661530000000  0.4561060000000 1.0
C      1  0.5221500000000  0.4329490000000  0.4575560000000 1.0
C      1  0.5004010000000  0.4869060000000  0.5453290000000 1.0
C      1  0.5229910000000  0.4163320000000  0.4813480000000 1.0
C      1  0.5050810000000  0.3955780000000  0.4822270000000 1.0
C      1  0.4720520000000  0.4844820000000  0.5521950000000 1.0
C      1  0.5240570000000  0.5054580000000  0.4621720000000 1.0
C      1  0.4783380000000  0.5359600000000  0.4684360000000 1.0
C      1  0.5844260000000  0.4996300000000  0.5389080000000 1.0
C      1  0.5634770000000  0.4611550000000  0.5139190000000 1.0
C      1  0.4318200000000  0.5194980000000  0.4497940000000 1.0
C      1  0.5200220000000  0.5701620000000  0.4639670000000 1.0
C      1  0.4762910000000  0.4965640000000  0.5949590000000 1.0
C      1  0.4773690000000  0.5745680000000  0.4341740000000 1.0
C      1  0.4122630000000  0.5346210000000  0.4947470000000 1.0
C      1  0.4313790000000  0.5580870000000  0.5370900000000 1.0
C      1  0.4781330000000  0.4733030000000  0.4162340000000 1.0
C      1  0.4026260000000  0.5070420000000  0.4919390000000 1.0
C      1  0.4773880000000  0.5869640000000  0.4863600000000 1.0
C      1  0.5487760000000  0.4372130000000  0.5214450000000 1.0
C      1  0.4937330000000  0.4313260000000  0.4482530000000 1.0
C      1  0.4515600000000  0.5610320000000  0.4297190000000 1.0
C      1  0.4577880000000  0.5108420000000  0.5566010000000 1.0
C      1  0.5848090000000  0.4788990000000  0.4495850000000 1.0
C      1  0.4490460000000  0.4309850000000  0.5492200000000 1.0
C      1  0.5457740000000  0.5629770000000  0.5443800000000 1.0
C      1  0.5386210000000  0.5268200000000  0.4994820000000 1.0
C      1  0.4373680000000  0.4563140000000  0.5506940000000 1.0
C      1  0.4320500000000  0.4328110000000  0.5004400000000 1.0
C      1  0.5086820000000  0.4619500000000  0.5383960000000 1.0
C      1  0.4171830000000  0.4939230000000  0.5131150000000 1.0
C      1  0.4962710000000  0.5057840000000  0.5016020000000 1.0
C      1  0.5009370000000  0.4553530000000  0.5106850000000 1.0
END
