TITL C-60898-5127-6 320.918719984781 125000 -479.881108170981 0 0 69 (C1) n - 1
REM
REM in /rds/project/t2_vol4/rds-t2-cs072/BORA/CARBON/from-Arr/AIRSS/Generating-Clusters/GAP-ML-2020/Only-C1/SD-CG/HFTN-CG
REM
REM
REM
REM
REM
REM ./C.cell (11c1c37f851c82e70ff6c80c92926a4b)
REM AIRSS Version 0.9.1 bugfix July 2018 build 013d7b7c2542+ Fri, 06 Jul 2018 19:26:36 +0100
REM compiler GCC version 9.3.0
REM options -cpp -mtune=generic -march=x86-64 -g -O0
REM seed 1417701655 -1641556774 316713897 -1697175314 -1533451550 -885141453 67440412 829662899 2093226942 -1561958976 307001954 1567049478 32110869 886737579 -369285758 1561807061 1213297102 -518942094 -1688579376 -142279697 1357516024 -360896889 -1966245241 -1047427803 1028729388 994370372 1136965786 1576131090 -266589601 -252398063 1147129652 611613083 1322356564
REM
CELL 1.54180   50.00000   50.00000   50.00000   90.00000   90.00000   90.00000
LATT -1
SFAC C  
C      1  0.4852510000000  0.4976250000000  0.5242050000000 1.0
C      1  0.4671940000000  0.5199930000000  0.5620000000000 1.0
C      1  0.5150150000000  0.5314200000000  0.4406470000000 1.0
C      1  0.4699070000000  0.5455950000000  0.5490270000000 1.0
C      1  0.4260840000000  0.5056650000000  0.4920640000000 1.0
C      1  0.5369780000000  0.5504000000000  0.5247740000000 1.0
C      1  0.4584940000000  0.4994520000000  0.4585070000000 1.0
C      1  0.5241100000000  0.5516560000000  0.4597350000000 1.0
C      1  0.4430380000000  0.4465010000000  0.5087290000000 1.0
C      1  0.4771150000000  0.5513200000000  0.4593480000000 1.0
C      1  0.4752370000000  0.5077600000000  0.4375300000000 1.0
C      1  0.4865020000000  0.5331280000000  0.4400820000000 1.0
C      1  0.4890350000000  0.4518770000000  0.4750460000000 1.0
C      1  0.4437730000000  0.4457530000000  0.4552740000000 1.0
C      1  0.4318180000000  0.4915510000000  0.5367910000000 1.0
C      1  0.5690710000000  0.5070900000000  0.4520640000000 1.0
C      1  0.5459280000000  0.4913460000000  0.4464430000000 1.0
C      1  0.4250130000000  0.5631630000000  0.5333180000000 1.0
C      1  0.4916880000000  0.4619620000000  0.4347890000000 1.0
C      1  0.5753470000000  0.4811880000000  0.4974300000000 1.0
C      1  0.5937690000000  0.4855900000000  0.4767270000000 1.0
C      1  0.5063140000000  0.4468920000000  0.5448610000000 1.0
C      1  0.5300630000000  0.5073910000000  0.4920680000000 1.0
C      1  0.5680000000000  0.5293350000000  0.4693850000000 1.0
C      1  0.4930900000000  0.5652010000000  0.5008280000000 1.0
C      1  0.5114400000000  0.4512530000000  0.4543870000000 1.0
C      1  0.4430330000000  0.5196170000000  0.4737650000000 1.0
C      1  0.4845680000000  0.5007050000000  0.4976410000000 1.0
C      1  0.4220330000000  0.5131320000000  0.5200770000000 1.0
C      1  0.5381150000000  0.5287250000000  0.5449380000000 1.0
C      1  0.4939200000000  0.5128490000000  0.5705480000000 1.0
C      1  0.4780200000000  0.4505690000000  0.5448680000000 1.0
C      1  0.5302930000000  0.5012260000000  0.5190820000000 1.0
C      1  0.4716650000000  0.4734120000000  0.5612720000000 1.0
C      1  0.4970250000000  0.4894690000000  0.4319130000000 1.0
C      1  0.4347180000000  0.4533260000000  0.4804140000000 1.0
C      1  0.5730680000000  0.5043270000000  0.5148690000000 1.0
C      1  0.4686050000000  0.4417280000000  0.5190110000000 1.0
C      1  0.5442710000000  0.4644690000000  0.4610240000000 1.0
C      1  0.5359010000000  0.4405040000000  0.4473750000000 1.0
C      1  0.4697280000000  0.4496140000000  0.4499780000000 1.0
C      1  0.5475410000000  0.4769660000000  0.5513170000000 1.0
C      1  0.5539650000000  0.5496850000000  0.5027600000000 1.0
C      1  0.4962130000000  0.4847120000000  0.5708460000000 1.0
C      1  0.5488270000000  0.5502630000000  0.4732170000000 1.0
C      1  0.5177740000000  0.4724030000000  0.5554130000000 1.0
C      1  0.4750660000000  0.4814780000000  0.4783110000000 1.0
C      1  0.4555690000000  0.5455140000000  0.4776350000000 1.0
C      1  0.4525660000000  0.4949190000000  0.5562230000000 1.0
C      1  0.5222090000000  0.5033150000000  0.4362930000000 1.0
C      1  0.4226460000000  0.4773450000000  0.4918100000000 1.0
C      1  0.5728540000000  0.5278510000000  0.4990890000000 1.0
C      1  0.5096490000000  0.4870100000000  0.5297050000000 1.0
C      1  0.4287640000000  0.4690470000000  0.5195170000000 1.0
C      1  0.5561540000000  0.4563120000000  0.5360350000000 1.0
C      1  0.4974460000000  0.5513630000000  0.5475310000000 1.0
C      1  0.4184730000000  0.5390240000000  0.5279560000000 1.0
C      1  0.5000830000000  0.5619750000000  0.4727130000000 1.0
C      1  0.4533530000000  0.5577310000000  0.5289460000000 1.0
C      1  0.5964730000000  0.4948810000000  0.4530730000000 1.0
C      1  0.4652480000000  0.5584730000000  0.5029040000000 1.0
C      1  0.5059140000000  0.5098190000000  0.4821740000000 1.0
C      1  0.4914880000000  0.4383480000000  0.5014430000000 1.0
C      1  0.5134650000000  0.5311760000000  0.5602930000000 1.0
C      1  0.5101080000000  0.5610120000000  0.5239900000000 1.0
C      1  0.5152490000000  0.4394100000000  0.5182130000000 1.0
C      1  0.5531750000000  0.4633100000000  0.4899560000000 1.0
C      1  0.5535890000000  0.5034440000000  0.5374340000000 1.0
C      1  0.5419040000000  0.4494360000000  0.5123720000000 1.0
END
