TITL C-61661-9658-1 195.612287308379 125000 -626.321447648136 0 0 89 (C1) n - 1
REM
REM in /rds/project/t2_vol4/rds-t2-cs072/BORA/CARBON/from-Arr/AIRSS/Generating-Clusters/GAP-ML-2020/Only-C1/SD-CG/HFTN-CG
REM
REM
REM
REM
REM
REM ./C.cell (11c1c37f851c82e70ff6c80c92926a4b)
REM AIRSS Version 0.9.1 bugfix July 2018 build 013d7b7c2542+ Fri, 06 Jul 2018 19:26:36 +0100
REM compiler GCC version 9.3.0
REM options -cpp -mtune=generic -march=x86-64 -g -O0
REM seed 660459873 645179130 1412364704 -1694525164 974153057 10834687 -1746523123 1165792572 -264247291 1047920066 1639755702 1385180872 -70403200 77507842 1530588988 1118025142 202390581 1872579105 33101406 807774914 -2142012409 -1969050483 1118956660 -157941844 -395433049 -1784662581 1498717311 961567509 -1686999279 594497797 686763390 840034315 2029419272
REM
CELL 1.54180   50.00000   50.00000   50.00000   90.00000   90.00000   90.00000
LATT -1
SFAC C  
C      1  0.5398880000000  0.4736930000000  0.4176000000000 1.0
C      1  0.5216760000000  0.4852280000000  0.4968960000000 1.0
C      1  0.5561240000000  0.4422550000000  0.5027260000000 1.0
C      1  0.4614810000000  0.5511470000000  0.4345090000000 1.0
C      1  0.5192340000000  0.5739750000000  0.5386340000000 1.0
C      1  0.5102130000000  0.4813910000000  0.5216940000000 1.0
C      1  0.5025710000000  0.5637800000000  0.4844930000000 1.0
C      1  0.5148710000000  0.4841240000000  0.4233980000000 1.0
C      1  0.5308010000000  0.4845210000000  0.5715840000000 1.0
C      1  0.4807710000000  0.5145940000000  0.4779980000000 1.0
C      1  0.4929680000000  0.4535450000000  0.5670210000000 1.0
C      1  0.4826480000000  0.5678580000000  0.4457400000000 1.0
C      1  0.4670110000000  0.5588280000000  0.5463720000000 1.0
C      1  0.4731330000000  0.5259660000000  0.4277910000000 1.0
C      1  0.5796680000000  0.4869010000000  0.4899240000000 1.0
C      1  0.5361210000000  0.5324560000000  0.5424370000000 1.0
C      1  0.5377350000000  0.5796500000000  0.5165350000000 1.0
C      1  0.5311510000000  0.5633690000000  0.4936070000000 1.0
C      1  0.5341120000000  0.4411510000000  0.5469570000000 1.0
C      1  0.5214180000000  0.4582890000000  0.5669330000000 1.0
C      1  0.4955960000000  0.5544600000000  0.5364480000000 1.0
C      1  0.5689650000000  0.4603640000000  0.4836040000000 1.0
C      1  0.4817010000000  0.4228640000000  0.5020310000000 1.0
C      1  0.4101820000000  0.4671590000000  0.5013370000000 1.0
C      1  0.5431650000000  0.5607520000000  0.5466660000000 1.0
C      1  0.4481110000000  0.5144580000000  0.5124250000000 1.0
C      1  0.5551850000000  0.4895760000000  0.5577900000000 1.0
C      1  0.4861280000000  0.4285890000000  0.4574480000000 1.0
C      1  0.4125850000000  0.4913480000000  0.4864540000000 1.0
C      1  0.5363830000000  0.5482850000000  0.4497520000000 1.0
C      1  0.5112410000000  0.5056760000000  0.5736780000000 1.0
C      1  0.4457470000000  0.4450750000000  0.4753550000000 1.0
C      1  0.5512050000000  0.5551440000000  0.4720100000000 1.0
C      1  0.4154930000000  0.4804250000000  0.5264850000000 1.0
C      1  0.4502530000000  0.5564890000000  0.4801640000000 1.0
C      1  0.5257840000000  0.5136640000000  0.4937120000000 1.0
C      1  0.4679560000000  0.4302790000000  0.5261080000000 1.0
C      1  0.5770200000000  0.5180850000000  0.5275360000000 1.0
C      1  0.5373520000000  0.5345220000000  0.5098840000000 1.0
C      1  0.5133560000000  0.4268840000000  0.5344440000000 1.0
C      1  0.5171640000000  0.5108480000000  0.4325260000000 1.0
C      1  0.5317840000000  0.4410170000000  0.4631580000000 1.0
C      1  0.5328230000000  0.4303110000000  0.4898710000000 1.0
C      1  0.4343030000000  0.4655320000000  0.5410480000000 1.0
C      1  0.5037730000000  0.4496700000000  0.4551770000000 1.0
C      1  0.4415550000000  0.5434060000000  0.4531730000000 1.0
C      1  0.4748180000000  0.4750630000000  0.5731440000000 1.0
C      1  0.4286140000000  0.4918850000000  0.4635170000000 1.0
C      1  0.4591160000000  0.4874220000000  0.5060140000000 1.0
C      1  0.4852630000000  0.5000290000000  0.5832990000000 1.0
C      1  0.5418960000000  0.5226530000000  0.4385520000000 1.0
C      1  0.4611260000000  0.5434520000000  0.5698810000000 1.0
C      1  0.5692440000000  0.5407710000000  0.5110860000000 1.0
C      1  0.4417530000000  0.4422490000000  0.5247780000000 1.0
C      1  0.4479970000000  0.5677350000000  0.5268590000000 1.0
C      1  0.4200580000000  0.5051660000000  0.5126330000000 1.0
C      1  0.4552460000000  0.4813040000000  0.5528110000000 1.0
C      1  0.4661550000000  0.4764620000000  0.4364130000000 1.0
C      1  0.4894240000000  0.5480680000000  0.5070210000000 1.0
C      1  0.5000270000000  0.4721280000000  0.4824750000000 1.0
C      1  0.5796040000000  0.4918020000000  0.5178760000000 1.0
C      1  0.4764300000000  0.5737280000000  0.4723090000000 1.0
C      1  0.5565440000000  0.4773410000000  0.4395510000000 1.0
C      1  0.4363560000000  0.5675400000000  0.5041920000000 1.0
C      1  0.4989810000000  0.5207250000000  0.5012460000000 1.0
C      1  0.5623560000000  0.5048270000000  0.4475320000000 1.0
C      1  0.4566450000000  0.5033440000000  0.4299890000000 1.0
C      1  0.5556470000000  0.4565100000000  0.4589250000000 1.0
C      1  0.5753950000000  0.5104940000000  0.4722090000000 1.0
C      1  0.4664800000000  0.4995060000000  0.5316720000000 1.0
C      1  0.4295660000000  0.4461360000000  0.4985180000000 1.0
C      1  0.4688670000000  0.5229450000000  0.5822510000000 1.0
C      1  0.5625260000000  0.5660710000000  0.5260890000000 1.0
C      1  0.4366700000000  0.5140350000000  0.4482120000000 1.0
C      1  0.4744220000000  0.4856940000000  0.4819330000000 1.0
C      1  0.4512670000000  0.4710400000000  0.4618570000000 1.0
C      1  0.5587450000000  0.5157050000000  0.5488820000000 1.0
C      1  0.5107550000000  0.4218020000000  0.5062970000000 1.0
C      1  0.4680600000000  0.4273140000000  0.4771420000000 1.0
C      1  0.5070440000000  0.5514630000000  0.4539120000000 1.0
C      1  0.4624420000000  0.5339420000000  0.4949230000000 1.0
C      1  0.4882350000000  0.4340110000000  0.5462180000000 1.0
C      1  0.5673280000000  0.4737020000000  0.5370910000000 1.0
C      1  0.5717340000000  0.5377240000000  0.4820870000000 1.0
C      1  0.4949050000000  0.5056740000000  0.5277370000000 1.0
C      1  0.4954890000000  0.5237930000000  0.4482640000000 1.0
C      1  0.5563040000000  0.4486650000000  0.5306640000000 1.0
C      1  0.5089190000000  0.5246650000000  0.5490790000000 1.0
C      1  0.4931370000000  0.4678080000000  0.4337270000000 1.0
END
