TITL C-61681-9596-2 0.129838367734831 125000 -899.417953345751 0 0 127 (C1) n - 1
REM
REM in /rds/project/t2_vol4/rds-t2-cs072/BORA/CARBON/from-Arr/AIRSS/Generating-Clusters/GAP-ML-2020/Only-C1/SD-CG/HFTN-CG
REM
REM
REM
REM
REM
REM ./C.cell (11c1c37f851c82e70ff6c80c92926a4b)
REM AIRSS Version 0.9.1 bugfix July 2018 build 013d7b7c2542+ Fri, 06 Jul 2018 19:26:36 +0100
REM compiler GCC version 9.3.0
REM options -cpp -mtune=generic -march=x86-64 -g -O0
REM seed 1618636697 -1052187090 110864762 -1401256333 1387292836 -148674661 1055998919 149309697 1521130246 -1006909959 -696033768 -866644206 1530771549 45924071 -725985938 -1695717349 727389375 -52243170 -1276398484 -854403133 1021621536 2117006583 168948715 -350689921 1073767 1521330432 -397153952 1660120982 631556933 -1830405448 507412545 -2098371607 -1061528204
REM
CELL 1.54180   50.00000   50.00000   50.00000   90.00000   90.00000   90.00000
LATT -1
SFAC C  
C      1  0.4343620000000  0.5359970000000  0.5477960000000 1.0
C      1  0.5159220000000  0.5963400000000  0.5182900000000 1.0
C      1  0.4921750000000  0.4887350000000  0.5470910000000 1.0
C      1  0.4109450000000  0.5215310000000  0.5078480000000 1.0
C      1  0.4950520000000  0.4984260000000  0.4584330000000 1.0
C      1  0.4852950000000  0.4730680000000  0.5017680000000 1.0
C      1  0.4226660000000  0.5300500000000  0.4624870000000 1.0
C      1  0.4544150000000  0.5600570000000  0.4481090000000 1.0
C      1  0.5638760000000  0.4627840000000  0.5693080000000 1.0
C      1  0.4780080000000  0.5759020000000  0.4466860000000 1.0
C      1  0.4520650000000  0.5831740000000  0.5080860000000 1.0
C      1  0.4520670000000  0.5408380000000  0.4279910000000 1.0
C      1  0.4664660000000  0.4996140000000  0.4649830000000 1.0
C      1  0.5736180000000  0.4918810000000  0.4428470000000 1.0
C      1  0.4685160000000  0.5150730000000  0.5135500000000 1.0
C      1  0.4311140000000  0.4683700000000  0.4899380000000 1.0
C      1  0.5349240000000  0.5260690000000  0.4843660000000 1.0
C      1  0.5448030000000  0.5649920000000  0.5437360000000 1.0
C      1  0.4955730000000  0.4179510000000  0.4906820000000 1.0
C      1  0.5841320000000  0.4535410000000  0.5104180000000 1.0
C      1  0.5333520000000  0.4539910000000  0.5353820000000 1.0
C      1  0.4999020000000  0.5332380000000  0.5890460000000 1.0
C      1  0.4940160000000  0.4570930000000  0.4098120000000 1.0
C      1  0.4640200000000  0.5235860000000  0.4846050000000 1.0
C      1  0.4736750000000  0.5260770000000  0.5791660000000 1.0
C      1  0.5245560000000  0.5239130000000  0.4169790000000 1.0
C      1  0.4908410000000  0.5358460000000  0.4832660000000 1.0
C      1  0.4877980000000  0.4403370000000  0.5374000000000 1.0
C      1  0.5207970000000  0.4482820000000  0.4157370000000 1.0
C      1  0.4577980000000  0.5452000000000  0.5636390000000 1.0
C      1  0.4510060000000  0.4456080000000  0.4395110000000 1.0
C      1  0.5215910000000  0.4950950000000  0.4101320000000 1.0
C      1  0.4823310000000  0.3976970000000  0.5094400000000 1.0
C      1  0.4631370000000  0.4766180000000  0.4821100000000 1.0
C      1  0.5243470000000  0.5745670000000  0.4475870000000 1.0
C      1  0.4793170000000  0.4191940000000  0.4660830000000 1.0
C      1  0.4723110000000  0.5022970000000  0.4122100000000 1.0
C      1  0.5305170000000  0.5934800000000  0.4932090000000 1.0
C      1  0.5417930000000  0.5034330000000  0.5875390000000 1.0
C      1  0.5427270000000  0.4744880000000  0.5835170000000 1.0
C      1  0.5614640000000  0.4469280000000  0.4606760000000 1.0
C      1  0.5011120000000  0.5411020000000  0.4183560000000 1.0
C      1  0.5475620000000  0.5350470000000  0.4305900000000 1.0
C      1  0.4547440000000  0.3998930000000  0.5109990000000 1.0
C      1  0.4119180000000  0.4813100000000  0.4438280000000 1.0
C      1  0.4750540000000  0.5302180000000  0.4148180000000 1.0
C      1  0.4238530000000  0.4761140000000  0.5170410000000 1.0
C      1  0.4995330000000  0.4877830000000  0.5930460000000 1.0
C      1  0.5560900000000  0.4691740000000  0.4410050000000 1.0
C      1  0.4533140000000  0.4312320000000  0.4654090000000 1.0
C      1  0.5217510000000  0.5818690000000  0.5419950000000 1.0
C      1  0.5723840000000  0.5337020000000  0.5102660000000 1.0
C      1  0.4317240000000  0.5201490000000  0.4357770000000 1.0
C      1  0.5205080000000  0.4292030000000  0.4378870000000 1.0
C      1  0.4088660000000  0.5049550000000  0.4280090000000 1.0
C      1  0.5774940000000  0.5366820000000  0.4803350000000 1.0
C      1  0.5733180000000  0.4832690000000  0.5498130000000 1.0
C      1  0.4113410000000  0.5125600000000  0.4809020000000 1.0
C      1  0.5523610000000  0.5105920000000  0.5045000000000 1.0
C      1  0.5298970000000  0.5494700000000  0.4997720000000 1.0
C      1  0.4850250000000  0.3928170000000  0.5371050000000 1.0
C      1  0.5478810000000  0.5591120000000  0.4464300000000 1.0
C      1  0.5153970000000  0.5538160000000  0.5776240000000 1.0
C      1  0.5512330000000  0.5733920000000  0.4935240000000 1.0
C      1  0.4760060000000  0.4413130000000  0.4255460000000 1.0
C      1  0.4610050000000  0.4466920000000  0.5707510000000 1.0
C      1  0.4252940000000  0.5087420000000  0.5507540000000 1.0
C      1  0.5452220000000  0.4804150000000  0.5342290000000 1.0
C      1  0.5337370000000  0.4734560000000  0.4869930000000 1.0
C      1  0.4681950000000  0.5859220000000  0.5328480000000 1.0
C      1  0.5682960000000  0.5176230000000  0.4381600000000 1.0
C      1  0.4925070000000  0.4247200000000  0.4418230000000 1.0
C      1  0.4245580000000  0.5437130000000  0.5197600000000 1.0
C      1  0.5063610000000  0.4604130000000  0.5506780000000 1.0
C      1  0.5764100000000  0.5119620000000  0.5554300000000 1.0
C      1  0.5090100000000  0.5120690000000  0.5377450000000 1.0
C      1  0.4918260000000  0.5299580000000  0.5238690000000 1.0
C      1  0.5384230000000  0.4279350000000  0.4607890000000 1.0
C      1  0.4574250000000  0.4442400000000  0.5400960000000 1.0
C      1  0.5733640000000  0.4606740000000  0.4846800000000 1.0
C      1  0.5551360000000  0.5568000000000  0.5175060000000 1.0
C      1  0.5098190000000  0.5140200000000  0.4777720000000 1.0
C      1  0.5155410000000  0.5917550000000  0.4691010000000 1.0
C      1  0.5153300000000  0.5100200000000  0.5963720000000 1.0
C      1  0.5014160000000  0.5653420000000  0.4334690000000 1.0
C      1  0.5378560000000  0.4704400000000  0.4162620000000 1.0
C      1  0.5420260000000  0.5484630000000  0.5672200000000 1.0
C      1  0.5641160000000  0.5600090000000  0.4707690000000 1.0
C      1  0.5761710000000  0.4367140000000  0.5305910000000 1.0
C      1  0.4877820000000  0.4143810000000  0.5523470000000 1.0
C      1  0.4961360000000  0.4446360000000  0.5088330000000 1.0
C      1  0.5028860000000  0.4383180000000  0.5916860000000 1.0
C      1  0.4415490000000  0.5483140000000  0.4736310000000 1.0
C      1  0.4944830000000  0.4858150000000  0.4055300000000 1.0
C      1  0.4135880000000  0.4850690000000  0.4725960000000 1.0
C      1  0.4815950000000  0.4276290000000  0.5786970000000 1.0
C      1  0.4371420000000  0.4696350000000  0.4352820000000 1.0
C      1  0.4455580000000  0.4708070000000  0.5350410000000 1.0
C      1  0.4766650000000  0.4950500000000  0.5764380000000 1.0
C      1  0.5125760000000  0.4905250000000  0.4975490000000 1.0
C      1  0.5932760000000  0.4757740000000  0.5279890000000 1.0
C      1  0.4390020000000  0.4388810000000  0.4896140000000 1.0
C      1  0.5900920000000  0.5210860000000  0.5308970000000 1.0
C      1  0.5562760000000  0.5233410000000  0.5722250000000 1.0
C      1  0.4868790000000  0.5928400000000  0.4682640000000 1.0
C      1  0.4367960000000  0.4848310000000  0.5598970000000 1.0
C      1  0.5769260000000  0.5101100000000  0.4660790000000 1.0
C      1  0.6042580000000  0.4992880000000  0.5203280000000 1.0
C      1  0.4732210000000  0.5698970000000  0.5558380000000 1.0
C      1  0.5251930000000  0.4235550000000  0.4861120000000 1.0
C      1  0.4882780000000  0.5999340000000  0.5172000000000 1.0
C      1  0.5305970000000  0.4731170000000  0.4590380000000 1.0
C      1  0.5017810000000  0.5727040000000  0.5613210000000 1.0
C      1  0.4731610000000  0.5970920000000  0.4927540000000 1.0
C      1  0.5585080000000  0.4412200000000  0.5500290000000 1.0
C      1  0.4718440000000  0.4874690000000  0.5241960000000 1.0
C      1  0.5142250000000  0.4633940000000  0.5829810000000 1.0
C      1  0.5041420000000  0.4734810000000  0.4520770000000 1.0
C      1  0.4461760000000  0.4260510000000  0.5142960000000 1.0
C      1  0.4554740000000  0.4740140000000  0.5776440000000 1.0
C      1  0.5298400000000  0.5006790000000  0.5218900000000 1.0
C      1  0.5265340000000  0.4468350000000  0.5054000000000 1.0
C      1  0.4352910000000  0.5618230000000  0.5000310000000 1.0
C      1  0.4131630000000  0.5003540000000  0.5257480000000 1.0
C      1  0.5633550000000  0.4893490000000  0.4861500000000 1.0
C      1  0.4531760000000  0.4953260000000  0.4351140000000 1.0
C      1  0.5018770000000  0.5491460000000  0.5055520000000 1.0
END
