TITL C-61679-9636-4 -0.11793556116812 125000 -705.971550260489 0 0 101 (C1) n - 1
REM
REM in /rds/project/t2_vol4/rds-t2-cs072/BORA/CARBON/from-Arr/AIRSS/Generating-Clusters/GAP-ML-2020/Only-C1/SD-CG/HFTN-CG
REM
REM
REM
REM
REM
REM ./C.cell (11c1c37f851c82e70ff6c80c92926a4b)
REM AIRSS Version 0.9.1 bugfix July 2018 build 013d7b7c2542+ Fri, 06 Jul 2018 19:26:36 +0100
REM compiler GCC version 9.3.0
REM options -cpp -mtune=generic -march=x86-64 -g -O0
REM seed 1676347026 458582193 -1384294154 -1656865958 -1225962942 1465293068 921890341 617408589 2113619818 887289723 -1560075055 2073011845 -1613397800 47638832 1160105059 -1674211344 -876906610 -272475243 -2054769429 1540964403 319576650 -2117857588 -1962955355 -863687486 1550651835 -981090231 1392916996 -1933066334 -254318238 2115036583 -90026990 -1827059384 1638741992
REM
CELL 1.54180   50.00000   50.00000   50.00000   90.00000   90.00000   90.00000
LATT -1
SFAC C  
C      1  0.5258280000000  0.5456850000000  0.5160750000000 1.0
C      1  0.4200060000000  0.5156530000000  0.4985820000000 1.0
C      1  0.5408330000000  0.4529270000000  0.4472340000000 1.0
C      1  0.4774060000000  0.5469210000000  0.5283170000000 1.0
C      1  0.5041790000000  0.5053610000000  0.5252730000000 1.0
C      1  0.5877180000000  0.4836490000000  0.4756750000000 1.0
C      1  0.5560670000000  0.4444800000000  0.4704060000000 1.0
C      1  0.4105500000000  0.5131330000000  0.5475760000000 1.0
C      1  0.4936210000000  0.4620940000000  0.5107580000000 1.0
C      1  0.5169460000000  0.4661870000000  0.5727030000000 1.0
C      1  0.4656050000000  0.5671760000000  0.4632840000000 1.0
C      1  0.5467620000000  0.5233390000000  0.5155680000000 1.0
C      1  0.4542500000000  0.4930930000000  0.5666690000000 1.0
C      1  0.4795730000000  0.4164190000000  0.4762450000000 1.0
C      1  0.4206220000000  0.4885800000000  0.4592940000000 1.0
C      1  0.4488470000000  0.4524800000000  0.5424310000000 1.0
C      1  0.4923100000000  0.4536730000000  0.5627920000000 1.0
C      1  0.5569850000000  0.5068190000000  0.5610830000000 1.0
C      1  0.5415270000000  0.4597180000000  0.5590980000000 1.0
C      1  0.4696800000000  0.4705280000000  0.5521090000000 1.0
C      1  0.5856080000000  0.5034110000000  0.5231250000000 1.0
C      1  0.5156360000000  0.4921620000000  0.5847700000000 1.0
C      1  0.4901490000000  0.5037680000000  0.5914860000000 1.0
C      1  0.4547330000000  0.4476890000000  0.4515930000000 1.0
C      1  0.5326250000000  0.5130070000000  0.5740490000000 1.0
C      1  0.4901130000000  0.5612500000000  0.4755820000000 1.0
C      1  0.4934640000000  0.4865340000000  0.4687210000000 1.0
C      1  0.4633640000000  0.5158770000000  0.4845680000000 1.0
C      1  0.4550170000000  0.4326480000000  0.5233410000000 1.0
C      1  0.4248840000000  0.5231220000000  0.5266210000000 1.0
C      1  0.4651820000000  0.4930590000000  0.5945170000000 1.0
C      1  0.4531210000000  0.5302340000000  0.4321650000000 1.0
C      1  0.4272120000000  0.4682270000000  0.5339950000000 1.0
C      1  0.4720860000000  0.4499090000000  0.4291020000000 1.0
C      1  0.4931770000000  0.4288220000000  0.5491710000000 1.0
C      1  0.4682500000000  0.5537950000000  0.4389330000000 1.0
C      1  0.5751360000000  0.4559400000000  0.5126480000000 1.0
C      1  0.5194250000000  0.4138820000000  0.4876140000000 1.0
C      1  0.5765530000000  0.4596520000000  0.4840410000000 1.0
C      1  0.5140910000000  0.5762000000000  0.4749730000000 1.0
C      1  0.5199870000000  0.5511770000000  0.4333850000000 1.0
C      1  0.5091250000000  0.4437840000000  0.5314760000000 1.0
C      1  0.5366460000000  0.5047520000000  0.4739900000000 1.0
C      1  0.5491730000000  0.5047830000000  0.4455430000000 1.0
C      1  0.5075200000000  0.5116630000000  0.4698930000000 1.0
C      1  0.4809430000000  0.5746010000000  0.5344150000000 1.0
C      1  0.5004210000000  0.4498170000000  0.4251590000000 1.0
C      1  0.5363000000000  0.4793800000000  0.4330030000000 1.0
C      1  0.4090280000000  0.5081890000000  0.4438070000000 1.0
C      1  0.5058690000000  0.4196740000000  0.4627070000000 1.0
C      1  0.5785010000000  0.4774150000000  0.5317360000000 1.0
C      1  0.5160290000000  0.5349450000000  0.5655120000000 1.0
C      1  0.4418680000000  0.4409950000000  0.4989830000000 1.0
C      1  0.4775750000000  0.5197630000000  0.4177160000000 1.0
C      1  0.4925760000000  0.5437790000000  0.4257360000000 1.0
C      1  0.5822430000000  0.5218680000000  0.4760640000000 1.0
C      1  0.5490450000000  0.5489080000000  0.4726410000000 1.0
C      1  0.4647300000000  0.5216500000000  0.5588210000000 1.0
C      1  0.4274450000000  0.4914400000000  0.5511050000000 1.0
C      1  0.5101870000000  0.4764160000000  0.4193100000000 1.0
C      1  0.4364500000000  0.5323740000000  0.4789870000000 1.0
C      1  0.5371650000000  0.4414920000000  0.5380410000000 1.0
C      1  0.5176790000000  0.4361210000000  0.4428730000000 1.0
C      1  0.5064720000000  0.4698490000000  0.4874420000000 1.0
C      1  0.5555920000000  0.5253780000000  0.4869940000000 1.0
C      1  0.4415080000000  0.5786440000000  0.5039520000000 1.0
C      1  0.4847620000000  0.4923770000000  0.4143620000000 1.0
C      1  0.5591180000000  0.5536250000000  0.5436320000000 1.0
C      1  0.4792270000000  0.4177560000000  0.5263560000000 1.0
C      1  0.5546650000000  0.4367840000000  0.5167070000000 1.0
C      1  0.4924580000000  0.4098930000000  0.5010880000000 1.0
C      1  0.4825550000000  0.4855720000000  0.5242840000000 1.0
C      1  0.4626540000000  0.4765300000000  0.4228630000000 1.0
C      1  0.5619580000000  0.4792230000000  0.5548900000000 1.0
C      1  0.4179860000000  0.4883370000000  0.4887970000000 1.0
C      1  0.4907470000000  0.5309260000000  0.4848070000000 1.0
C      1  0.5932410000000  0.5042100000000  0.4960150000000 1.0
C      1  0.5267500000000  0.5978080000000  0.5280920000000 1.0
C      1  0.5665880000000  0.5238200000000  0.5388030000000 1.0
C      1  0.5160130000000  0.5743860000000  0.4480020000000 1.0
C      1  0.4428250000000  0.5621220000000  0.4810790000000 1.0
C      1  0.4989520000000  0.5326700000000  0.5136570000000 1.0
C      1  0.4888360000000  0.5270370000000  0.5728740000000 1.0
C      1  0.4575580000000  0.5854980000000  0.5231050000000 1.0
C      1  0.5261990000000  0.5544060000000  0.5460330000000 1.0
C      1  0.5443980000000  0.4270140000000  0.4911110000000 1.0
C      1  0.5096960000000  0.5801500000000  0.5395730000000 1.0
C      1  0.4627300000000  0.5043290000000  0.5123420000000 1.0
C      1  0.4558670000000  0.5281570000000  0.5320870000000 1.0
C      1  0.4662690000000  0.4924880000000  0.4681180000000 1.0
C      1  0.5300830000000  0.4979390000000  0.5177460000000 1.0
C      1  0.5312860000000  0.4838390000000  0.4938680000000 1.0
C      1  0.5475820000000  0.5862810000000  0.5135590000000 1.0
C      1  0.5420440000000  0.5376780000000  0.4458080000000 1.0
C      1  0.5773770000000  0.5024660000000  0.4552520000000 1.0
C      1  0.4302620000000  0.5248300000000  0.4497490000000 1.0
C      1  0.4473530000000  0.4770430000000  0.4505580000000 1.0
C      1  0.5667420000000  0.5755260000000  0.5307160000000 1.0
C      1  0.4552110000000  0.4319350000000  0.4748720000000 1.0
C      1  0.4252610000000  0.4648440000000  0.5052100000000 1.0
C      1  0.5355280000000  0.5665460000000  0.4925040000000 1.0
END
