TITL C-61684-9612-5 -28.3484305470065 125000 -399.869129892876 0 0 59 (C1) n - 1
REM
REM in /rds/project/t2_vol4/rds-t2-cs072/BORA/CARBON/from-Arr/AIRSS/Generating-Clusters/GAP-ML-2020/Only-C1/SD-CG/HFTN-CG
REM
REM
REM
REM
REM
REM ./C.cell (11c1c37f851c82e70ff6c80c92926a4b)
REM AIRSS Version 0.9.1 bugfix July 2018 build 013d7b7c2542+ Fri, 06 Jul 2018 19:26:36 +0100
REM compiler GCC version 9.3.0
REM options -cpp -mtune=generic -march=x86-64 -g -O0
REM seed 1407119122 -310439049 56213094 1953389082 719262139 -2053157460 -600351017 -1611276232 450666998 -420958897 -783028372 1087483536 -1207317524 -1048158738 1072960255 780065719 -1262576 -1842986277 -1817057614 384679122 1796925434 -1323484255 -212221524 576044348 1164505410 -1682742612 1540201614 -2143540346 -962834694 1005430621 -1981284417 -1477631489 1972889702
REM
CELL 1.54180   50.00000   50.00000   50.00000   90.00000   90.00000   90.00000
LATT -1
SFAC C  
C      1  0.5127090000000  0.5333240000000  0.4420410000000 1.0
C      1  0.4897320000000  0.4576960000000  0.5553590000000 1.0
C      1  0.4707110000000  0.4637440000000  0.4446170000000 1.0
C      1  0.4974950000000  0.5694000000000  0.5046070000000 1.0
C      1  0.4917580000000  0.5530360000000  0.4821380000000 1.0
C      1  0.4559780000000  0.4877250000000  0.5402930000000 1.0
C      1  0.4422040000000  0.5096930000000  0.5255600000000 1.0
C      1  0.5355960000000  0.4990570000000  0.4407990000000 1.0
C      1  0.5173030000000  0.5072590000000  0.5653180000000 1.0
C      1  0.4326800000000  0.5072630000000  0.4980890000000 1.0
C      1  0.4858080000000  0.4505570000000  0.4919780000000 1.0
C      1  0.5238130000000  0.5636920000000  0.5171100000000 1.0
C      1  0.5526210000000  0.4981490000000  0.4653670000000 1.0
C      1  0.5527110000000  0.4741380000000  0.4796530000000 1.0
C      1  0.4670960000000  0.5383990000000  0.4894220000000 1.0
C      1  0.5657940000000  0.4600900000000  0.5516200000000 1.0
C      1  0.5263820000000  0.5432930000000  0.5373890000000 1.0
C      1  0.4769690000000  0.4411910000000  0.5192600000000 1.0
C      1  0.4736460000000  0.5758710000000  0.5173550000000 1.0
C      1  0.4473380000000  0.5218080000000  0.4763790000000 1.0
C      1  0.4579120000000  0.5536310000000  0.5150330000000 1.0
C      1  0.5419100000000  0.5441120000000  0.4809740000000 1.0
C      1  0.5009820000000  0.4885700000000  0.5293340000000 1.0
C      1  0.4861870000000  0.5187220000000  0.5051750000000 1.0
C      1  0.4864480000000  0.4831030000000  0.4300340000000 1.0
C      1  0.4508780000000  0.5059400000000  0.4518850000000 1.0
C      1  0.5156600000000  0.4546090000000  0.4974220000000 1.0
C      1  0.4436740000000  0.4719040000000  0.4822520000000 1.0
C      1  0.5480670000000  0.5236200000000  0.5352320000000 1.0
C      1  0.5072930000000  0.5080450000000  0.4884370000000 1.0
C      1  0.5056610000000  0.5313220000000  0.5543620000000 1.0
C      1  0.5017240000000  0.4386040000000  0.5368740000000 1.0
C      1  0.5447340000000  0.5645580000000  0.4989680000000 1.0
C      1  0.5560080000000  0.5197640000000  0.4848980000000 1.0
C      1  0.4754770000000  0.4930600000000  0.5170610000000 1.0
C      1  0.5342570000000  0.5232670000000  0.4274900000000 1.0
C      1  0.4653380000000  0.4586360000000  0.5394860000000 1.0
C      1  0.5497870000000  0.4585290000000  0.5281120000000 1.0
C      1  0.4870990000000  0.5314920000000  0.4315080000000 1.0
C      1  0.4872480000000  0.4475390000000  0.4608500000000 1.0
C      1  0.4967430000000  0.4862700000000  0.5611580000000 1.0
C      1  0.4207280000000  0.4838350000000  0.4911270000000 1.0
C      1  0.4712790000000  0.5008690000000  0.5619110000000 1.0
C      1  0.5145200000000  0.5373500000000  0.4713240000000 1.0
C      1  0.5449990000000  0.5058000000000  0.5580180000000 1.0
C      1  0.5328030000000  0.4549280000000  0.4738480000000 1.0
C      1  0.4759280000000  0.5271210000000  0.5537900000000 1.0
C      1  0.4724030000000  0.5091860000000  0.4326020000000 1.0
C      1  0.5612000000000  0.4836890000000  0.5611910000000 1.0
C      1  0.5261340000000  0.4430230000000  0.5224750000000 1.0
C      1  0.5499070000000  0.4817890000000  0.5088500000000 1.0
C      1  0.4541070000000  0.5342470000000  0.5352720000000 1.0
C      1  0.4479230000000  0.4769770000000  0.4546810000000 1.0
C      1  0.5587460000000  0.5103320000000  0.5115620000000 1.0
C      1  0.5142990000000  0.4554390000000  0.4529360000000 1.0
C      1  0.4719230000000  0.4770230000000  0.4924420000000 1.0
C      1  0.5191290000000  0.4855090000000  0.5072320000000 1.0
C      1  0.5145800000000  0.4784340000000  0.4357220000000 1.0
C      1  0.4879620000000  0.4937660000000  0.4741230000000 1.0
END
