TITL C-61677-9705-6 -19.2224787614693 125000 -867.082008953682 0 0 124 (C1) n - 1
REM
REM in /rds/project/t2_vol4/rds-t2-cs072/BORA/CARBON/from-Arr/AIRSS/Generating-Clusters/GAP-ML-2020/Only-C1/SD-CG/HFTN-CG
REM
REM
REM
REM
REM
REM ./C.cell (11c1c37f851c82e70ff6c80c92926a4b)
REM AIRSS Version 0.9.1 bugfix July 2018 build 013d7b7c2542+ Fri, 06 Jul 2018 19:26:36 +0100
REM compiler GCC version 9.3.0
REM options -cpp -mtune=generic -march=x86-64 -g -O0
REM seed -1310208615 1523072385 -346391456 933218381 -1631400466 679223452 611014011 1034864083 601942431 583770108 1148549606 1340232896 -1588224307 -2141379503 -380718462 -1544005139 164087776 636978184 -1284816173 -550096847 -583075093 -839426214 -842931605 -441105990 1070795464 494088182 -371888099 -2041331270 9349767 -1575593818 -2108275931 -1148105462 1332343391
REM
CELL 1.54180   50.00000   50.00000   50.00000   90.00000   90.00000   90.00000
LATT -1
SFAC C  
C      1  0.5587530000000  0.5119430000000  0.4302040000000 1.0
C      1  0.4341120000000  0.5082000000000  0.5574240000000 1.0
C      1  0.5743830000000  0.5429660000000  0.5306720000000 1.0
C      1  0.4902490000000  0.4557150000000  0.5820710000000 1.0
C      1  0.5563280000000  0.5657920000000  0.4952800000000 1.0
C      1  0.5341250000000  0.4400880000000  0.4286600000000 1.0
C      1  0.5378720000000  0.5564370000000  0.4464560000000 1.0
C      1  0.5607470000000  0.4420390000000  0.5341700000000 1.0
C      1  0.5407510000000  0.4805060000000  0.5916140000000 1.0
C      1  0.4108610000000  0.5466980000000  0.5025630000000 1.0
C      1  0.5163220000000  0.5042970000000  0.5404240000000 1.0
C      1  0.4019810000000  0.5046830000000  0.5225590000000 1.0
C      1  0.4900360000000  0.5635540000000  0.4342320000000 1.0
C      1  0.4250920000000  0.5272450000000  0.4603760000000 1.0
C      1  0.5372180000000  0.4249180000000  0.5285560000000 1.0
C      1  0.5136760000000  0.5836130000000  0.4885070000000 1.0
C      1  0.4479680000000  0.4798830000000  0.4577420000000 1.0
C      1  0.4529440000000  0.5496630000000  0.5680350000000 1.0
C      1  0.5085210000000  0.4705150000000  0.4028730000000 1.0
C      1  0.5096890000000  0.4949540000000  0.4595600000000 1.0
C      1  0.4977990000000  0.5391110000000  0.5785890000000 1.0
C      1  0.5123060000000  0.4310340000000  0.5455100000000 1.0
C      1  0.5866520000000  0.5244030000000  0.4853580000000 1.0
C      1  0.5335990000000  0.4820980000000  0.4084370000000 1.0
C      1  0.5360820000000  0.4808550000000  0.5064670000000 1.0
C      1  0.5680080000000  0.4853950000000  0.4405280000000 1.0
C      1  0.5066430000000  0.4089480000000  0.4576490000000 1.0
C      1  0.5187930000000  0.5353490000000  0.4858380000000 1.0
C      1  0.4875390000000  0.5883680000000  0.4792820000000 1.0
C      1  0.5381940000000  0.5569360000000  0.5621060000000 1.0
C      1  0.4528600000000  0.5061450000000  0.4996070000000 1.0
C      1  0.4483950000000  0.4653770000000  0.4306370000000 1.0
C      1  0.5613320000000  0.5381260000000  0.4434980000000 1.0
C      1  0.4057630000000  0.5078780000000  0.4759530000000 1.0
C      1  0.5903010000000  0.4791600000000  0.5141960000000 1.0
C      1  0.4859690000000  0.4874880000000  0.4011400000000 1.0
C      1  0.4858320000000  0.4221330000000  0.4972850000000 1.0
C      1  0.5507620000000  0.4294030000000  0.4788010000000 1.0
C      1  0.5418880000000  0.4542660000000  0.5800250000000 1.0
C      1  0.4713880000000  0.5291060000000  0.4618100000000 1.0
C      1  0.4725010000000  0.4893620000000  0.5363570000000 1.0
C      1  0.5160200000000  0.4457040000000  0.5717510000000 1.0
C      1  0.4610250000000  0.5163190000000  0.5447360000000 1.0
C      1  0.5424430000000  0.4656740000000  0.5319660000000 1.0
C      1  0.5712430000000  0.4491850000000  0.4837480000000 1.0
C      1  0.4980950000000  0.5762140000000  0.5362750000000 1.0
C      1  0.5116670000000  0.4457660000000  0.4640330000000 1.0
C      1  0.4677590000000  0.4255230000000  0.5191860000000 1.0
C      1  0.4996960000000  0.4820450000000  0.5325960000000 1.0
C      1  0.5565540000000  0.5632390000000  0.5415810000000 1.0
C      1  0.5630600000000  0.5182340000000  0.5705260000000 1.0
C      1  0.5460880000000  0.4670620000000  0.4308940000000 1.0
C      1  0.4706630000000  0.5718950000000  0.5271680000000 1.0
C      1  0.4437510000000  0.4862690000000  0.5731350000000 1.0
C      1  0.5079310000000  0.4480960000000  0.4195700000000 1.0
C      1  0.4390760000000  0.4389700000000  0.4826310000000 1.0
C      1  0.5361530000000  0.5099070000000  0.4125830000000 1.0
C      1  0.5269820000000  0.5323220000000  0.5131220000000 1.0
C      1  0.5128290000000  0.5276940000000  0.4126430000000 1.0
C      1  0.4643490000000  0.5783000000000  0.4949080000000 1.0
C      1  0.4810380000000  0.5084220000000  0.4942270000000 1.0
C      1  0.4283160000000  0.4638010000000  0.4729360000000 1.0
C      1  0.4768960000000  0.4726720000000  0.4620820000000 1.0
C      1  0.4102540000000  0.4804270000000  0.4856940000000 1.0
C      1  0.5401010000000  0.5061110000000  0.5235580000000 1.0
C      1  0.4472880000000  0.5621180000000  0.5445240000000 1.0
C      1  0.4820640000000  0.4290740000000  0.5436400000000 1.0
C      1  0.5093020000000  0.5548850000000  0.5551600000000 1.0
C      1  0.4144580000000  0.5202990000000  0.5426380000000 1.0
C      1  0.5642130000000  0.4926360000000  0.5812330000000 1.0
C      1  0.4566560000000  0.4259370000000  0.4631970000000 1.0
C      1  0.5733770000000  0.4789020000000  0.4704930000000 1.0
C      1  0.5082370000000  0.4416350000000  0.4939350000000 1.0
C      1  0.5891230000000  0.4947640000000  0.4897600000000 1.0
C      1  0.5693620000000  0.5158490000000  0.5414280000000 1.0
C      1  0.5433350000000  0.5355520000000  0.5798790000000 1.0
C      1  0.5768760000000  0.5463850000000  0.5025280000000 1.0
C      1  0.4105120000000  0.4783990000000  0.5146400000000 1.0
C      1  0.5080980000000  0.5317340000000  0.5340670000000 1.0
C      1  0.5182410000000  0.5841370000000  0.5167690000000 1.0
C      1  0.4522910000000  0.5301310000000  0.5180880000000 1.0
C      1  0.4669260000000  0.4980980000000  0.5858990000000 1.0
C      1  0.5330100000000  0.5636620000000  0.4755860000000 1.0
C      1  0.4266260000000  0.5446540000000  0.5280090000000 1.0
C      1  0.5328900000000  0.4262090000000  0.5008380000000 1.0
C      1  0.5164910000000  0.4959580000000  0.5958060000000 1.0
C      1  0.5457770000000  0.5770710000000  0.5194890000000 1.0
C      1  0.4903230000000  0.4831010000000  0.5921370000000 1.0
C      1  0.5816730000000  0.5348670000000  0.4607670000000 1.0
C      1  0.5176680000000  0.4619880000000  0.5453560000000 1.0
C      1  0.5856420000000  0.4905630000000  0.5398730000000 1.0
C      1  0.4696600000000  0.4458240000000  0.5642730000000 1.0
C      1  0.5150450000000  0.5515510000000  0.4288300000000 1.0
C      1  0.4594720000000  0.4844970000000  0.4127940000000 1.0
C      1  0.4485430000000  0.5102380000000  0.4685630000000 1.0
C      1  0.4712240000000  0.5276130000000  0.5746570000000 1.0
C      1  0.5188020000000  0.5244880000000  0.5907760000000 1.0
C      1  0.4536230000000  0.4821090000000  0.5159020000000 1.0
C      1  0.4579280000000  0.5135560000000  0.4166120000000 1.0
C      1  0.5647160000000  0.4512140000000  0.5621040000000 1.0
C      1  0.4342990000000  0.4622100000000  0.5269550000000 1.0
C      1  0.5447980000000  0.4859110000000  0.4787450000000 1.0
C      1  0.4870740000000  0.5154850000000  0.4068650000000 1.0
C      1  0.4923220000000  0.4861340000000  0.4813120000000 1.0
C      1  0.4456160000000  0.4610090000000  0.5584540000000 1.0
C      1  0.5791150000000  0.4755390000000  0.5632280000000 1.0
C      1  0.4539480000000  0.5764510000000  0.4507360000000 1.0
C      1  0.4229830000000  0.5528560000000  0.4774950000000 1.0
C      1  0.4705170000000  0.5502020000000  0.5058670000000 1.0
C      1  0.4891280000000  0.4509880000000  0.4439910000000 1.0
C      1  0.4431000000000  0.4382150000000  0.5113680000000 1.0
C      1  0.3983850000000  0.5212910000000  0.4995240000000 1.0
C      1  0.4411050000000  0.5314060000000  0.4309240000000 1.0
C      1  0.5794940000000  0.4523050000000  0.5110130000000 1.0
C      1  0.5292150000000  0.5120020000000  0.4712730000000 1.0
C      1  0.4615510000000  0.4401980000000  0.4392560000000 1.0
C      1  0.5279530000000  0.4712140000000  0.4577510000000 1.0
C      1  0.5310360000000  0.4247120000000  0.4547470000000 1.0
C      1  0.4623060000000  0.5506590000000  0.4393640000000 1.0
C      1  0.4420670000000  0.5743830000000  0.4758690000000 1.0
C      1  0.4878160000000  0.5349870000000  0.4854200000000 1.0
C      1  0.4813360000000  0.4109240000000  0.4716880000000 1.0
C      1  0.4818430000000  0.5847370000000  0.4517810000000 1.0
C      1  0.5072950000000  0.4719850000000  0.5035240000000 1.0
END
