TITL C-61688-9571-6 0.0781219803408644 125000 -643.30069643352 0 0 92 (C1) n - 1
REM
REM in /rds/project/t2_vol4/rds-t2-cs072/BORA/CARBON/from-Arr/AIRSS/Generating-Clusters/GAP-ML-2020/Only-C1/SD-CG/HFTN-CG
REM
REM
REM
REM
REM
REM ./C.cell (11c1c37f851c82e70ff6c80c92926a4b)
REM AIRSS Version 0.9.1 bugfix July 2018 build 013d7b7c2542+ Fri, 06 Jul 2018 19:26:36 +0100
REM compiler GCC version 9.3.0
REM options -cpp -mtune=generic -march=x86-64 -g -O0
REM seed -541872438 1450741593 715250527 -1304741066 -1452438007 1037049835 1102951237 872570913 1256475685 1306568905 -1654109157 -858114529 -1236664514 -32771189 -1429491390 -1341551378 1899272790 1430583036 -1092917086 -1929781961 -1451434627 410344858 -118727430 -1056543109 994971507 1043684254 66210746 -1322248739 -458124769 -1782089885 -1626371392 -1723593423 -2050722533
REM
CELL 1.54180   50.00000   50.00000   50.00000   90.00000   90.00000   90.00000
LATT -1
SFAC C  
C      1  0.4809420000000  0.4267510000000  0.5213670000000 1.0
C      1  0.5078520000000  0.5739280000000  0.4936160000000 1.0
C      1  0.4220210000000  0.5433110000000  0.5080360000000 1.0
C      1  0.5165350000000  0.4207790000000  0.4825680000000 1.0
C      1  0.5477380000000  0.5329400000000  0.5475860000000 1.0
C      1  0.4392080000000  0.5199590000000  0.4584730000000 1.0
C      1  0.4750560000000  0.4993640000000  0.4353820000000 1.0
C      1  0.5729400000000  0.4678150000000  0.4911770000000 1.0
C      1  0.4675440000000  0.4477140000000  0.4519260000000 1.0
C      1  0.5359990000000  0.4658120000000  0.4293390000000 1.0
C      1  0.5598600000000  0.4628760000000  0.4456610000000 1.0
C      1  0.5408980000000  0.5436000000000  0.4776430000000 1.0
C      1  0.4500660000000  0.4699330000000  0.4498640000000 1.0
C      1  0.4476700000000  0.5768070000000  0.4835940000000 1.0
C      1  0.4223160000000  0.4776840000000  0.4465720000000 1.0
C      1  0.4680190000000  0.4948840000000  0.5134750000000 1.0
C      1  0.4670980000000  0.5574210000000  0.5215240000000 1.0
C      1  0.4957970000000  0.5214560000000  0.4935470000000 1.0
C      1  0.4620130000000  0.4942000000000  0.4616590000000 1.0
C      1  0.5533500000000  0.5652620000000  0.5143870000000 1.0
C      1  0.5319370000000  0.4399510000000  0.5232790000000 1.0
C      1  0.5844190000000  0.5083300000000  0.5635340000000 1.0
C      1  0.4822240000000  0.4758660000000  0.5711720000000 1.0
C      1  0.4698300000000  0.5218730000000  0.5596150000000 1.0
C      1  0.5552280000000  0.4381760000000  0.4594330000000 1.0
C      1  0.5259430000000  0.4844070000000  0.5375770000000 1.0
C      1  0.5288890000000  0.4953320000000  0.4827000000000 1.0
C      1  0.4968330000000  0.5682770000000  0.4674200000000 1.0
C      1  0.4933970000000  0.4323430000000  0.5476080000000 1.0
C      1  0.4684020000000  0.5589300000000  0.4712870000000 1.0
C      1  0.5412860000000  0.5502420000000  0.4501190000000 1.0
C      1  0.5928390000000  0.5411620000000  0.5265170000000 1.0
C      1  0.5170980000000  0.4444050000000  0.4365770000000 1.0
C      1  0.4545560000000  0.5404720000000  0.5437160000000 1.0
C      1  0.4550240000000  0.4383480000000  0.5226690000000 1.0
C      1  0.4597310000000  0.5396170000000  0.4504880000000 1.0
C      1  0.5395910000000  0.4263530000000  0.5001310000000 1.0
C      1  0.4132040000000  0.4759290000000  0.4731030000000 1.0
C      1  0.4507950000000  0.5184690000000  0.5048660000000 1.0
C      1  0.5207660000000  0.4890370000000  0.4216960000000 1.0
C      1  0.4234320000000  0.4608940000000  0.4958850000000 1.0
C      1  0.4223030000000  0.5052720000000  0.4393540000000 1.0
C      1  0.5657020000000  0.4818610000000  0.5142490000000 1.0
C      1  0.4506940000000  0.4538210000000  0.5468560000000 1.0
C      1  0.5019000000000  0.5572110000000  0.5650000000000 1.0
C      1  0.5623160000000  0.4403140000000  0.4863090000000 1.0
C      1  0.5638240000000  0.5262940000000  0.4867200000000 1.0
C      1  0.4888870000000  0.4233190000000  0.4931180000000 1.0
C      1  0.5164510000000  0.4668130000000  0.5166050000000 1.0
C      1  0.4249920000000  0.4976430000000  0.5359620000000 1.0
C      1  0.5399240000000  0.5603620000000  0.5386980000000 1.0
C      1  0.5273340000000  0.5165710000000  0.4258040000000 1.0
C      1  0.4394280000000  0.5656620000000  0.5068720000000 1.0
C      1  0.4408670000000  0.4816060000000  0.5529770000000 1.0
C      1  0.4336790000000  0.5265180000000  0.5293340000000 1.0
C      1  0.4448450000000  0.4422960000000  0.4966480000000 1.0
C      1  0.5353860000000  0.5675200000000  0.4932060000000 1.0
C      1  0.5720430000000  0.4824640000000  0.4641360000000 1.0
C      1  0.5504020000000  0.5042450000000  0.5041340000000 1.0
C      1  0.5409560000000  0.5165700000000  0.5716510000000 1.0
C      1  0.5053610000000  0.5358100000000  0.4298270000000 1.0
C      1  0.4708490000000  0.5392000000000  0.4972580000000 1.0
C      1  0.4867560000000  0.5062520000000  0.5362930000000 1.0
C      1  0.5139060000000  0.5123540000000  0.5751480000000 1.0
C      1  0.5177040000000  0.5208660000000  0.4758470000000 1.0
C      1  0.5332120000000  0.5126260000000  0.5268270000000 1.0
C      1  0.4751930000000  0.4504310000000  0.5608630000000 1.0
C      1  0.4660830000000  0.4340520000000  0.4778090000000 1.0
C      1  0.4821020000000  0.4922420000000  0.4888720000000 1.0
C      1  0.5452350000000  0.4466640000000  0.5496570000000 1.0
C      1  0.5215280000000  0.4334960000000  0.5506920000000 1.0
C      1  0.4786640000000  0.5273060000000  0.4333860000000 1.0
C      1  0.4597130000000  0.4945450000000  0.5692680000000 1.0
C      1  0.5121190000000  0.5679950000000  0.5419540000000 1.0
C      1  0.5609040000000  0.4944800000000  0.5659780000000 1.0
C      1  0.5279310000000  0.4276120000000  0.4566630000000 1.0
C      1  0.4940490000000  0.5719020000000  0.5191330000000 1.0
C      1  0.5064220000000  0.5209500000000  0.5207010000000 1.0
C      1  0.5508140000000  0.5247160000000  0.4401530000000 1.0
C      1  0.5040190000000  0.4907240000000  0.5580730000000 1.0
C      1  0.5535770000000  0.4745310000000  0.5454070000000 1.0
C      1  0.4162300000000  0.4833540000000  0.5135580000000 1.0
C      1  0.5683670000000  0.5111710000000  0.4604290000000 1.0
C      1  0.5786310000000  0.5303050000000  0.5474880000000 1.0
C      1  0.4941610000000  0.5329400000000  0.5731290000000 1.0
C      1  0.4906130000000  0.4541280000000  0.4360760000000 1.0
C      1  0.4086490000000  0.4985090000000  0.4899490000000 1.0
C      1  0.4257090000000  0.5214110000000  0.4860830000000 1.0
C      1  0.5085410000000  0.4770420000000  0.4907590000000 1.0
C      1  0.5133700000000  0.5578810000000  0.4458220000000 1.0
C      1  0.5757430000000  0.5462260000000  0.5063010000000 1.0
C      1  0.4935690000000  0.4810100000000  0.4261720000000 1.0
END
