TITL C-61666-537-1 -0.0249717813993863 125000 -416.744234763392 0 0 61 (C1) n - 1
REM
REM in /rds/project/t2_vol4/rds-t2-cs072/BORA/CARBON/from-Arr/AIRSS/Generating-Clusters/GAP-ML-2020/Only-C1/SD-CG/HFTN-CG
REM
REM
REM
REM
REM
REM ./C.cell (11c1c37f851c82e70ff6c80c92926a4b)
REM AIRSS Version 0.9.1 bugfix July 2018 build 013d7b7c2542+ Fri, 06 Jul 2018 19:26:36 +0100
REM compiler GCC version 9.3.0
REM options -cpp -mtune=generic -march=x86-64 -g -O0
REM seed -811538727 187264158 1883011609 -1568438895 1975901894 -1326847217 1283544796 1902946057 791636704 1302209430 -1653100845 -2029843153 257939962 -1330341827 -1041664331 1526569917 129933436 -612313941 2002065433 -1181287578 -164065122 -2099620938 741399454 -1210065266 1046950139 -596114883 310234570 -1741051247 499380574 999818096 584430421 -1412780360 -1239393073
REM
CELL 1.54180   50.00000   50.00000   50.00000   90.00000   90.00000   90.00000
LATT -1
SFAC C  
C      1  0.4605630000000  0.5362960000000  0.5368440000000 1.0
C      1  0.5425760000000  0.5004440000000  0.4777700000000 1.0
C      1  0.4705770000000  0.4359610000000  0.4793550000000 1.0
C      1  0.5544040000000  0.5360650000000  0.5145010000000 1.0
C      1  0.5062840000000  0.5865690000000  0.4865570000000 1.0
C      1  0.4375430000000  0.4593780000000  0.5034790000000 1.0
C      1  0.4607370000000  0.5472850000000  0.4917190000000 1.0
C      1  0.5163560000000  0.5414750000000  0.5441130000000 1.0
C      1  0.4735950000000  0.5222050000000  0.5580570000000 1.0
C      1  0.5065050000000  0.4781550000000  0.5745520000000 1.0
C      1  0.4894340000000  0.4756940000000  0.4259760000000 1.0
C      1  0.4423250000000  0.5188170000000  0.5228400000000 1.0
C      1  0.4419570000000  0.4732180000000  0.4781250000000 1.0
C      1  0.4997110000000  0.4338210000000  0.4817040000000 1.0
C      1  0.5390630000000  0.4555150000000  0.5426250000000 1.0
C      1  0.4733230000000  0.5523800000000  0.5181910000000 1.0
C      1  0.4746610000000  0.5252240000000  0.4359990000000 1.0
C      1  0.5160330000000  0.4545040000000  0.5593620000000 1.0
C      1  0.4582050000000  0.4544520000000  0.4609110000000 1.0
C      1  0.4700480000000  0.4589700000000  0.4367910000000 1.0
C      1  0.4953120000000  0.4940840000000  0.4673040000000 1.0
C      1  0.5164180000000  0.5406240000000  0.4544730000000 1.0
C      1  0.4993330000000  0.5004410000000  0.5130710000000 1.0
C      1  0.5401670000000  0.5547060000000  0.4524020000000 1.0
C      1  0.5422890000000  0.4364520000000  0.4616250000000 1.0
C      1  0.4880770000000  0.4499960000000  0.5505240000000 1.0
C      1  0.5180200000000  0.5026710000000  0.5689630000000 1.0
C      1  0.4884720000000  0.5465500000000  0.4476370000000 1.0
C      1  0.4596190000000  0.4399490000000  0.5057610000000 1.0
C      1  0.5584910000000  0.4785450000000  0.5467880000000 1.0
C      1  0.4731570000000  0.5609370000000  0.4689170000000 1.0
C      1  0.5017740000000  0.5255840000000  0.5619850000000 1.0
C      1  0.5387470000000  0.4811310000000  0.4533110000000 1.0
C      1  0.4826020000000  0.4438910000000  0.5235930000000 1.0
C      1  0.5219170000000  0.4225500000000  0.4700550000000 1.0
C      1  0.5698230000000  0.4833880000000  0.5222390000000 1.0
C      1  0.4835280000000  0.5875190000000  0.4745480000000 1.0
C      1  0.5397950000000  0.5016080000000  0.5492100000000 1.0
C      1  0.5203750000000  0.5709500000000  0.5050130000000 1.0
C      1  0.5471430000000  0.5615400000000  0.5008870000000 1.0
C      1  0.5549620000000  0.5509180000000  0.4749710000000 1.0
C      1  0.4625560000000  0.4953570000000  0.5581150000000 1.0
C      1  0.5594270000000  0.5246700000000  0.4875330000000 1.0
C      1  0.5038390000000  0.4532090000000  0.5034950000000 1.0
C      1  0.4279830000000  0.4721800000000  0.5257090000000 1.0
C      1  0.5474710000000  0.4842720000000  0.5036190000000 1.0
C      1  0.4414920000000  0.4936810000000  0.5369870000000 1.0
C      1  0.4681580000000  0.5046530000000  0.4566130000000 1.0
C      1  0.5300440000000  0.4613730000000  0.5154590000000 1.0
C      1  0.4919380000000  0.4805540000000  0.4943200000000 1.0
C      1  0.4442470000000  0.5227430000000  0.4940510000000 1.0
C      1  0.5101020000000  0.4812260000000  0.4461010000000 1.0
C      1  0.4722390000000  0.5001230000000  0.4262270000000 1.0
C      1  0.5428080000000  0.5294290000000  0.5391370000000 1.0
C      1  0.5146960000000  0.5173630000000  0.4744550000000 1.0
C      1  0.5536000000000  0.4575730000000  0.4516140000000 1.0
C      1  0.5034830000000  0.5506440000000  0.5188870000000 1.0
C      1  0.5038740000000  0.5251850000000  0.5006420000000 1.0
C      1  0.5241870000000  0.4903560000000  0.5233680000000 1.0
C      1  0.4449680000000  0.5013190000000  0.4747070000000 1.0
C      1  0.4789620000000  0.4736280000000  0.5662140000000 1.0
END
