TITL C-61659-9579-7 -0.563927154354563 125000 -894.79347740882 0 0 130 (C1) n - 1
REM
REM in /rds/project/t2_vol4/rds-t2-cs072/BORA/CARBON/from-Arr/AIRSS/Generating-Clusters/GAP-ML-2020/Only-C1/SD-CG/HFTN-CG
REM
REM
REM
REM
REM
REM ./C.cell (11c1c37f851c82e70ff6c80c92926a4b)
REM AIRSS Version 0.9.1 bugfix July 2018 build 013d7b7c2542+ Fri, 06 Jul 2018 19:26:36 +0100
REM compiler GCC version 9.3.0
REM options -cpp -mtune=generic -march=x86-64 -g -O0
REM seed -1077137563 -1732229381 -188467011 -2119705806 -701589340 641668315 878090755 -1542741914 -1388767278 -1153985401 -1325464333 1305651595 539583110 1018560443 -1752435351 -673874611 -1333756622 994138710 -1682282873 1529570279 1326367232 -64374680 1204993899 -1485731027 558245494 1340336744 1156104886 -2073224869 1995083383 1556970484 1577935790 1752428183 -1045572318
REM
CELL 1.54180   50.00000   50.00000   50.00000   90.00000   90.00000   90.00000
LATT -1
SFAC C  
C      1  0.5384030000000  0.5802460000000  0.4893780000000 1.0
C      1  0.5612970000000  0.4361610000000  0.5374010000000 1.0
C      1  0.5079660000000  0.5594900000000  0.5672470000000 1.0
C      1  0.4262220000000  0.5474590000000  0.5645210000000 1.0
C      1  0.5426550000000  0.4983240000000  0.5860540000000 1.0
C      1  0.4710790000000  0.5486240000000  0.5326360000000 1.0
C      1  0.4864640000000  0.5676490000000  0.4908290000000 1.0
C      1  0.5073820000000  0.5193220000000  0.5139930000000 1.0
C      1  0.4788410000000  0.5107780000000  0.4065350000000 1.0
C      1  0.5044560000000  0.4397110000000  0.4108870000000 1.0
C      1  0.5512300000000  0.5275820000000  0.4323880000000 1.0
C      1  0.5456550000000  0.5570020000000  0.5339290000000 1.0
C      1  0.5529250000000  0.4914140000000  0.4624810000000 1.0
C      1  0.5100370000000  0.4702770000000  0.4919890000000 1.0
C      1  0.5835610000000  0.4821950000000  0.4627120000000 1.0
C      1  0.5459990000000  0.4762200000000  0.5666840000000 1.0
C      1  0.4150950000000  0.4938220000000  0.5269680000000 1.0
C      1  0.4812890000000  0.4843640000000  0.5514470000000 1.0
C      1  0.5523100000000  0.5563750000000  0.5002850000000 1.0
C      1  0.5809340000000  0.4566940000000  0.5397670000000 1.0
C      1  0.5457580000000  0.4280040000000  0.4862490000000 1.0
C      1  0.4967900000000  0.5337210000000  0.4142330000000 1.0
C      1  0.4614560000000  0.5821000000000  0.4851880000000 1.0
C      1  0.4599290000000  0.4272030000000  0.4612160000000 1.0
C      1  0.4427920000000  0.5250060000000  0.5603030000000 1.0
C      1  0.4956500000000  0.5084590000000  0.4701320000000 1.0
C      1  0.5032550000000  0.4869310000000  0.4515390000000 1.0
C      1  0.5209580000000  0.4309540000000  0.4306680000000 1.0
C      1  0.5733130000000  0.5265230000000  0.5615240000000 1.0
C      1  0.4962000000000  0.4875070000000  0.4060310000000 1.0
C      1  0.5154420000000  0.5148420000000  0.5419940000000 1.0
C      1  0.6026210000000  0.5082920000000  0.5006740000000 1.0
C      1  0.5437800000000  0.4773660000000  0.4335280000000 1.0
C      1  0.5508810000000  0.4275040000000  0.5618030000000 1.0
C      1  0.5178240000000  0.4932610000000  0.4272210000000 1.0
C      1  0.4566100000000  0.4353060000000  0.5458420000000 1.0
C      1  0.4422090000000  0.5770090000000  0.5055250000000 1.0
C      1  0.5817430000000  0.4546990000000  0.4615740000000 1.0
C      1  0.5501990000000  0.4742490000000  0.5136320000000 1.0
C      1  0.5039980000000  0.4426040000000  0.5565410000000 1.0
C      1  0.4314250000000  0.4611860000000  0.4437860000000 1.0
C      1  0.4320250000000  0.4423350000000  0.5300890000000 1.0
C      1  0.4795120000000  0.5706650000000  0.4434640000000 1.0
C      1  0.5226430000000  0.5925180000000  0.5093340000000 1.0
C      1  0.4151370000000  0.4865500000000  0.4505020000000 1.0
C      1  0.4713560000000  0.5333610000000  0.5579010000000 1.0
C      1  0.5215990000000  0.5240310000000  0.4306580000000 1.0
C      1  0.4945310000000  0.5902090000000  0.5085980000000 1.0
C      1  0.4613440000000  0.5244850000000  0.4946880000000 1.0
C      1  0.5053210000000  0.5811710000000  0.5506110000000 1.0
C      1  0.4090600000000  0.5591960000000  0.5455640000000 1.0
C      1  0.5922260000000  0.5050730000000  0.4444230000000 1.0
C      1  0.4830500000000  0.5404980000000  0.5075810000000 1.0
C      1  0.4652070000000  0.4954620000000  0.5047810000000 1.0
C      1  0.4402460000000  0.4554810000000  0.4162180000000 1.0
C      1  0.4841830000000  0.5502240000000  0.5797810000000 1.0
C      1  0.4599990000000  0.4915690000000  0.5336960000000 1.0
C      1  0.4707730000000  0.4080730000000  0.4785440000000 1.0
C      1  0.5437510000000  0.4434120000000  0.5130350000000 1.0
C      1  0.4285140000000  0.5062510000000  0.4333150000000 1.0
C      1  0.5814960000000  0.4750410000000  0.5153820000000 1.0
C      1  0.4997970000000  0.4277960000000  0.5308230000000 1.0
C      1  0.4323080000000  0.4366310000000  0.4604330000000 1.0
C      1  0.4948280000000  0.5085000000000  0.5917570000000 1.0
C      1  0.4493550000000  0.5111690000000  0.4159530000000 1.0
C      1  0.4767880000000  0.4501920000000  0.4596720000000 1.0
C      1  0.5574140000000  0.5221660000000  0.4608170000000 1.0
C      1  0.4844070000000  0.4799750000000  0.5996670000000 1.0
C      1  0.5068880000000  0.4744560000000  0.6153680000000 1.0
C      1  0.5005620000000  0.5632290000000  0.4640030000000 1.0
C      1  0.5262420000000  0.5754150000000  0.4661710000000 1.0
C      1  0.5257800000000  0.4107370000000  0.4766140000000 1.0
C      1  0.5386720000000  0.5345250000000  0.4803920000000 1.0
C      1  0.4362600000000  0.5030450000000  0.5445370000000 1.0
C      1  0.5876050000000  0.5266870000000  0.4614240000000 1.0
C      1  0.4595980000000  0.4729180000000  0.4623320000000 1.0
C      1  0.5945980000000  0.4827410000000  0.4897950000000 1.0
C      1  0.4588880000000  0.4536550000000  0.3994860000000 1.0
C      1  0.4230000000000  0.5598990000000  0.4929170000000 1.0
C      1  0.5313140000000  0.4859110000000  0.5390850000000 1.0
C      1  0.5128010000000  0.4495570000000  0.5149050000000 1.0
C      1  0.5857040000000  0.5020000000000  0.5536010000000 1.0
C      1  0.5067490000000  0.4685080000000  0.5391990000000 1.0
C      1  0.4910280000000  0.5102070000000  0.5605270000000 1.0
C      1  0.5723280000000  0.5094680000000  0.4227990000000 1.0
C      1  0.4153460000000  0.4654090000000  0.5218310000000 1.0
C      1  0.5320040000000  0.4466240000000  0.5682390000000 1.0
C      1  0.5750770000000  0.4760710000000  0.5603560000000 1.0
C      1  0.5638160000000  0.4863500000000  0.4136670000000 1.0
C      1  0.4534330000000  0.5179410000000  0.4462250000000 1.0
C      1  0.5488520000000  0.5240620000000  0.5741470000000 1.0
C      1  0.5588010000000  0.4402880000000  0.4626160000000 1.0
C      1  0.4585280000000  0.4123740000000  0.5044080000000 1.0
C      1  0.4470030000000  0.5319470000000  0.4699890000000 1.0
C      1  0.3922410000000  0.5495610000000  0.5268320000000 1.0
C      1  0.4531450000000  0.4744560000000  0.4903840000000 1.0
C      1  0.4554510000000  0.5737280000000  0.5324040000000 1.0
C      1  0.4732250000000  0.4975650000000  0.4542750000000 1.0
C      1  0.4744580000000  0.4435520000000  0.5668700000000 1.0
C      1  0.5123720000000  0.5337310000000  0.4618600000000 1.0
C      1  0.5973340000000  0.5328480000000  0.4865500000000 1.0
C      1  0.5932550000000  0.5582050000000  0.5272430000000 1.0
C      1  0.5020450000000  0.4611030000000  0.4657640000000 1.0
C      1  0.4332590000000  0.4256290000000  0.5067880000000 1.0
C      1  0.5732700000000  0.5497690000000  0.5439800000000 1.0
C      1  0.5145690000000  0.4113450000000  0.4509620000000 1.0
C      1  0.5831640000000  0.5527920000000  0.5017090000000 1.0
C      1  0.4726750000000  0.4689540000000  0.5770450000000 1.0
C      1  0.4826470000000  0.5870430000000  0.5341910000000 1.0
C      1  0.4948300000000  0.4964850000000  0.4982740000000 1.0
C      1  0.4545410000000  0.5767380000000  0.4582920000000 1.0
C      1  0.4728720000000  0.4205920000000  0.5275580000000 1.0
C      1  0.4065560000000  0.4877630000000  0.4796340000000 1.0
C      1  0.5327650000000  0.5144520000000  0.4994760000000 1.0
C      1  0.4348100000000  0.5577450000000  0.4667300000000 1.0
C      1  0.4863270000000  0.5335410000000  0.6010450000000 1.0
C      1  0.4982780000000  0.4031780000000  0.4718060000000 1.0
C      1  0.4071430000000  0.5077220000000  0.5020190000000 1.0
C      1  0.5942530000000  0.4993970000000  0.5267650000000 1.0
C      1  0.4057960000000  0.5380390000000  0.5045100000000 1.0
C      1  0.5294900000000  0.5392290000000  0.5553160000000 1.0
C      1  0.4339130000000  0.5711410000000  0.5524670000000 1.0
C      1  0.5377120000000  0.4866340000000  0.4900390000000 1.0
C      1  0.4859250000000  0.5585190000000  0.4201830000000 1.0
C      1  0.4077610000000  0.4624080000000  0.4942570000000 1.0
C      1  0.4195250000000  0.4380440000000  0.4848890000000 1.0
C      1  0.5207470000000  0.4959090000000  0.6032930000000 1.0
C      1  0.4876960000000  0.4597670000000  0.4022140000000 1.0
C      1  0.5422800000000  0.4481800000000  0.4405360000000 1.0
C      1  0.5292940000000  0.5817440000000  0.5345860000000 1.0
END
