TITL C-61689-9623-7 18.3109889565319 125000 -241.307692349684 0 0 38 (C1) n - 1
REM
REM in /rds/project/t2_vol4/rds-t2-cs072/BORA/CARBON/from-Arr/AIRSS/Generating-Clusters/GAP-ML-2020/Only-C1/SD-CG/HFTN-CG
REM
REM
REM
REM
REM
REM ./C.cell (11c1c37f851c82e70ff6c80c92926a4b)
REM AIRSS Version 0.9.1 bugfix July 2018 build 013d7b7c2542+ Fri, 06 Jul 2018 19:26:36 +0100
REM compiler GCC version 9.3.0
REM options -cpp -mtune=generic -march=x86-64 -g -O0
REM seed 1457279035 131116530 -414584074 1248612038 72278590 321677755 -1576959637 -1502489757 87053149 529948411 448980892 111831027 -553646133 -1927902623 1780662193 -478626568 -1552571044 -241727952 1766477060 -265605045 -1107974171 -1422457169 265316266 -377468290 1868392658 702890570 882098029 2056659689 894620929 -2045777292 -647062949 -1396673236 -2062966061
REM
CELL 1.54180   50.00000   50.00000   50.00000   90.00000   90.00000   90.00000
LATT -1
SFAC C  
C      1  0.4982070000000  0.4631190000000  0.5404910000000 1.0
C      1  0.5010980000000  0.5187040000000  0.4677140000000 1.0
C      1  0.4600710000000  0.5388780000000  0.4961720000000 1.0
C      1  0.5577440000000  0.5180550000000  0.4594200000000 1.0
C      1  0.5441620000000  0.5237320000000  0.5041140000000 1.0
C      1  0.5505720000000  0.5367270000000  0.4776310000000 1.0
C      1  0.4277510000000  0.4956160000000  0.5278490000000 1.0
C      1  0.5178880000000  0.5339940000000  0.5090880000000 1.0
C      1  0.4544900000000  0.5117110000000  0.4887900000000 1.0
C      1  0.4813370000000  0.4998710000000  0.4823720000000 1.0
C      1  0.4757640000000  0.4637760000000  0.5195060000000 1.0
C      1  0.4852940000000  0.4902840000000  0.5098680000000 1.0
C      1  0.5471920000000  0.4678610000000  0.4612160000000 1.0
C      1  0.4674440000000  0.4974350000000  0.5540250000000 1.0
C      1  0.4766720000000  0.5538970000000  0.5186010000000 1.0
C      1  0.4931750000000  0.4857730000000  0.5574880000000 1.0
C      1  0.4399450000000  0.4938460000000  0.5041360000000 1.0
C      1  0.5316570000000  0.5558960000000  0.4728100000000 1.0
C      1  0.5403460000000  0.4977770000000  0.4517700000000 1.0
C      1  0.5117960000000  0.5090540000000  0.4406900000000 1.0
C      1  0.5280760000000  0.4524000000000  0.4509400000000 1.0
C      1  0.4797770000000  0.5087100000000  0.5308550000000 1.0
C      1  0.5026250000000  0.4642010000000  0.4484030000000 1.0
C      1  0.4443890000000  0.4842150000000  0.5467690000000 1.0
C      1  0.5390840000000  0.4564480000000  0.5105480000000 1.0
C      1  0.5519560000000  0.4704490000000  0.4907130000000 1.0
C      1  0.4982110000000  0.5332960000000  0.5304800000000 1.0
C      1  0.5433670000000  0.4967490000000  0.4981330000000 1.0
C      1  0.5111290000000  0.5056080000000  0.5671300000000 1.0
C      1  0.4989360000000  0.4866160000000  0.4340680000000 1.0
C      1  0.5070540000000  0.5438900000000  0.4824870000000 1.0
C      1  0.4499610000000  0.4604250000000  0.5324050000000 1.0
C      1  0.4487460000000  0.4655980000000  0.5055880000000 1.0
C      1  0.4999230000000  0.4772010000000  0.4736030000000 1.0
C      1  0.5221610000000  0.4555310000000  0.5292610000000 1.0
C      1  0.4804930000000  0.5563500000000  0.4914030000000 1.0
C      1  0.5226850000000  0.4967590000000  0.4757580000000 1.0
C      1  0.5088220000000  0.5295470000000  0.5577040000000 1.0
END
