TITL C-61667-9529-2 0.0437979096510273 125000 -758.845604665789 0 0 109 (C1) n - 1
REM
REM in /rds/project/t2_vol4/rds-t2-cs072/BORA/CARBON/from-Arr/AIRSS/Generating-Clusters/GAP-ML-2020/Only-C1/SD-CG/HFTN-CG
REM
REM
REM
REM
REM
REM ./C.cell (11c1c37f851c82e70ff6c80c92926a4b)
REM AIRSS Version 0.9.1 bugfix July 2018 build 013d7b7c2542+ Fri, 06 Jul 2018 19:26:36 +0100
REM compiler GCC version 9.3.0
REM options -cpp -mtune=generic -march=x86-64 -g -O0
REM seed 1049775298 -1895849917 -1323918982 644856362 1583144726 1642297579 -1593741831 352568243 -2015775348 -536779251 1253165806 505101849 862053626 -543228184 240930309 -518369334 -2032261540 -270717709 1035041461 1690383084 1504530321 1014147036 743639196 -1703604889 -1676881043 -1819492725 -1486345705 -1911538504 -2108547881 1933655923 831044843 -1835922118 -1720083049
REM
CELL 1.54180   50.00000   50.00000   50.00000   90.00000   90.00000   90.00000
LATT -1
SFAC C  
C      1  0.4369450000000  0.4456650000000  0.4681600000000 1.0
C      1  0.4811530000000  0.4269320000000  0.4723740000000 1.0
C      1  0.5055610000000  0.5203130000000  0.4035360000000 1.0
C      1  0.5458220000000  0.4362170000000  0.5474660000000 1.0
C      1  0.5885870000000  0.4740180000000  0.5529450000000 1.0
C      1  0.4899440000000  0.4974530000000  0.4900310000000 1.0
C      1  0.5319920000000  0.5187600000000  0.4877690000000 1.0
C      1  0.5225580000000  0.4496990000000  0.5597120000000 1.0
C      1  0.4937510000000  0.5624400000000  0.5709850000000 1.0
C      1  0.4976870000000  0.5324800000000  0.4590380000000 1.0
C      1  0.4396120000000  0.5180400000000  0.4719530000000 1.0
C      1  0.5133200000000  0.5131610000000  0.4441590000000 1.0
C      1  0.5299770000000  0.5598920000000  0.4310600000000 1.0
C      1  0.4569190000000  0.5875900000000  0.4761380000000 1.0
C      1  0.4429970000000  0.4315170000000  0.5080570000000 1.0
C      1  0.4995780000000  0.4867510000000  0.4431960000000 1.0
C      1  0.4928500000000  0.5441650000000  0.5046080000000 1.0
C      1  0.5077850000000  0.4239590000000  0.4848540000000 1.0
C      1  0.5550980000000  0.4758120000000  0.5693050000000 1.0
C      1  0.5678280000000  0.4534160000000  0.5549490000000 1.0
C      1  0.5301560000000  0.4782310000000  0.5547860000000 1.0
C      1  0.4651910000000  0.5584080000000  0.5650290000000 1.0
C      1  0.5014210000000  0.4766550000000  0.4732840000000 1.0
C      1  0.5390370000000  0.5114570000000  0.4598620000000 1.0
C      1  0.5364330000000  0.5583960000000  0.5430170000000 1.0
C      1  0.5274880000000  0.4378910000000  0.4672310000000 1.0
C      1  0.4579620000000  0.4661310000000  0.4693420000000 1.0
C      1  0.5015920000000  0.5244450000000  0.4858990000000 1.0
C      1  0.4240550000000  0.4835010000000  0.5218740000000 1.0
C      1  0.4497380000000  0.4639710000000  0.5775440000000 1.0
C      1  0.4796140000000  0.5190590000000  0.5844300000000 1.0
C      1  0.4141510000000  0.5440840000000  0.5125260000000 1.0
C      1  0.5939950000000  0.4749140000000  0.5056790000000 1.0
C      1  0.5114700000000  0.5722600000000  0.5500480000000 1.0
C      1  0.4636580000000  0.5295330000000  0.4278280000000 1.0
C      1  0.4566080000000  0.5318220000000  0.5739290000000 1.0
C      1  0.4546950000000  0.5022350000000  0.4244040000000 1.0
C      1  0.4520420000000  0.4944100000000  0.5154530000000 1.0
C      1  0.5142010000000  0.4218190000000  0.5127910000000 1.0
C      1  0.5268720000000  0.4812700000000  0.5233890000000 1.0
C      1  0.4875720000000  0.5391000000000  0.4138740000000 1.0
C      1  0.5576620000000  0.5534370000000  0.4683920000000 1.0
C      1  0.5473560000000  0.5372190000000  0.5601990000000 1.0
C      1  0.4660340000000  0.4579450000000  0.4417240000000 1.0
C      1  0.5132460000000  0.5691090000000  0.5028600000000 1.0
C      1  0.5563750000000  0.5328330000000  0.4484010000000 1.0
C      1  0.4886740000000  0.4929630000000  0.5759080000000 1.0
C      1  0.4761970000000  0.4686400000000  0.5615940000000 1.0
C      1  0.4267630000000  0.4749860000000  0.5735760000000 1.0
C      1  0.5485380000000  0.4846310000000  0.4526290000000 1.0
C      1  0.5765910000000  0.4508580000000  0.4725620000000 1.0
C      1  0.4209390000000  0.4992580000000  0.4559210000000 1.0
C      1  0.4736680000000  0.4824720000000  0.4303990000000 1.0
C      1  0.4251000000000  0.4928500000000  0.5518190000000 1.0
C      1  0.5183540000000  0.4681290000000  0.4286380000000 1.0
C      1  0.5438830000000  0.5002580000000  0.5075500000000 1.0
C      1  0.4149010000000  0.4574070000000  0.4824370000000 1.0
C      1  0.5618210000000  0.4272250000000  0.5022570000000 1.0
C      1  0.5748900000000  0.4777540000000  0.4643400000000 1.0
C      1  0.5537890000000  0.5416180000000  0.4950360000000 1.0
C      1  0.5129370000000  0.4426270000000  0.4406760000000 1.0
C      1  0.4981410000000  0.4900590000000  0.5192070000000 1.0
C      1  0.5398570000000  0.4848530000000  0.4237760000000 1.0
C      1  0.4368800000000  0.5467720000000  0.5285260000000 1.0
C      1  0.5296860000000  0.4681620000000  0.4753030000000 1.0
C      1  0.4534150000000  0.5684780000000  0.5414710000000 1.0
C      1  0.4080420000000  0.4987520000000  0.5005570000000 1.0
C      1  0.4547590000000  0.5220570000000  0.5279220000000 1.0
C      1  0.5020050000000  0.5604490000000  0.4278430000000 1.0
C      1  0.5009660000000  0.5128200000000  0.5361640000000 1.0
C      1  0.4622670000000  0.5941760000000  0.5001480000000 1.0
C      1  0.4829940000000  0.5321930000000  0.5284500000000 1.0
C      1  0.4854290000000  0.4373500000000  0.4448720000000 1.0
C      1  0.4078060000000  0.4840200000000  0.4768060000000 1.0
C      1  0.4633870000000  0.5661270000000  0.4594730000000 1.0
C      1  0.4755780000000  0.4522370000000  0.5133200000000 1.0
C      1  0.4504920000000  0.4249620000000  0.4805630000000 1.0
C      1  0.5706290000000  0.5206860000000  0.5552460000000 1.0
C      1  0.4649560000000  0.4261910000000  0.5236540000000 1.0
C      1  0.4818830000000  0.4549320000000  0.4841630000000 1.0
C      1  0.4589760000000  0.4952730000000  0.4855730000000 1.0
C      1  0.4411180000000  0.5175900000000  0.5539050000000 1.0
C      1  0.5422610000000  0.4722150000000  0.5014060000000 1.0
C      1  0.4956300000000  0.4449100000000  0.5563610000000 1.0
C      1  0.5554660000000  0.4312240000000  0.4743530000000 1.0
C      1  0.4163990000000  0.5250270000000  0.4931380000000 1.0
C      1  0.5135010000000  0.5004690000000  0.5637100000000 1.0
C      1  0.4994270000000  0.5825830000000  0.5269690000000 1.0
C      1  0.5256640000000  0.5250140000000  0.5756110000000 1.0
C      1  0.5391380000000  0.5595800000000  0.5142530000000 1.0
C      1  0.5744450000000  0.4958330000000  0.5691600000000 1.0
C      1  0.5420540000000  0.4230740000000  0.5221280000000 1.0
C      1  0.4279380000000  0.4953420000000  0.4305720000000 1.0
C      1  0.4920740000000  0.5634440000000  0.4549860000000 1.0
C      1  0.5960950000000  0.4880450000000  0.5302560000000 1.0
C      1  0.4227720000000  0.4539650000000  0.5095540000000 1.0
C      1  0.4522780000000  0.5401200000000  0.4525780000000 1.0
C      1  0.5370450000000  0.5696390000000  0.4581500000000 1.0
C      1  0.5137200000000  0.5746040000000  0.4734040000000 1.0
C      1  0.4706560000000  0.5863050000000  0.5254890000000 1.0
C      1  0.4923040000000  0.4310010000000  0.5304440000000 1.0
C      1  0.5298710000000  0.5133740000000  0.4155860000000 1.0
C      1  0.4736700000000  0.4765610000000  0.5287430000000 1.0
C      1  0.5845010000000  0.5147310000000  0.5299370000000 1.0
C      1  0.5845560000000  0.4481020000000  0.4999610000000 1.0
C      1  0.5846140000000  0.4939290000000  0.4865110000000 1.0
C      1  0.5714320000000  0.5166510000000  0.5040950000000 1.0
C      1  0.5457330000000  0.5379010000000  0.4228100000000 1.0
C      1  0.5018600000000  0.5381240000000  0.5834620000000 1.0
END
