TITL C-61671-9594-3 -0.0292291609516376 125000 -135.007053366392 0 0 21 (C1) n - 1
REM
REM in /rds/project/t2_vol4/rds-t2-cs072/BORA/CARBON/from-Arr/AIRSS/Generating-Clusters/GAP-ML-2020/Only-C1/SD-CG/HFTN-CG
REM
REM
REM
REM
REM
REM ./C.cell (11c1c37f851c82e70ff6c80c92926a4b)
REM AIRSS Version 0.9.1 bugfix July 2018 build 013d7b7c2542+ Fri, 06 Jul 2018 19:26:36 +0100
REM compiler GCC version 9.3.0
REM options -cpp -mtune=generic -march=x86-64 -g -O0
REM seed 118998167 -25689230 1257373738 1259834717 -293891426 1060936485 -1349550839 -360623879 -585707372 756654136 1059231185 1277407237 1173036725 -2122252850 -13290524 1675095944 -1230820635 -2073829421 -1677196524 -784014696 -1840011719 55766784 -1334490381 596872857 1542114000 1760267049 -306792847 1706525180 233793909 -559609996 1570257304 -1591328492 305297737
REM
CELL 1.54180   50.00000   50.00000   50.00000   90.00000   90.00000   90.00000
LATT -1
SFAC C  
C      1  0.4969030000000  0.5464260000000  0.4977390000000 1.0
C      1  0.5036420000000  0.4991750000000  0.4309140000000 1.0
C      1  0.5239100000000  0.4862610000000  0.5289800000000 1.0
C      1  0.4977460000000  0.4533080000000  0.5278520000000 1.0
C      1  0.5178460000000  0.5079970000000  0.4861750000000 1.0
C      1  0.5230330000000  0.4605620000000  0.5135650000000 1.0
C      1  0.5014950000000  0.5314050000000  0.5224590000000 1.0
C      1  0.5175530000000  0.4857370000000  0.4467700000000 1.0
C      1  0.4600770000000  0.4775730000000  0.5175200000000 1.0
C      1  0.5209110000000  0.5102310000000  0.5135570000000 1.0
C      1  0.5313780000000  0.5631730000000  0.4733010000000 1.0
C      1  0.4796250000000  0.5200540000000  0.5341410000000 1.0
C      1  0.4717310000000  0.4518460000000  0.5191560000000 1.0
C      1  0.4997830000000  0.4784190000000  0.5435270000000 1.0
C      1  0.5114060000000  0.5674290000000  0.4891180000000 1.0
C      1  0.5310570000000  0.4599790000000  0.4878980000000 1.0
C      1  0.4675470000000  0.5094010000000  0.4827190000000 1.0
C      1  0.5244560000000  0.4831040000000  0.4729900000000 1.0
C      1  0.4754050000000  0.4934540000000  0.5383330000000 1.0
C      1  0.4534650000000  0.4911980000000  0.4933770000000 1.0
C      1  0.4910320000000  0.5232670000000  0.4799100000000 1.0
END
