TITL C-61659-9579-1 0.0668593061058412 125000 -342.746542568884 0 0 51 (C1) n - 1
REM
REM in /rds/project/t2_vol4/rds-t2-cs072/BORA/CARBON/from-Arr/AIRSS/Generating-Clusters/GAP-ML-2020/Only-C1/SD-CG/HFTN-CG
REM
REM
REM
REM
REM
REM ./C.cell (11c1c37f851c82e70ff6c80c92926a4b)
REM AIRSS Version 0.9.1 bugfix July 2018 build 013d7b7c2542+ Fri, 06 Jul 2018 19:26:36 +0100
REM compiler GCC version 9.3.0
REM options -cpp -mtune=generic -march=x86-64 -g -O0
REM seed -62552027 -2135016494 1466201835 -292397697 -992827360 -1090671904 -1541219303 181155792 811691128 3414945 841930263 -1526294735 -488714759 1856932312 -1584039513 -79857908 -2016438793 1675031001 763838211 -870576738 1621009262 -2121252292 -972484895 -657861310 1404486644 -1123389053 1602375789 -1266087472 475420941 -1788933263 1814602154 530625897 -884107159
REM
CELL 1.54180   50.00000   50.00000   50.00000   90.00000   90.00000   90.00000
LATT -1
SFAC C  
C      1  0.4479710000000  0.5003100000000  0.5458790000000 1.0
C      1  0.4919050000000  0.4660530000000  0.4500730000000 1.0
C      1  0.4480350000000  0.5043320000000  0.4998630000000 1.0
C      1  0.4661080000000  0.4793350000000  0.5435400000000 1.0
C      1  0.4768280000000  0.4409610000000  0.5222060000000 1.0
C      1  0.4546460000000  0.5451620000000  0.4796360000000 1.0
C      1  0.5620290000000  0.4566060000000  0.4942740000000 1.0
C      1  0.4933340000000  0.4899660000000  0.5173310000000 1.0
C      1  0.4511160000000  0.5444640000000  0.5212720000000 1.0
C      1  0.5037290000000  0.5400200000000  0.4671800000000 1.0
C      1  0.5009960000000  0.4486690000000  0.5352510000000 1.0
C      1  0.4483110000000  0.5185660000000  0.4745150000000 1.0
C      1  0.4581550000000  0.4643640000000  0.4750010000000 1.0
C      1  0.5158240000000  0.4943430000000  0.4831690000000 1.0
C      1  0.4663590000000  0.4796910000000  0.4523520000000 1.0
C      1  0.5451470000000  0.5451360000000  0.4960660000000 1.0
C      1  0.5224720000000  0.4884060000000  0.5539140000000 1.0
C      1  0.5144910000000  0.4807870000000  0.4430160000000 1.0
C      1  0.4590120000000  0.4620360000000  0.5216140000000 1.0
C      1  0.5495060000000  0.5338590000000  0.5222450000000 1.0
C      1  0.4802460000000  0.5130700000000  0.5049230000000 1.0
C      1  0.5408230000000  0.4866990000000  0.5293260000000 1.0
C      1  0.4963190000000  0.4750440000000  0.5458900000000 1.0
C      1  0.4769280000000  0.4178420000000  0.5073100000000 1.0
C      1  0.5585940000000  0.4792740000000  0.4802020000000 1.0
C      1  0.5446690000000  0.4610090000000  0.5149150000000 1.0
C      1  0.5659590000000  0.5037850000000  0.4931450000000 1.0
C      1  0.4688120000000  0.5064430000000  0.4595080000000 1.0
C      1  0.4402900000000  0.5169900000000  0.5259640000000 1.0
C      1  0.4865150000000  0.4245950000000  0.4842620000000 1.0
C      1  0.5188920000000  0.4521860000000  0.5134370000000 1.0
C      1  0.5227040000000  0.5155040000000  0.5600590000000 1.0
C      1  0.5378700000000  0.4884300000000  0.4611160000000 1.0
C      1  0.5194340000000  0.5536780000000  0.4889150000000 1.0
C      1  0.4413830000000  0.5568420000000  0.4999390000000 1.0
C      1  0.4938950000000  0.5600780000000  0.5003950000000 1.0
C      1  0.4806880000000  0.5417460000000  0.5202740000000 1.0
C      1  0.4798290000000  0.5552110000000  0.4751870000000 1.0
C      1  0.5079190000000  0.5059520000000  0.4336610000000 1.0
C      1  0.4932980000000  0.5126070000000  0.4777340000000 1.0
C      1  0.5191130000000  0.5280390000000  0.4450560000000 1.0
C      1  0.5246640000000  0.5296110000000  0.5341660000000 1.0
C      1  0.4492830000000  0.4754090000000  0.4983840000000 1.0
C      1  0.5022280000000  0.4702490000000  0.4953430000000 1.0
C      1  0.5607890000000  0.5072850000000  0.5206160000000 1.0
C      1  0.5005490000000  0.5450140000000  0.5415720000000 1.0
C      1  0.5566290000000  0.5260720000000  0.4781910000000 1.0
C      1  0.5197100000000  0.5032640000000  0.5131620000000 1.0
C      1  0.5058040000000  0.5362570000000  0.5679810000000 1.0
C      1  0.4866070000000  0.4519560000000  0.4754270000000 1.0
C      1  0.5435830000000  0.5167940000000  0.4555420000000 1.0
END
