TITL C-61676-9527-5 -105.225377958759 125000 -906.287990092747 0 0 128 (C1) n - 1
REM
REM in /rds/project/t2_vol4/rds-t2-cs072/BORA/CARBON/from-Arr/AIRSS/Generating-Clusters/GAP-ML-2020/Only-C1/SD-CG/HFTN-CG
REM
REM
REM
REM
REM
REM ./C.cell (11c1c37f851c82e70ff6c80c92926a4b)
REM AIRSS Version 0.9.1 bugfix July 2018 build 013d7b7c2542+ Fri, 06 Jul 2018 19:26:36 +0100
REM compiler GCC version 9.3.0
REM options -cpp -mtune=generic -march=x86-64 -g -O0
REM seed 224563225 1062608811 -932860269 -527960737 46987055 222660614 -1500823439 -987596519 1147783143 1449838723 -1479396595 1919959570 -532235655 -1858468724 989953886 579529698 215977599 -1059477292 -976528424 1300867799 -1470811337 -683729828 1340401951 -26890641 -2099474202 -154931671 594274909 1628447470 647965903 -544469876 304687754 -1319607030 -1049248439
REM
CELL 1.54180   50.00000   50.00000   50.00000   90.00000   90.00000   90.00000
LATT -1
SFAC C  
C      1  0.4696390000000  0.5642870000000  0.4397730000000 1.0
C      1  0.5289710000000  0.4632010000000  0.4281590000000 1.0
C      1  0.4141130000000  0.5508640000000  0.5199410000000 1.0
C      1  0.5712200000000  0.5424900000000  0.5509550000000 1.0
C      1  0.4908690000000  0.5132790000000  0.5415950000000 1.0
C      1  0.4591940000000  0.4786720000000  0.5371010000000 1.0
C      1  0.4498570000000  0.4406340000000  0.4844140000000 1.0
C      1  0.4447480000000  0.5548350000000  0.4518490000000 1.0
C      1  0.5118480000000  0.5842380000000  0.4931620000000 1.0
C      1  0.4213380000000  0.4506360000000  0.4887930000000 1.0
C      1  0.5217520000000  0.4938950000000  0.5893390000000 1.0
C      1  0.5424700000000  0.4189700000000  0.4893570000000 1.0
C      1  0.4875370000000  0.4335350000000  0.5644850000000 1.0
C      1  0.4385620000000  0.4870410000000  0.5640100000000 1.0
C      1  0.4617600000000  0.4222470000000  0.4627860000000 1.0
C      1  0.5291730000000  0.4877400000000  0.5139600000000 1.0
C      1  0.5630220000000  0.4265650000000  0.4298290000000 1.0
C      1  0.4935330000000  0.4276990000000  0.4282190000000 1.0
C      1  0.4562640000000  0.4685980000000  0.5803050000000 1.0
C      1  0.5325960000000  0.5089870000000  0.4109630000000 1.0
C      1  0.5598380000000  0.4588700000000  0.5431840000000 1.0
C      1  0.4781550000000  0.4137630000000  0.5186630000000 1.0
C      1  0.4631350000000  0.5073240000000  0.4381570000000 1.0
C      1  0.4813790000000  0.5219890000000  0.4585120000000 1.0
C      1  0.4034110000000  0.4988970000000  0.4984560000000 1.0
C      1  0.5223170000000  0.4103550000000  0.5074100000000 1.0
C      1  0.5288850000000  0.5879060000000  0.5166600000000 1.0
C      1  0.4584990000000  0.4582230000000  0.4258100000000 1.0
C      1  0.4766050000000  0.4819480000000  0.4921670000000 1.0
C      1  0.4597820000000  0.5174400000000  0.5059980000000 1.0
C      1  0.4620740000000  0.5551720000000  0.5733780000000 1.0
C      1  0.4553610000000  0.4901340000000  0.5117530000000 1.0
C      1  0.5634970000000  0.4361460000000  0.4977320000000 1.0
C      1  0.5890760000000  0.4900470000000  0.4588050000000 1.0
C      1  0.5733770000000  0.5747490000000  0.5208550000000 1.0
C      1  0.4567150000000  0.5766830000000  0.4943860000000 1.0
C      1  0.5321440000000  0.5764630000000  0.5441380000000 1.0
C      1  0.4193820000000  0.5145650000000  0.4576160000000 1.0
C      1  0.5133280000000  0.4806290000000  0.4486020000000 1.0
C      1  0.5127470000000  0.4549590000000  0.4786260000000 1.0
C      1  0.5601490000000  0.5679230000000  0.5446170000000 1.0
C      1  0.5474160000000  0.4859460000000  0.4200600000000 1.0
C      1  0.4824100000000  0.5116950000000  0.5945010000000 1.0
C      1  0.4615650000000  0.4444780000000  0.5651500000000 1.0
C      1  0.4939320000000  0.4175740000000  0.5422250000000 1.0
C      1  0.4846990000000  0.5707280000000  0.5618580000000 1.0
C      1  0.5058740000000  0.5259800000000  0.4971130000000 1.0
C      1  0.5136320000000  0.5657960000000  0.5636640000000 1.0
C      1  0.5273050000000  0.4806740000000  0.4733610000000 1.0
C      1  0.5690920000000  0.5252670000000  0.4360680000000 1.0
C      1  0.4370360000000  0.5572210000000  0.5598750000000 1.0
C      1  0.4150870000000  0.5486930000000  0.4918420000000 1.0
C      1  0.4117480000000  0.4765920000000  0.4814130000000 1.0
C      1  0.5866060000000  0.5131930000000  0.4747850000000 1.0
C      1  0.5820760000000  0.5369420000000  0.4596990000000 1.0
C      1  0.5787430000000  0.5583420000000  0.4783700000000 1.0
C      1  0.5662000000000  0.4588730000000  0.4814390000000 1.0
C      1  0.5916400000000  0.4736480000000  0.5095200000000 1.0
C      1  0.4493100000000  0.4791140000000  0.4466080000000 1.0
C      1  0.5294930000000  0.4479590000000  0.5463440000000 1.0
C      1  0.5101970000000  0.4699890000000  0.5271400000000 1.0
C      1  0.5243330000000  0.5496630000000  0.4283200000000 1.0
C      1  0.4882210000000  0.5548090000000  0.4606540000000 1.0
C      1  0.5556270000000  0.5891040000000  0.5052120000000 1.0
C      1  0.5694830000000  0.4864720000000  0.5482280000000 1.0
C      1  0.5037540000000  0.5146430000000  0.4073350000000 1.0
C      1  0.4986820000000  0.4645110000000  0.5019970000000 1.0
C      1  0.4812670000000  0.4984100000000  0.4147860000000 1.0
C      1  0.5870820000000  0.4213910000000  0.4258860000000 1.0
C      1  0.4755670000000  0.5822980000000  0.5386030000000 1.0
C      1  0.4919060000000  0.5485850000000  0.5096490000000 1.0
C      1  0.5551020000000  0.5312320000000  0.5702850000000 1.0
C      1  0.4074210000000  0.5227270000000  0.4823610000000 1.0
C      1  0.4491010000000  0.4480990000000  0.5374290000000 1.0
C      1  0.5707370000000  0.4962680000000  0.4358280000000 1.0
C      1  0.4400530000000  0.5276850000000  0.4440220000000 1.0
C      1  0.5183360000000  0.5188060000000  0.5475550000000 1.0
C      1  0.5239870000000  0.5387880000000  0.5723210000000 1.0
C      1  0.5480900000000  0.4841810000000  0.4912970000000 1.0
C      1  0.5108720000000  0.4485710000000  0.5717200000000 1.0
C      1  0.5452490000000  0.5320430000000  0.4214420000000 1.0
C      1  0.5051210000000  0.4706660000000  0.5890830000000 1.0
C      1  0.4861190000000  0.4090760000000  0.4706890000000 1.0
C      1  0.4368600000000  0.5634400000000  0.4779820000000 1.0
C      1  0.5751020000000  0.4514430000000  0.5201450000000 1.0
C      1  0.5286590000000  0.4292970000000  0.4643950000000 1.0
C      1  0.4045730000000  0.5009830000000  0.5276530000000 1.0
C      1  0.4655290000000  0.4668250000000  0.4703610000000 1.0
C      1  0.5589830000000  0.5035500000000  0.5679410000000 1.0
C      1  0.4821160000000  0.5117000000000  0.4846970000000 1.0
C      1  0.4661060000000  0.4319060000000  0.4353210000000 1.0
C      1  0.5183070000000  0.5555220000000  0.4566860000000 1.0
C      1  0.4149710000000  0.4808900000000  0.5460260000000 1.0
C      1  0.5325130000000  0.4968510000000  0.5637940000000 1.0
C      1  0.4085240000000  0.5277750000000  0.5364120000000 1.0
C      1  0.4227070000000  0.5325500000000  0.5605290000000 1.0
C      1  0.5295700000000  0.5787630000000  0.4712220000000 1.0
C      1  0.5037010000000  0.4520530000000  0.4149810000000 1.0
C      1  0.4790290000000  0.5584770000000  0.4151830000000 1.0
C      1  0.4803740000000  0.4697640000000  0.4121720000000 1.0
C      1  0.4848480000000  0.5688150000000  0.4885650000000 1.0
C      1  0.5263830000000  0.5323640000000  0.4779120000000 1.0
C      1  0.5455810000000  0.5295770000000  0.5005080000000 1.0
C      1  0.4533130000000  0.5816580000000  0.5224740000000 1.0
C      1  0.5860890000000  0.5310460000000  0.5280550000000 1.0
C      1  0.5660850000000  0.5083960000000  0.4967090000000 1.0
C      1  0.4227210000000  0.4866030000000  0.4575010000000 1.0
C      1  0.5823050000000  0.5001060000000  0.5234770000000 1.0
C      1  0.4312300000000  0.5688700000000  0.5347910000000 1.0
C      1  0.4201550000000  0.4552450000000  0.5353060000000 1.0
C      1  0.5012260000000  0.5427420000000  0.4130220000000 1.0
C      1  0.4091460000000  0.4475600000000  0.5124960000000 1.0
C      1  0.4566370000000  0.4313720000000  0.5138300000000 1.0
C      1  0.5917010000000  0.4707730000000  0.4802510000000 1.0
C      1  0.4871890000000  0.4855210000000  0.5409610000000 1.0
C      1  0.4786700000000  0.4820150000000  0.5923440000000 1.0
C      1  0.4384330000000  0.5139780000000  0.5745440000000 1.0
C      1  0.5207070000000  0.4211310000000  0.5344480000000 1.0
C      1  0.5576990000000  0.5796800000000  0.4788670000000 1.0
C      1  0.4610110000000  0.5282310000000  0.5856340000000 1.0
C      1  0.5420610000000  0.4403290000000  0.4413010000000 1.0
C      1  0.5258460000000  0.5159730000000  0.5186960000000 1.0
C      1  0.5865390000000  0.5532670000000  0.5076320000000 1.0
C      1  0.4920390000000  0.4615670000000  0.4585960000000 1.0
C      1  0.5100000000000  0.5192320000000  0.5922070000000 1.0
C      1  0.5063360000000  0.4151040000000  0.4510350000000 1.0
C      1  0.4744650000000  0.5315910000000  0.5257150000000 1.0
C      1  0.4954660000000  0.4061350000000  0.4973610000000 1.0
END
