TITL C-61679-9636-2 -24.0262962853571 125000 -442.49445553221 0 0 65 (C1) n - 1
REM
REM in /rds/project/t2_vol4/rds-t2-cs072/BORA/CARBON/from-Arr/AIRSS/Generating-Clusters/GAP-ML-2020/Only-C1/SD-CG/HFTN-CG
REM
REM
REM
REM
REM
REM ./C.cell (11c1c37f851c82e70ff6c80c92926a4b)
REM AIRSS Version 0.9.1 bugfix July 2018 build 013d7b7c2542+ Fri, 06 Jul 2018 19:26:36 +0100
REM compiler GCC version 9.3.0
REM options -cpp -mtune=generic -march=x86-64 -g -O0
REM seed -1059444518 678864594 1185970937 735850949 -263774452 2093734279 1755814315 1078259780 1248172319 1772863269 1145784916 1828368200 314728185 -642343203 415394758 -844014916 -976786246 -1122963711 -176532417 1691147639 377048742 737570413 -718979006 1796334842 1393392390 -1408663355 -999524456 1379109340 1328937707 -316016854 -621004235 -632743462 -2092702329
REM
CELL 1.54180   50.00000   50.00000   50.00000   90.00000   90.00000   90.00000
LATT -1
SFAC C  
C      1  0.5482560000000  0.5185930000000  0.4682190000000 1.0
C      1  0.5169890000000  0.5089880000000  0.5189220000000 1.0
C      1  0.4499810000000  0.4670180000000  0.4659590000000 1.0
C      1  0.5268110000000  0.4528950000000  0.4549590000000 1.0
C      1  0.5539010000000  0.5066420000000  0.5449290000000 1.0
C      1  0.5355400000000  0.5494380000000  0.5264880000000 1.0
C      1  0.5046110000000  0.4300490000000  0.5201580000000 1.0
C      1  0.5191950000000  0.5486420000000  0.5499010000000 1.0
C      1  0.5167600000000  0.5251650000000  0.5676500000000 1.0
C      1  0.5331830000000  0.5035830000000  0.5646610000000 1.0
C      1  0.4495240000000  0.4846810000000  0.4895980000000 1.0
C      1  0.4783390000000  0.4963950000000  0.5516090000000 1.0
C      1  0.5320820000000  0.4343150000000  0.5090620000000 1.0
C      1  0.5232800000000  0.4760140000000  0.5631870000000 1.0
C      1  0.4520110000000  0.5478020000000  0.5148980000000 1.0
C      1  0.4775220000000  0.5010140000000  0.5225300000000 1.0
C      1  0.5566290000000  0.4818870000000  0.4986130000000 1.0
C      1  0.4420500000000  0.4661880000000  0.5356480000000 1.0
C      1  0.5006550000000  0.5281270000000  0.4549470000000 1.0
C      1  0.4858190000000  0.5741740000000  0.4540710000000 1.0
C      1  0.5380410000000  0.4415450000000  0.4808450000000 1.0
C      1  0.5286030000000  0.5638160000000  0.4767420000000 1.0
C      1  0.5645510000000  0.4813330000000  0.5438530000000 1.0
C      1  0.4873890000000  0.5134410000000  0.4785150000000 1.0
C      1  0.4633380000000  0.4338930000000  0.5006340000000 1.0
C      1  0.5484780000000  0.4992790000000  0.4456690000000 1.0
C      1  0.4300690000000  0.5045510000000  0.5302150000000 1.0
C      1  0.4743260000000  0.4771630000000  0.5075390000000 1.0
C      1  0.4985110000000  0.4859000000000  0.4751820000000 1.0
C      1  0.4534990000000  0.4424120000000  0.4767940000000 1.0
C      1  0.4847920000000  0.4173820000000  0.5061190000000 1.0
C      1  0.4413400000000  0.5331050000000  0.4944380000000 1.0
C      1  0.4648580000000  0.4541280000000  0.5239690000000 1.0
C      1  0.5565820000000  0.5110140000000  0.4946510000000 1.0
C      1  0.5049260000000  0.5058850000000  0.4323010000000 1.0
C      1  0.5229990000000  0.4825780000000  0.5123930000000 1.0
C      1  0.5494560000000  0.4713300000000  0.4517150000000 1.0
C      1  0.4890340000000  0.5224460000000  0.5624390000000 1.0
C      1  0.5099500000000  0.5825530000000  0.4641570000000 1.0
C      1  0.4930110000000  0.5206730000000  0.5074380000000 1.0
C      1  0.4508410000000  0.5111300000000  0.4485790000000 1.0
C      1  0.4883890000000  0.5843550000000  0.4818440000000 1.0
C      1  0.4805780000000  0.5482410000000  0.4438760000000 1.0
C      1  0.5010700000000  0.4723120000000  0.4982780000000 1.0
C      1  0.4577470000000  0.5340960000000  0.4356930000000 1.0
C      1  0.4300830000000  0.4818940000000  0.5134430000000 1.0
C      1  0.4907710000000  0.5474290000000  0.5473310000000 1.0
C      1  0.4807600000000  0.5496200000000  0.5198650000000 1.0
C      1  0.5281850000000  0.5389070000000  0.4637290000000 1.0
C      1  0.4597310000000  0.4837970000000  0.4434940000000 1.0
C      1  0.5498920000000  0.4454320000000  0.5276850000000 1.0
C      1  0.5463140000000  0.5227040000000  0.5205300000000 1.0
C      1  0.4297660000000  0.5305420000000  0.5194150000000 1.0
C      1  0.4962250000000  0.4714350000000  0.5552630000000 1.0
C      1  0.5023660000000  0.4674170000000  0.4529540000000 1.0
C      1  0.4481020000000  0.4907020000000  0.5491220000000 1.0
C      1  0.4899570000000  0.4493020000000  0.5388550000000 1.0
C      1  0.5305600000000  0.5043640000000  0.4245300000000 1.0
C      1  0.5577850000000  0.4626250000000  0.4773880000000 1.0
C      1  0.4870650000000  0.4822180000000  0.4343020000000 1.0
C      1  0.5685480000000  0.4672370000000  0.5200200000000 1.0
C      1  0.4541490000000  0.5117270000000  0.4786600000000 1.0
C      1  0.5239820000000  0.5647370000000  0.5053970000000 1.0
C      1  0.5445280000000  0.4608800000000  0.5516540000000 1.0
C      1  0.4957160000000  0.5708670000000  0.5064710000000 1.0
END
