TITL C-61688-9571-11 -0.0978636731335786 125000 -881.627716307784 0 0 124 (C1) n - 1
REM
REM in /rds/project/t2_vol4/rds-t2-cs072/BORA/CARBON/from-Arr/AIRSS/Generating-Clusters/GAP-ML-2020/Only-C1/SD-CG/HFTN-CG
REM
REM
REM
REM
REM
REM ./C.cell (11c1c37f851c82e70ff6c80c92926a4b)
REM AIRSS Version 0.9.1 bugfix July 2018 build 013d7b7c2542+ Fri, 06 Jul 2018 19:26:36 +0100
REM compiler GCC version 9.3.0
REM options -cpp -mtune=generic -march=x86-64 -g -O0
REM seed -546183961 -870274688 -689066093 1755708412 1725956367 -1060821992 -1004792228 543954646 -1818870594 1970196096 -1710660160 -1547410173 -395575308 -1858807465 147329751 1760022468 1888428903 -513973447 -1924025943 -603626800 -1617638617 777110531 -2001145045 176131533 492947843 -1337284814 460166417 -2146331722 -1272780849 -1788548020 310135045 -995196496 1314403863
REM
CELL 1.54180   50.00000   50.00000   50.00000   90.00000   90.00000   90.00000
LATT -1
SFAC C  
C      1  0.4081590000000  0.5110980000000  0.4939890000000 1.0
C      1  0.4981600000000  0.5009460000000  0.5106920000000 1.0
C      1  0.4732060000000  0.5738460000000  0.4317510000000 1.0
C      1  0.4760990000000  0.5905350000000  0.4553470000000 1.0
C      1  0.4006020000000  0.4911020000000  0.5141780000000 1.0
C      1  0.4434230000000  0.5616560000000  0.4759660000000 1.0
C      1  0.4676080000000  0.5872220000000  0.5070920000000 1.0
C      1  0.4235360000000  0.4813540000000  0.4520380000000 1.0
C      1  0.5966920000000  0.4994510000000  0.5120050000000 1.0
C      1  0.4647670000000  0.4719160000000  0.4261600000000 1.0
C      1  0.4810090000000  0.5396100000000  0.5028400000000 1.0
C      1  0.5261350000000  0.4522530000000  0.5825900000000 1.0
C      1  0.5721990000000  0.5403750000000  0.4599910000000 1.0
C      1  0.5752190000000  0.4674190000000  0.5378280000000 1.0
C      1  0.4553970000000  0.4101650000000  0.5076450000000 1.0
C      1  0.4989320000000  0.5652420000000  0.4223280000000 1.0
C      1  0.4923090000000  0.4539160000000  0.5114670000000 1.0
C      1  0.4537010000000  0.5089800000000  0.5331510000000 1.0
C      1  0.5933500000000  0.4518940000000  0.4970050000000 1.0
C      1  0.5872040000000  0.5344280000000  0.4828880000000 1.0
C      1  0.5882400000000  0.4890300000000  0.4637850000000 1.0
C      1  0.4855720000000  0.4795180000000  0.5808270000000 1.0
C      1  0.4530170000000  0.5556180000000  0.4283080000000 1.0
C      1  0.5775850000000  0.5507460000000  0.5050210000000 1.0
C      1  0.5316770000000  0.4807620000000  0.5752830000000 1.0
C      1  0.4986230000000  0.4203810000000  0.4715080000000 1.0
C      1  0.5174650000000  0.5805760000000  0.4375400000000 1.0
C      1  0.4568120000000  0.5580670000000  0.5452320000000 1.0
C      1  0.5476560000000  0.4275220000000  0.4624090000000 1.0
C      1  0.5659170000000  0.4485770000000  0.4503490000000 1.0
C      1  0.4696050000000  0.5438650000000  0.4775740000000 1.0
C      1  0.4501230000000  0.4253970000000  0.5511500000000 1.0
C      1  0.4448390000000  0.5321940000000  0.5514370000000 1.0
C      1  0.5596160000000  0.5700050000000  0.4937600000000 1.0
C      1  0.4361020000000  0.4224670000000  0.5260500000000 1.0
C      1  0.5468320000000  0.4726550000000  0.5281080000000 1.0
C      1  0.5608550000000  0.4698320000000  0.4308980000000 1.0
C      1  0.5201140000000  0.4849250000000  0.4511910000000 1.0
C      1  0.4834350000000  0.5584070000000  0.5557450000000 1.0
C      1  0.4236440000000  0.5260580000000  0.4468380000000 1.0
C      1  0.4832840000000  0.5237440000000  0.4623260000000 1.0
C      1  0.5038360000000  0.5978380000000  0.4563420000000 1.0
C      1  0.4393970000000  0.4485750000000  0.4899440000000 1.0
C      1  0.4772160000000  0.4158810000000  0.5473920000000 1.0
C      1  0.4834600000000  0.4787930000000  0.5500720000000 1.0
C      1  0.5037930000000  0.5733070000000  0.5408780000000 1.0
C      1  0.4191700000000  0.5261220000000  0.5376880000000 1.0
C      1  0.4975230000000  0.4514770000000  0.5843070000000 1.0
C      1  0.4140200000000  0.5060440000000  0.4654300000000 1.0
C      1  0.5271370000000  0.4290550000000  0.5632440000000 1.0
C      1  0.4073750000000  0.4642330000000  0.5253620000000 1.0
C      1  0.4486160000000  0.5711260000000  0.5213840000000 1.0
C      1  0.5420770000000  0.4255740000000  0.5389760000000 1.0
C      1  0.4595410000000  0.5304400000000  0.4155030000000 1.0
C      1  0.5825040000000  0.4616020000000  0.4716040000000 1.0
C      1  0.5956940000000  0.5078450000000  0.4846950000000 1.0
C      1  0.5380680000000  0.5258440000000  0.5640940000000 1.0
C      1  0.4772530000000  0.4960120000000  0.4677190000000 1.0
C      1  0.5156100000000  0.6087250000000  0.4783790000000 1.0
C      1  0.4978330000000  0.4319340000000  0.5602940000000 1.0
C      1  0.5743730000000  0.5407220000000  0.5319860000000 1.0
C      1  0.5581730000000  0.5641870000000  0.4646870000000 1.0
C      1  0.5395110000000  0.5805750000000  0.5114310000000 1.0
C      1  0.4309180000000  0.5576630000000  0.5025110000000 1.0
C      1  0.4593520000000  0.4499020000000  0.4461460000000 1.0
C      1  0.4806900000000  0.4089900000000  0.5198590000000 1.0
C      1  0.5331950000000  0.5087320000000  0.4634070000000 1.0
C      1  0.5404330000000  0.5650280000000  0.4417150000000 1.0
C      1  0.5532170000000  0.5008310000000  0.5701340000000 1.0
C      1  0.5765830000000  0.4310200000000  0.5082470000000 1.0
C      1  0.5165100000000  0.5950870000000  0.5021880000000 1.0
C      1  0.4450340000000  0.4456730000000  0.5677100000000 1.0
C      1  0.4163920000000  0.5347390000000  0.5100330000000 1.0
C      1  0.5557840000000  0.5207240000000  0.4437260000000 1.0
C      1  0.5510660000000  0.5490400000000  0.5483470000000 1.0
C      1  0.4619660000000  0.5193330000000  0.5718810000000 1.0
C      1  0.5389930000000  0.4770330000000  0.5004590000000 1.0
C      1  0.5108240000000  0.5275810000000  0.4696040000000 1.0
C      1  0.5436360000000  0.5036990000000  0.4917620000000 1.0
C      1  0.4645600000000  0.4924130000000  0.4929490000000 1.0
C      1  0.4609660000000  0.5855210000000  0.4787290000000 1.0
C      1  0.4992870000000  0.4557450000000  0.5404950000000 1.0
C      1  0.5369670000000  0.5397270000000  0.4276770000000 1.0
C      1  0.4703870000000  0.5134670000000  0.5108190000000 1.0
C      1  0.4861720000000  0.5188730000000  0.4122570000000 1.0
C      1  0.4569230000000  0.4803760000000  0.5370530000000 1.0
C      1  0.5952060000000  0.4720380000000  0.5170820000000 1.0
C      1  0.5115520000000  0.5234600000000  0.5804040000000 1.0
C      1  0.4939230000000  0.5886440000000  0.5187440000000 1.0
C      1  0.5331000000000  0.5690190000000  0.5368570000000 1.0
C      1  0.4335230000000  0.5527720000000  0.4493380000000 1.0
C      1  0.5683240000000  0.4377410000000  0.5343790000000 1.0
C      1  0.4627300000000  0.4666630000000  0.5084640000000 1.0
C      1  0.5018330000000  0.4232610000000  0.5030420000000 1.0
C      1  0.4862070000000  0.5352900000000  0.5730840000000 1.0
C      1  0.5385020000000  0.4713920000000  0.4145910000000 1.0
C      1  0.5242800000000  0.4740630000000  0.5454870000000 1.0
C      1  0.5092870000000  0.4964580000000  0.5868370000000 1.0
C      1  0.5552860000000  0.4580110000000  0.4852370000000 1.0
C      1  0.5306630000000  0.4215610000000  0.5122150000000 1.0
C      1  0.4128930000000  0.4770400000000  0.5517860000000 1.0
C      1  0.4720370000000  0.4277830000000  0.4619810000000 1.0
C      1  0.4398100000000  0.4867340000000  0.4287900000000 1.0
C      1  0.4208750000000  0.4428660000000  0.5129500000000 1.0
C      1  0.5250990000000  0.5194990000000  0.5381110000000 1.0
C      1  0.5519390000000  0.4283960000000  0.4924440000000 1.0
C      1  0.5087860000000  0.5299110000000  0.4980950000000 1.0
C      1  0.5846650000000  0.5137200000000  0.5343660000000 1.0
C      1  0.4999870000000  0.4779850000000  0.4689700000000 1.0
C      1  0.5087160000000  0.5387030000000  0.4162600000000 1.0
C      1  0.4360560000000  0.4578090000000  0.4616790000000 1.0
C      1  0.4398440000000  0.4727680000000  0.5634130000000 1.0
C      1  0.5219040000000  0.4190180000000  0.4578100000000 1.0
C      1  0.5063520000000  0.4974300000000  0.5377410000000 1.0
C      1  0.5737930000000  0.4941000000000  0.5523280000000 1.0
C      1  0.5086960000000  0.4746160000000  0.4966860000000 1.0
C      1  0.5331920000000  0.5231270000000  0.5106610000000 1.0
C      1  0.4587950000000  0.4919350000000  0.5801510000000 1.0
C      1  0.4536320000000  0.4238200000000  0.4833280000000 1.0
C      1  0.4875680000000  0.4890840000000  0.4159870000000 1.0
C      1  0.5722470000000  0.4949620000000  0.4411370000000 1.0
C      1  0.4383980000000  0.5140080000000  0.4249770000000 1.0
C      1  0.5146330000000  0.4812110000000  0.4223780000000 1.0
C      1  0.4049190000000  0.5022410000000  0.5408060000000 1.0
END
