TITL C-61658-9583-3 -0.0233409977855296 125000 -203.994689586619 0 0 31 (C1) n - 1
REM
REM in /rds/project/t2_vol4/rds-t2-cs072/BORA/CARBON/from-Arr/AIRSS/Generating-Clusters/GAP-ML-2020/Only-C1/SD-CG/HFTN-CG
REM
REM
REM
REM
REM
REM ./C.cell (11c1c37f851c82e70ff6c80c92926a4b)
REM AIRSS Version 0.9.1 bugfix July 2018 build 013d7b7c2542+ Fri, 06 Jul 2018 19:26:36 +0100
REM compiler GCC version 9.3.0
REM options -cpp -mtune=generic -march=x86-64 -g -O0
REM seed -532908472 -117659694 -1146697320 -1728463549 1870158048 -1018867925 -10167638 -836483836 -1173939441 999140769 -1470895013 1745591319 1191190139 1735676421 -280138393 552407908 1121499350 533015250 -1083095070 -1293610384 1862391676 -1285561492 -1953698319 1670906077 615612076 2038199674 -881701010 602692502 900483029 -2012729251 -844132725 -35552933 1547025915
REM
CELL 1.54180   50.00000   50.00000   50.00000   90.00000   90.00000   90.00000
LATT -1
SFAC C  
C      1  0.4709940000000  0.5090590000000  0.4637580000000 1.0
C      1  0.5604250000000  0.5121340000000  0.4968530000000 1.0
C      1  0.5455870000000  0.5342590000000  0.4912770000000 1.0
C      1  0.4782420000000  0.4913310000000  0.5154360000000 1.0
C      1  0.4911960000000  0.5106480000000  0.5333330000000 1.0
C      1  0.4772180000000  0.4533580000000  0.5339410000000 1.0
C      1  0.4564220000000  0.5468490000000  0.4987370000000 1.0
C      1  0.4989170000000  0.4765680000000  0.5019130000000 1.0
C      1  0.4942900000000  0.4477460000000  0.5106690000000 1.0
C      1  0.5223710000000  0.5356280000000  0.4729780000000 1.0
C      1  0.4736090000000  0.5324050000000  0.5405730000000 1.0
C      1  0.5336750000000  0.4909110000000  0.5342990000000 1.0
C      1  0.4630690000000  0.4824050000000  0.4730820000000 1.0
C      1  0.5361290000000  0.5341140000000  0.5185820000000 1.0
C      1  0.5197160000000  0.5195810000000  0.4506880000000 1.0
C      1  0.4938640000000  0.5057480000000  0.4470760000000 1.0
C      1  0.5316080000000  0.4932110000000  0.4593410000000 1.0
C      1  0.5063510000000  0.4802850000000  0.4534880000000 1.0
C      1  0.4494710000000  0.4753040000000  0.4962530000000 1.0
C      1  0.4999190000000  0.5339920000000  0.4889950000000 1.0
C      1  0.4573670000000  0.4716180000000  0.5214950000000 1.0
C      1  0.5226190000000  0.4906850000000  0.5060590000000 1.0
C      1  0.4720170000000  0.5333400000000  0.4810750000000 1.0
C      1  0.5075530000000  0.4907330000000  0.5479860000000 1.0
C      1  0.4902580000000  0.4401950000000  0.4847070000000 1.0
C      1  0.5427480000000  0.4930050000000  0.4854330000000 1.0
C      1  0.4950840000000  0.4670810000000  0.5505870000000 1.0
C      1  0.5096190000000  0.5200790000000  0.5118490000000 1.0
C      1  0.4898630000000  0.4675510000000  0.4735260000000 1.0
C      1  0.5507430000000  0.5128490000000  0.5304760000000 1.0
C      1  0.4590570000000  0.5473280000000  0.5255340000000 1.0
END
