TITL C-61670-9612-5 0.172821351298822 125000 -226.943537989796 0 0 35 (C1) n - 1
REM
REM in /rds/project/t2_vol4/rds-t2-cs072/BORA/CARBON/from-Arr/AIRSS/Generating-Clusters/GAP-ML-2020/Only-C1/SD-CG/HFTN-CG
REM
REM
REM
REM
REM
REM ./C.cell (11c1c37f851c82e70ff6c80c92926a4b)
REM AIRSS Version 0.9.1 bugfix July 2018 build 013d7b7c2542+ Fri, 06 Jul 2018 19:26:36 +0100
REM compiler GCC version 9.3.0
REM options -cpp -mtune=generic -march=x86-64 -g -O0
REM seed -223000198 107424695 1700887531 -1763716302 2128284761 1663477724 -1031821709 -17118352 -1716560995 1640999739 -1619603502 811698547 -1536579751 -1425204332 -298593262 1019473027 -654867504 -1858253264 1238349241 -203659438 -1206867303 540433486 1088289658 1789704955 376887046 -1101958887 -1473105664 -251880659 -828449183 2144362254 319723451 1863917409 -291552332
REM
CELL 1.54180   50.00000   50.00000   50.00000   90.00000   90.00000   90.00000
LATT -1
SFAC C  
C      1  0.5529170000000  0.5079870000000  0.4799460000000 1.0
C      1  0.5635970000000  0.5151270000000  0.5049350000000 1.0
C      1  0.4731990000000  0.5496990000000  0.4821380000000 1.0
C      1  0.4582560000000  0.4995220000000  0.5338070000000 1.0
C      1  0.5509390000000  0.4830790000000  0.4691800000000 1.0
C      1  0.5004470000000  0.5645730000000  0.4852040000000 1.0
C      1  0.5066610000000  0.5127330000000  0.4891290000000 1.0
C      1  0.4993820000000  0.5415990000000  0.4459580000000 1.0
C      1  0.5170850000000  0.5519160000000  0.4682670000000 1.0
C      1  0.5239490000000  0.4860270000000  0.5297540000000 1.0
C      1  0.4834070000000  0.4673670000000  0.4566890000000 1.0
C      1  0.5121170000000  0.4600750000000  0.5342020000000 1.0
C      1  0.5592190000000  0.5165520000000  0.5297780000000 1.0
C      1  0.5307870000000  0.4647830000000  0.4658170000000 1.0
C      1  0.4786650000000  0.4899970000000  0.5554170000000 1.0
C      1  0.4623810000000  0.4519640000000  0.5358030000000 1.0
C      1  0.4629160000000  0.4693820000000  0.4719500000000 1.0
C      1  0.5156080000000  0.4937360000000  0.4300070000000 1.0
C      1  0.4322480000000  0.5412630000000  0.5211920000000 1.0
C      1  0.5255030000000  0.4467770000000  0.4875930000000 1.0
C      1  0.5191750000000  0.4452110000000  0.5116770000000 1.0
C      1  0.5147800000000  0.5168300000000  0.4440140000000 1.0
C      1  0.5090520000000  0.4713970000000  0.4471770000000 1.0
C      1  0.4737860000000  0.5477760000000  0.4524920000000 1.0
C      1  0.5273570000000  0.5224540000000  0.4715770000000 1.0
C      1  0.4383980000000  0.5199210000000  0.5326830000000 1.0
C      1  0.5227190000000  0.5129160000000  0.5691110000000 1.0
C      1  0.4981420000000  0.5039310000000  0.5678770000000 1.0
C      1  0.5049950000000  0.4990690000000  0.5134110000000 1.0
C      1  0.4793610000000  0.5102290000000  0.5169650000000 1.0
C      1  0.4799450000000  0.5252110000000  0.4932360000000 1.0
C      1  0.4507690000000  0.4717450000000  0.5202090000000 1.0
C      1  0.4855350000000  0.4638540000000  0.5440350000000 1.0
C      1  0.4480790000000  0.4707320000000  0.4932310000000 1.0
C      1  0.5386240000000  0.5045650000000  0.5455370000000 1.0
END
