TITL C-61674-9735-4 -0.122332615378915 125000 -800.146209791566 0 0 112 (C1) n - 1
REM
REM in /rds/project/t2_vol4/rds-t2-cs072/BORA/CARBON/from-Arr/AIRSS/Generating-Clusters/GAP-ML-2020/Only-C1/SD-CG/HFTN-CG
REM
REM
REM
REM
REM
REM ./C.cell (11c1c37f851c82e70ff6c80c92926a4b)
REM AIRSS Version 0.9.1 bugfix July 2018 build 013d7b7c2542+ Fri, 06 Jul 2018 19:26:36 +0100
REM compiler GCC version 9.3.0
REM options -cpp -mtune=generic -march=x86-64 -g -O0
REM seed 1510089703 -1858398426 822148771 -1007241315 -2083022580 216643875 -387055020 132551851 -138750665 903447387 1740110198 805704154 1984176836 -547963852 -1604703871 15749385 -1370783731 1564694117 955011802 693791441 -970434718 352910683 -1651317055 -1153865486 -1267421568 -1636174822 652172738 304392047 296165548 -88456003 1841326982 -1155921264 -424674836
REM
CELL 1.54180   50.00000   50.00000   50.00000   90.00000   90.00000   90.00000
LATT -1
SFAC C  
C      1  0.5384370000000  0.4540060000000  0.5112030000000 1.0
C      1  0.4100690000000  0.4983840000000  0.4899940000000 1.0
C      1  0.4183880000000  0.4813940000000  0.5357900000000 1.0
C      1  0.5121680000000  0.5468410000000  0.4254340000000 1.0
C      1  0.5253320000000  0.4915880000000  0.4993260000000 1.0
C      1  0.4117960000000  0.4764200000000  0.5079950000000 1.0
C      1  0.4177030000000  0.4886590000000  0.4641850000000 1.0
C      1  0.5433230000000  0.4727510000000  0.4856020000000 1.0
C      1  0.5220360000000  0.5019010000000  0.5477190000000 1.0
C      1  0.4963290000000  0.4777380000000  0.4153650000000 1.0
C      1  0.5449290000000  0.4898780000000  0.4250330000000 1.0
C      1  0.5602010000000  0.5491760000000  0.5479930000000 1.0
C      1  0.5284640000000  0.4448280000000  0.4357330000000 1.0
C      1  0.5776070000000  0.4759240000000  0.5274140000000 1.0
C      1  0.5321510000000  0.4999690000000  0.5921720000000 1.0
C      1  0.4375000000000  0.5311860000000  0.4502970000000 1.0
C      1  0.5820120000000  0.5311510000000  0.4781070000000 1.0
C      1  0.4932660000000  0.4729080000000  0.4706870000000 1.0
C      1  0.4353230000000  0.4356130000000  0.5353090000000 1.0
C      1  0.5158930000000  0.5819750000000  0.5055250000000 1.0
C      1  0.5053150000000  0.4788430000000  0.5431840000000 1.0
C      1  0.4299650000000  0.5064190000000  0.5434450000000 1.0
C      1  0.5430440000000  0.5434150000000  0.5706880000000 1.0
C      1  0.5499890000000  0.4802700000000  0.5791960000000 1.0
C      1  0.5437190000000  0.4593710000000  0.5616880000000 1.0
C      1  0.4519210000000  0.4567590000000  0.5667220000000 1.0
C      1  0.4501230000000  0.4595690000000  0.4460550000000 1.0
C      1  0.5589390000000  0.5645640000000  0.5039060000000 1.0
C      1  0.5410550000000  0.4241140000000  0.5047980000000 1.0
C      1  0.5823040000000  0.4638210000000  0.5004050000000 1.0
C      1  0.4451600000000  0.5710240000000  0.5137980000000 1.0
C      1  0.5746210000000  0.4783300000000  0.4746950000000 1.0
C      1  0.5680580000000  0.5006570000000  0.5688860000000 1.0
C      1  0.5372130000000  0.4272330000000  0.4577880000000 1.0
C      1  0.4545430000000  0.5801800000000  0.4695600000000 1.0
C      1  0.4936120000000  0.5356160000000  0.4787850000000 1.0
C      1  0.4481130000000  0.4837400000000  0.4305400000000 1.0
C      1  0.5357530000000  0.5589850000000  0.4358550000000 1.0
C      1  0.4825230000000  0.4205040000000  0.5377740000000 1.0
C      1  0.4762020000000  0.4962020000000  0.4667500000000 1.0
C      1  0.4880690000000  0.5601640000000  0.4332750000000 1.0
C      1  0.5508220000000  0.5692590000000  0.5306330000000 1.0
C      1  0.4245220000000  0.5287410000000  0.5266950000000 1.0
C      1  0.4779300000000  0.4221750000000  0.4640670000000 1.0
C      1  0.5281630000000  0.5186980000000  0.5053370000000 1.0
C      1  0.4381980000000  0.5665280000000  0.4860070000000 1.0
C      1  0.4962270000000  0.4133500000000  0.4858410000000 1.0
C      1  0.4679440000000  0.5313870000000  0.5695660000000 1.0
C      1  0.4531510000000  0.4131650000000  0.4705090000000 1.0
C      1  0.4622560000000  0.4807770000000  0.5792330000000 1.0
C      1  0.4832040000000  0.4864450000000  0.5954700000000 1.0
C      1  0.5155190000000  0.4535320000000  0.5579550000000 1.0
C      1  0.5103050000000  0.5193570000000  0.4355540000000 1.0
C      1  0.4309850000000  0.5037470000000  0.4444100000000 1.0
C      1  0.5765470000000  0.5302080000000  0.5322590000000 1.0
C      1  0.5120960000000  0.4699530000000  0.5153590000000 1.0
C      1  0.4703360000000  0.4918120000000  0.4145420000000 1.0
C      1  0.5589750000000  0.5422770000000  0.4393060000000 1.0
C      1  0.4682710000000  0.4817780000000  0.5115260000000 1.0
C      1  0.5294680000000  0.5141650000000  0.4584070000000 1.0
C      1  0.4877840000000  0.4647560000000  0.5000750000000 1.0
C      1  0.4384290000000  0.5525050000000  0.5343060000000 1.0
C      1  0.5060200000000  0.5708210000000  0.5533990000000 1.0
C      1  0.4777080000000  0.5267350000000  0.5004630000000 1.0
C      1  0.5033380000000  0.5054840000000  0.5929510000000 1.0
C      1  0.5770450000000  0.5055830000000  0.4649010000000 1.0
C      1  0.5694860000000  0.4359930000000  0.4938310000000 1.0
C      1  0.5336450000000  0.5672100000000  0.4859990000000 1.0
C      1  0.4881220000000  0.5211300000000  0.5254740000000 1.0
C      1  0.5241620000000  0.5786330000000  0.5322850000000 1.0
C      1  0.4323400000000  0.4316240000000  0.5082060000000 1.0
C      1  0.5637530000000  0.4349380000000  0.4660070000000 1.0
C      1  0.4946450000000  0.5316240000000  0.5813160000000 1.0
C      1  0.5789530000000  0.5022840000000  0.5423240000000 1.0
C      1  0.5564220000000  0.5117160000000  0.4437460000000 1.0
C      1  0.4564770000000  0.5045610000000  0.5596510000000 1.0
C      1  0.5008510000000  0.4526010000000  0.4286620000000 1.0
C      1  0.5263340000000  0.5756550000000  0.4570600000000 1.0
C      1  0.4596610000000  0.4319700000000  0.5507110000000 1.0
C      1  0.5231540000000  0.5348110000000  0.4819860000000 1.0
C      1  0.5175800000000  0.4961240000000  0.4183360000000 1.0
C      1  0.4165180000000  0.5250210000000  0.4975240000000 1.0
C      1  0.4855570000000  0.5208890000000  0.4539940000000 1.0
C      1  0.4977130000000  0.5795930000000  0.4520450000000 1.0
C      1  0.4284830000000  0.4593500000000  0.5498410000000 1.0
C      1  0.4704750000000  0.5826170000000  0.5205560000000 1.0
C      1  0.4891620000000  0.5889880000000  0.5000380000000 1.0
C      1  0.4218350000000  0.4535610000000  0.4931460000000 1.0
C      1  0.5507650000000  0.5197910000000  0.5827120000000 1.0
C      1  0.5242680000000  0.4165680000000  0.4815250000000 1.0
C      1  0.5563370000000  0.4592690000000  0.5361850000000 1.0
C      1  0.5292970000000  0.4186410000000  0.5299160000000 1.0
C      1  0.5093000000000  0.4278070000000  0.5457460000000 1.0
C      1  0.4793540000000  0.4483490000000  0.4495020000000 1.0
C      1  0.5773000000000  0.5418680000000  0.5049380000000 1.0
C      1  0.4270220000000  0.5417980000000  0.4760270000000 1.0
C      1  0.4786140000000  0.5730740000000  0.5462400000000 1.0
C      1  0.5707290000000  0.4586250000000  0.4525180000000 1.0
C      1  0.4652750000000  0.5022490000000  0.4920710000000 1.0
C      1  0.4284840000000  0.4621210000000  0.4659600000000 1.0
C      1  0.4686820000000  0.5192610000000  0.4136210000000 1.0
C      1  0.4653490000000  0.5373190000000  0.4363930000000 1.0
C      1  0.4781500000000  0.4942640000000  0.5365480000000 1.0
C      1  0.5754380000000  0.5505450000000  0.4589380000000 1.0
C      1  0.4801020000000  0.5882750000000  0.4728390000000 1.0
C      1  0.4587940000000  0.5538480000000  0.5549360000000 1.0
C      1  0.5145590000000  0.5509810000000  0.5720790000000 1.0
C      1  0.5505220000000  0.4636030000000  0.4324290000000 1.0
C      1  0.4522260000000  0.4141940000000  0.4982220000000 1.0
C      1  0.5211190000000  0.4869190000000  0.4712270000000 1.0
C      1  0.4788400000000  0.4119430000000  0.5097530000000 1.0
C      1  0.5157320000000  0.5224850000000  0.5294900000000 1.0
END
