TITL C-61688-9571-10 5.09217917547331 125000 -119.982925073024 0 0 19 (C1) n - 1
REM
REM in /rds/project/t2_vol4/rds-t2-cs072/BORA/CARBON/from-Arr/AIRSS/Generating-Clusters/GAP-ML-2020/Only-C1/SD-CG/HFTN-CG
REM
REM
REM
REM
REM
REM ./C.cell (11c1c37f851c82e70ff6c80c92926a4b)
REM AIRSS Version 0.9.1 bugfix July 2018 build 013d7b7c2542+ Fri, 06 Jul 2018 19:26:36 +0100
REM compiler GCC version 9.3.0
REM options -cpp -mtune=generic -march=x86-64 -g -O0
REM seed -128359064 1586793428 1520461401 -1662041973 2038073238 -1664298792 -250258155 1206165587 -1300934638 191273299 -1815744808 -2026558989 -46746499 -1872283605 1959692195 -1596724452 -2048483782 -1240613777 -1917575643 -13541265 -1362411024 -152722929 -1212320723 116172897 -680745136 532327644 -2143684462 1137589378 -999318464 372159241 -1936242946 -238309790 -1147422688
REM
CELL 1.54180   50.00000   50.00000   50.00000   90.00000   90.00000   90.00000
LATT -1
SFAC C  
C      1  0.5367140000000  0.5388040000000  0.5009880000000 1.0
C      1  0.5092620000000  0.4654340000000  0.5457610000000 1.0
C      1  0.4625990000000  0.4637550000000  0.5205290000000 1.0
C      1  0.5342690000000  0.5234280000000  0.4536230000000 1.0
C      1  0.5176360000000  0.5301500000000  0.5151190000000 1.0
C      1  0.4869110000000  0.5047100000000  0.4462430000000 1.0
C      1  0.5325340000000  0.4840310000000  0.4889650000000 1.0
C      1  0.4586170000000  0.4896340000000  0.5083850000000 1.0
C      1  0.4542950000000  0.5222110000000  0.5450620000000 1.0
C      1  0.5115690000000  0.4914830000000  0.5406980000000 1.0
C      1  0.4850140000000  0.4632590000000  0.5334350000000 1.0
C      1  0.5113760000000  0.5132850000000  0.4474150000000 1.0
C      1  0.4697570000000  0.5117110000000  0.5263840000000 1.0
C      1  0.4663340000000  0.4976960000000  0.4605290000000 1.0
C      1  0.5085490000000  0.4772250000000  0.4896990000000 1.0
C      1  0.4530170000000  0.4929370000000  0.4816000000000 1.0
C      1  0.5444050000000  0.5208610000000  0.4798100000000 1.0
C      1  0.5005860000000  0.5135910000000  0.5284090000000 1.0
C      1  0.5565580000000  0.4957930000000  0.4873470000000 1.0
END
