TITL C-61683-9682-9 -85.1671735250902 125000 -633.228746712193 0 0 92 (C1) n - 1
REM
REM in /rds/project/t2_vol4/rds-t2-cs072/BORA/CARBON/from-Arr/AIRSS/Generating-Clusters/GAP-ML-2020/Only-C1/SD-CG/HFTN-CG
REM
REM
REM
REM
REM
REM ./C.cell (11c1c37f851c82e70ff6c80c92926a4b)
REM AIRSS Version 0.9.1 bugfix July 2018 build 013d7b7c2542+ Fri, 06 Jul 2018 19:26:36 +0100
REM compiler GCC version 9.3.0
REM options -cpp -mtune=generic -march=x86-64 -g -O0
REM seed -553542121 818881984 1104589666 -164228324 437334714 -713734293 -414283250 -864456883 -2004962187 77677232 -763300976 523409976 -1137491132 -1175610014 -932238361 1322109702 1263867371 -146821063 -849650166 779185106 -176715273 -2010677727 -1448915397 -1798142085 -50556580 -1007373552 2079321160 983725520 792196912 1348678595 1486780572 1676897455 1231999158
REM
CELL 1.54180   50.00000   50.00000   50.00000   90.00000   90.00000   90.00000
LATT -1
SFAC C  
C      1  0.5200580000000  0.4320770000000  0.5129530000000 1.0
C      1  0.4270620000000  0.4633470000000  0.5023480000000 1.0
C      1  0.4885200000000  0.5593580000000  0.4819830000000 1.0
C      1  0.4769420000000  0.5010750000000  0.4151990000000 1.0
C      1  0.4423320000000  0.4667220000000  0.4790410000000 1.0
C      1  0.5087830000000  0.5632570000000  0.5347800000000 1.0
C      1  0.5278680000000  0.5313120000000  0.4574760000000 1.0
C      1  0.4149540000000  0.4803430000000  0.5192090000000 1.0
C      1  0.5343980000000  0.5022550000000  0.4570090000000 1.0
C      1  0.4658040000000  0.5140040000000  0.4665800000000 1.0
C      1  0.5538190000000  0.4830260000000  0.5556620000000 1.0
C      1  0.4616980000000  0.4596100000000  0.5715740000000 1.0
C      1  0.4344100000000  0.4959430000000  0.5579820000000 1.0
C      1  0.5110040000000  0.4860750000000  0.4547470000000 1.0
C      1  0.4207220000000  0.5081860000000  0.5123390000000 1.0
C      1  0.4602870000000  0.5395080000000  0.4501200000000 1.0
C      1  0.4601270000000  0.4899790000000  0.5711830000000 1.0
C      1  0.5025420000000  0.4872440000000  0.4811770000000 1.0
C      1  0.5731930000000  0.5291770000000  0.4668580000000 1.0
C      1  0.4985210000000  0.5172830000000  0.5324960000000 1.0
C      1  0.4550090000000  0.5619370000000  0.5238070000000 1.0
C      1  0.4469350000000  0.5362580000000  0.4782340000000 1.0
C      1  0.4810030000000  0.5597420000000  0.4531870000000 1.0
C      1  0.5074390000000  0.4685140000000  0.4272050000000 1.0
C      1  0.5062380000000  0.5629460000000  0.4373880000000 1.0
C      1  0.5321960000000  0.5307430000000  0.5024720000000 1.0
C      1  0.4901280000000  0.5126500000000  0.4835510000000 1.0
C      1  0.4978010000000  0.5423020000000  0.5518980000000 1.0
C      1  0.5341110000000  0.4740830000000  0.5741640000000 1.0
C      1  0.5792270000000  0.4765070000000  0.5164480000000 1.0
C      1  0.5539800000000  0.4704010000000  0.4375490000000 1.0
C      1  0.5246870000000  0.5089980000000  0.5201000000000 1.0
C      1  0.5158130000000  0.4627040000000  0.5182540000000 1.0
C      1  0.4625670000000  0.4777950000000  0.4248790000000 1.0
C      1  0.5608970000000  0.5158080000000  0.4918180000000 1.0
C      1  0.4368740000000  0.5164880000000  0.5363760000000 1.0
C      1  0.4685510000000  0.4526170000000  0.5245400000000 1.0
C      1  0.4814770000000  0.4940850000000  0.5417740000000 1.0
C      1  0.4256870000000  0.4728050000000  0.5451220000000 1.0
C      1  0.4487050000000  0.5419810000000  0.5442470000000 1.0
C      1  0.5324040000000  0.5751210000000  0.4979990000000 1.0
C      1  0.5186060000000  0.5368280000000  0.4308590000000 1.0
C      1  0.5495410000000  0.4413720000000  0.4743900000000 1.0
C      1  0.5020080000000  0.5129030000000  0.5854400000000 1.0
C      1  0.4285950000000  0.5145130000000  0.4853850000000 1.0
C      1  0.4553560000000  0.4738580000000  0.5096220000000 1.0
C      1  0.5513640000000  0.5087780000000  0.5368690000000 1.0
C      1  0.5098370000000  0.5348830000000  0.4808560000000 1.0
C      1  0.4598650000000  0.5007150000000  0.5219360000000 1.0
C      1  0.5066800000000  0.4634280000000  0.5675510000000 1.0
C      1  0.4933030000000  0.4223600000000  0.5561970000000 1.0
C      1  0.4731290000000  0.4354630000000  0.4994130000000 1.0
C      1  0.5239350000000  0.4846250000000  0.5010880000000 1.0
C      1  0.4738990000000  0.5143820000000  0.5797160000000 1.0
C      1  0.5154360000000  0.5365610000000  0.5746310000000 1.0
C      1  0.4666150000000  0.5859340000000  0.5290380000000 1.0
C      1  0.4577610000000  0.5192030000000  0.4284620000000 1.0
C      1  0.5319040000000  0.4536410000000  0.4324350000000 1.0
C      1  0.5677840000000  0.4508020000000  0.5165470000000 1.0
C      1  0.5480710000000  0.4911110000000  0.4812720000000 1.0
C      1  0.5050430000000  0.4950190000000  0.4133080000000 1.0
C      1  0.5710500000000  0.5037160000000  0.5157450000000 1.0
C      1  0.4609290000000  0.4443070000000  0.4751650000000 1.0
C      1  0.5699960000000  0.4647700000000  0.5413540000000 1.0
C      1  0.5232880000000  0.5778940000000  0.4522190000000 1.0
C      1  0.4652900000000  0.5477660000000  0.4985470000000 1.0
C      1  0.5040020000000  0.5808960000000  0.4965240000000 1.0
C      1  0.5428040000000  0.5723230000000  0.4714720000000 1.0
C      1  0.4785170000000  0.5209820000000  0.5093810000000 1.0
C      1  0.4991440000000  0.4266580000000  0.4929140000000 1.0
C      1  0.5261180000000  0.5134590000000  0.4160900000000 1.0
C      1  0.5526030000000  0.5477420000000  0.4617600000000 1.0
C      1  0.5728900000000  0.5143020000000  0.4436550000000 1.0
C      1  0.4937140000000  0.4673810000000  0.5364710000000 1.0
C      1  0.4787470000000  0.4395910000000  0.4532900000000 1.0
C      1  0.5119110000000  0.4867140000000  0.5845360000000 1.0
C      1  0.4697900000000  0.5376340000000  0.5629260000000 1.0
C      1  0.4467120000000  0.4530340000000  0.5481040000000 1.0
C      1  0.5488780000000  0.4350380000000  0.5021480000000 1.0
C      1  0.4405080000000  0.4938710000000  0.4666670000000 1.0
C      1  0.4428700000000  0.4950440000000  0.4374580000000 1.0
C      1  0.5031190000000  0.4292550000000  0.4646960000000 1.0
C      1  0.5339270000000  0.5545730000000  0.5209930000000 1.0
C      1  0.5512290000000  0.5000900000000  0.4321870000000 1.0
C      1  0.4865310000000  0.4441070000000  0.5737700000000 1.0
C      1  0.4806370000000  0.4570090000000  0.4310190000000 1.0
C      1  0.5495310000000  0.5403120000000  0.5442350000000 1.0
C      1  0.4932760000000  0.5845050000000  0.5229410000000 1.0
C      1  0.5413120000000  0.5465530000000  0.5697610000000 1.0
C      1  0.5083950000000  0.4176870000000  0.5365460000000 1.0
C      1  0.5289700000000  0.4353570000000  0.4548120000000 1.0
C      1  0.5598080000000  0.4667850000000  0.4658760000000 1.0
END
