TITL C-61673-9576-1 0.0548022044436775 125000 -555.223685449415 0 0 81 (C1) n - 1
REM
REM in /rds/project/t2_vol4/rds-t2-cs072/BORA/CARBON/from-Arr/AIRSS/Generating-Clusters/GAP-ML-2020/Only-C1/SD-CG/HFTN-CG
REM
REM
REM
REM
REM
REM ./C.cell (11c1c37f851c82e70ff6c80c92926a4b)
REM AIRSS Version 0.9.1 bugfix July 2018 build 013d7b7c2542+ Fri, 06 Jul 2018 19:26:36 +0100
REM compiler GCC version 9.3.0
REM options -cpp -mtune=generic -march=x86-64 -g -O0
REM seed -2145360582 -1215215579 -225407463 1781220855 -2097049250 -1639542448 -561772190 1194584745 15508159 -1842767427 698971086 161418306 1902578902 364716977 -824774334 -1355379992 -1922336744 -1266723907 618499499 1541553049 96470539 -980444074 -1484147899 -1869424146 -805851806 -1819349902 98552053 610938706 987371761 -1616381524 128371048 1286662248 -2122671386
REM
CELL 1.54180   50.00000   50.00000   50.00000   90.00000   90.00000   90.00000
LATT -1
SFAC C  
C      1  0.4319440000000  0.5540120000000  0.5110300000000 1.0
C      1  0.4478230000000  0.5100090000000  0.4335810000000 1.0
C      1  0.5407560000000  0.5400250000000  0.4692820000000 1.0
C      1  0.5779090000000  0.5058010000000  0.5183460000000 1.0
C      1  0.4785550000000  0.5280380000000  0.5409640000000 1.0
C      1  0.4873730000000  0.5041670000000  0.5574160000000 1.0
C      1  0.5515570000000  0.4318350000000  0.5521470000000 1.0
C      1  0.5008250000000  0.4981060000000  0.4223790000000 1.0
C      1  0.4832580000000  0.4155960000000  0.5422570000000 1.0
C      1  0.5192330000000  0.4698680000000  0.5593780000000 1.0
C      1  0.5670030000000  0.4987560000000  0.4665250000000 1.0
C      1  0.5496440000000  0.4983760000000  0.4445450000000 1.0
C      1  0.5261760000000  0.4430690000000  0.5517540000000 1.0
C      1  0.5133830000000  0.5361750000000  0.4882500000000 1.0
C      1  0.4140890000000  0.5303430000000  0.5123420000000 1.0
C      1  0.4684580000000  0.5241860000000  0.5104600000000 1.0
C      1  0.4658910000000  0.5502490000000  0.4426720000000 1.0
C      1  0.4090560000000  0.5172450000000  0.5359600000000 1.0
C      1  0.5219470000000  0.5321370000000  0.5182940000000 1.0
C      1  0.5150030000000  0.4353170000000  0.5035420000000 1.0
C      1  0.4482820000000  0.5397910000000  0.4898890000000 1.0
C      1  0.5542510000000  0.5072310000000  0.5622410000000 1.0
C      1  0.4898040000000  0.4673330000000  0.4712840000000 1.0
C      1  0.4225190000000  0.4945680000000  0.4735610000000 1.0
C      1  0.5054400000000  0.5080580000000  0.4832430000000 1.0
C      1  0.4668120000000  0.5539230000000  0.4705940000000 1.0
C      1  0.4726550000000  0.5755460000000  0.5256690000000 1.0
C      1  0.5370920000000  0.5244910000000  0.4424960000000 1.0
C      1  0.5637990000000  0.5245710000000  0.4798940000000 1.0
C      1  0.5430610000000  0.5665980000000  0.4811790000000 1.0
C      1  0.4859360000000  0.4768060000000  0.5159360000000 1.0
C      1  0.5814970000000  0.4799970000000  0.5059420000000 1.0
C      1  0.4919170000000  0.5584080000000  0.4833150000000 1.0
C      1  0.5402910000000  0.5695170000000  0.5085590000000 1.0
C      1  0.5106710000000  0.4726410000000  0.4270600000000 1.0
C      1  0.4773950000000  0.5060620000000  0.4398320000000 1.0
C      1  0.5222570000000  0.4893230000000  0.4974770000000 1.0
C      1  0.5035750000000  0.4856600000000  0.5394640000000 1.0
C      1  0.4594620000000  0.4611670000000  0.5238660000000 1.0
C      1  0.4495960000000  0.4527300000000  0.4963420000000 1.0
C      1  0.4348300000000  0.5105070000000  0.5448150000000 1.0
C      1  0.5363590000000  0.4727720000000  0.4391020000000 1.0
C      1  0.5470080000000  0.5341020000000  0.5545570000000 1.0
C      1  0.4651550000000  0.4469290000000  0.4502550000000 1.0
C      1  0.4990890000000  0.4267640000000  0.4799350000000 1.0
C      1  0.4730380000000  0.4392850000000  0.5374390000000 1.0
C      1  0.5379740000000  0.4492970000000  0.4561860000000 1.0
C      1  0.4422090000000  0.5370140000000  0.4323470000000 1.0
C      1  0.4712720000000  0.4415670000000  0.4783040000000 1.0
C      1  0.5036410000000  0.5441190000000  0.5415210000000 1.0
C      1  0.5063250000000  0.4304680000000  0.5323950000000 1.0
C      1  0.5159730000000  0.5813410000000  0.5162510000000 1.0
C      1  0.4884040000000  0.5343690000000  0.4355750000000 1.0
C      1  0.4942320000000  0.4526520000000  0.4420390000000 1.0
C      1  0.4239700000000  0.5199580000000  0.4868710000000 1.0
C      1  0.4321220000000  0.4664300000000  0.4794460000000 1.0
C      1  0.4516080000000  0.5360950000000  0.5478860000000 1.0
C      1  0.4473160000000  0.4829500000000  0.5434650000000 1.0
C      1  0.5697680000000  0.4671550000000  0.5286100000000 1.0
C      1  0.5106010000000  0.5120180000000  0.5752330000000 1.0
C      1  0.5723420000000  0.4740760000000  0.4803240000000 1.0
C      1  0.5446200000000  0.4368710000000  0.5016350000000 1.0
C      1  0.5308340000000  0.4924490000000  0.5736530000000 1.0
C      1  0.5574090000000  0.4417010000000  0.5269670000000 1.0
C      1  0.4322280000000  0.4898530000000  0.4461810000000 1.0
C      1  0.4995460000000  0.5726530000000  0.5380530000000 1.0
C      1  0.4487780000000  0.5614540000000  0.5321230000000 1.0
C      1  0.5205960000000  0.5360660000000  0.5640570000000 1.0
C      1  0.4633840000000  0.4902110000000  0.5629780000000 1.0
C      1  0.5581840000000  0.4933230000000  0.5374570000000 1.0
C      1  0.4831670000000  0.4955220000000  0.4692620000000 1.0
C      1  0.5125440000000  0.4354690000000  0.4563030000000 1.0
C      1  0.5549340000000  0.4503920000000  0.4784450000000 1.0
C      1  0.4417750000000  0.4631920000000  0.4517580000000 1.0
C      1  0.5135840000000  0.5241540000000  0.4265840000000 1.0
C      1  0.4904190000000  0.5793210000000  0.5024340000000 1.0
C      1  0.5054680000000  0.4649350000000  0.4969700000000 1.0
C      1  0.4787990000000  0.5013330000000  0.4981850000000 1.0
C      1  0.5263530000000  0.5006560000000  0.5242030000000 1.0
C      1  0.5489740000000  0.5438340000000  0.5239230000000 1.0
C      1  0.5689710000000  0.5290130000000  0.5073110000000 1.0
END
