TITL C-61660-9644-4 -439.094068529935 125000 -821.452400966912 0 0 118 (C1) n - 1
REM
REM in /rds/project/t2_vol4/rds-t2-cs072/BORA/CARBON/from-Arr/AIRSS/Generating-Clusters/GAP-ML-2020/Only-C1/SD-CG/HFTN-CG
REM
REM
REM
REM
REM
REM ./C.cell (11c1c37f851c82e70ff6c80c92926a4b)
REM AIRSS Version 0.9.1 bugfix July 2018 build 013d7b7c2542+ Fri, 06 Jul 2018 19:26:36 +0100
REM compiler GCC version 9.3.0
REM options -cpp -mtune=generic -march=x86-64 -g -O0
REM seed 570667644 1212435655 -379767155 -110944534 535148608 862708387 -671934468 -749037387 1210861713 -460196959 -1877929767 -1652804611 2014625075 -1924291735 404445591 -2075771508 -814446603 16043803 -206225246 -2013930004 801514427 -1357160655 -1040792066 -1890034625 -58474646 1092791264 1489692454 -727086566 -426236697 -231749662 671842842 710273593 1712544137
REM
CELL 1.54180   50.00000   50.00000   50.00000   90.00000   90.00000   90.00000
LATT -1
SFAC C  
C      1  0.5377120000000  0.5041900000000  0.4637550000000 1.0
C      1  0.5062330000000  0.4687720000000  0.5222060000000 1.0
C      1  0.5061780000000  0.4775020000000  0.4265500000000 1.0
C      1  0.4511250000000  0.5366400000000  0.4342930000000 1.0
C      1  0.4230610000000  0.4909440000000  0.4828650000000 1.0
C      1  0.4841290000000  0.5437690000000  0.4711380000000 1.0
C      1  0.4586170000000  0.4252260000000  0.4884630000000 1.0
C      1  0.5577340000000  0.4627650000000  0.5429340000000 1.0
C      1  0.4897820000000  0.5048670000000  0.5489170000000 1.0
C      1  0.4416550000000  0.5385400000000  0.5636670000000 1.0
C      1  0.4386120000000  0.5111540000000  0.4470820000000 1.0
C      1  0.5444820000000  0.5662870000000  0.4533200000000 1.0
C      1  0.5092790000000  0.5210390000000  0.4052320000000 1.0
C      1  0.5873280000000  0.4789560000000  0.5037420000000 1.0
C      1  0.5690950000000  0.4974010000000  0.5702190000000 1.0
C      1  0.4054600000000  0.5248320000000  0.5199090000000 1.0
C      1  0.4929970000000  0.4335630000000  0.5637030000000 1.0
C      1  0.4885780000000  0.5045920000000  0.4982330000000 1.0
C      1  0.4147340000000  0.4988450000000  0.5125090000000 1.0
C      1  0.4892800000000  0.5415550000000  0.4070230000000 1.0
C      1  0.5361160000000  0.5843570000000  0.4967860000000 1.0
C      1  0.5674310000000  0.5502530000000  0.4634460000000 1.0
C      1  0.5251240000000  0.4743550000000  0.5773730000000 1.0
C      1  0.5873780000000  0.5254620000000  0.5367590000000 1.0
C      1  0.4237940000000  0.5534160000000  0.4990730000000 1.0
C      1  0.5368670000000  0.5021350000000  0.5119140000000 1.0
C      1  0.5522210000000  0.5102850000000  0.4360220000000 1.0
C      1  0.4528680000000  0.4288620000000  0.5342760000000 1.0
C      1  0.5326870000000  0.5284580000000  0.4205680000000 1.0
C      1  0.5189230000000  0.5561270000000  0.5422650000000 1.0
C      1  0.4664680000000  0.5797940000000  0.4946140000000 1.0
C      1  0.5667030000000  0.4366830000000  0.4895370000000 1.0
C      1  0.5136460000000  0.5194520000000  0.5035790000000 1.0
C      1  0.4776520000000  0.5299920000000  0.5367190000000 1.0
C      1  0.4876190000000  0.5389350000000  0.5777220000000 1.0
C      1  0.4365550000000  0.4954750000000  0.5318550000000 1.0
C      1  0.4693310000000  0.5510390000000  0.5594650000000 1.0
C      1  0.4509090000000  0.5016580000000  0.4741880000000 1.0
C      1  0.4457060000000  0.5324170000000  0.4997590000000 1.0
C      1  0.4490310000000  0.5235260000000  0.5268870000000 1.0
C      1  0.5006240000000  0.4105530000000  0.4705920000000 1.0
C      1  0.4747580000000  0.4218290000000  0.4644790000000 1.0
C      1  0.4784360000000  0.4760790000000  0.5812380000000 1.0
C      1  0.5399700000000  0.5875020000000  0.4695690000000 1.0
C      1  0.5581870000000  0.5237240000000  0.5721920000000 1.0
C      1  0.5451760000000  0.4193770000000  0.4812350000000 1.0
C      1  0.3948690000000  0.5290300000000  0.4715840000000 1.0
C      1  0.3989050000000  0.5397700000000  0.4969460000000 1.0
C      1  0.5219330000000  0.4391480000000  0.4370380000000 1.0
C      1  0.5423830000000  0.4841090000000  0.4856860000000 1.0
C      1  0.4665740000000  0.4998250000000  0.4118970000000 1.0
C      1  0.5070540000000  0.5324070000000  0.4578180000000 1.0
C      1  0.5080060000000  0.5010030000000  0.4526030000000 1.0
C      1  0.5544550000000  0.4819970000000  0.4282400000000 1.0
C      1  0.5016480000000  0.4589440000000  0.5785300000000 1.0
C      1  0.4990640000000  0.5406690000000  0.5188880000000 1.0
C      1  0.4606110000000  0.5783210000000  0.4677440000000 1.0
C      1  0.4651230000000  0.4381810000000  0.5583650000000 1.0
C      1  0.5267640000000  0.5277290000000  0.4784790000000 1.0
C      1  0.5031520000000  0.5803170000000  0.5357000000000 1.0
C      1  0.4555280000000  0.5786870000000  0.5219700000000 1.0
C      1  0.4947830000000  0.4957630000000  0.4072230000000 1.0
C      1  0.4952020000000  0.4498140000000  0.4322550000000 1.0
C      1  0.5304760000000  0.5217630000000  0.5718220000000 1.0
C      1  0.4518290000000  0.4637150000000  0.4492770000000 1.0
C      1  0.4304520000000  0.4630060000000  0.4729860000000 1.0
C      1  0.4368600000000  0.4440110000000  0.4926920000000 1.0
C      1  0.4634860000000  0.5284580000000  0.4105890000000 1.0
C      1  0.5927410000000  0.5050820000000  0.4920030000000 1.0
C      1  0.4761020000000  0.4506330000000  0.4884670000000 1.0
C      1  0.5223630000000  0.5507360000000  0.4378250000000 1.0
C      1  0.5161100000000  0.4700550000000  0.4843310000000 1.0
C      1  0.5898170000000  0.5089180000000  0.4655730000000 1.0
C      1  0.4487780000000  0.4880650000000  0.4315630000000 1.0
C      1  0.4480730000000  0.5123090000000  0.5734130000000 1.0
C      1  0.5574020000000  0.4335250000000  0.5348910000000 1.0
C      1  0.5191860000000  0.4977170000000  0.5583920000000 1.0
C      1  0.5029530000000  0.4517440000000  0.5005110000000 1.0
C      1  0.4302660000000  0.5660710000000  0.5241120000000 1.0
C      1  0.4116620000000  0.5105040000000  0.4625640000000 1.0
C      1  0.5340810000000  0.4164440000000  0.5315980000000 1.0
C      1  0.5548740000000  0.5245100000000  0.5179180000000 1.0
C      1  0.5253830000000  0.4204240000000  0.4593430000000 1.0
C      1  0.4685430000000  0.4748280000000  0.4720430000000 1.0
C      1  0.5308220000000  0.4831750000000  0.5330730000000 1.0
C      1  0.4262950000000  0.5413150000000  0.5395210000000 1.0
C      1  0.4907910000000  0.4056870000000  0.5210950000000 1.0
C      1  0.5765170000000  0.4290680000000  0.5145980000000 1.0
C      1  0.5679510000000  0.4655340000000  0.4875840000000 1.0
C      1  0.5561880000000  0.5673650000000  0.5087060000000 1.0
C      1  0.5830270000000  0.5283190000000  0.5069880000000 1.0
C      1  0.5339780000000  0.4649450000000  0.4274740000000 1.0
C      1  0.4909910000000  0.5620700000000  0.4962690000000 1.0
C      1  0.5057770000000  0.4021000000000  0.4974000000000 1.0
C      1  0.5877430000000  0.4989780000000  0.5481320000000 1.0
C      1  0.4552990000000  0.4739030000000  0.5300370000000 1.0
C      1  0.4953950000000  0.4875210000000  0.4744910000000 1.0
C      1  0.4402390000000  0.4497480000000  0.5206640000000 1.0
C      1  0.4678230000000  0.5227080000000  0.4855210000000 1.0
C      1  0.5829210000000  0.4760040000000  0.5315090000000 1.0
C      1  0.4568820000000  0.4657160000000  0.5657560000000 1.0
C      1  0.4690490000000  0.5587050000000  0.4484920000000 1.0
C      1  0.5538040000000  0.4733610000000  0.5711920000000 1.0
C      1  0.4754020000000  0.5753480000000  0.5424890000000 1.0
C      1  0.5481740000000  0.5516830000000  0.5320770000000 1.0
C      1  0.5135310000000  0.5435760000000  0.5687010000000 1.0
C      1  0.4707360000000  0.4409490000000  0.4433670000000 1.0
C      1  0.5324000000000  0.4075170000000  0.5041060000000 1.0
C      1  0.5098310000000  0.5830410000000  0.5074050000000 1.0
C      1  0.5742870000000  0.5251820000000  0.4504690000000 1.0
C      1  0.5735380000000  0.5520180000000  0.4916850000000 1.0
C      1  0.4649030000000  0.4131460000000  0.5147100000000 1.0
C      1  0.5686900000000  0.5409910000000  0.5519940000000 1.0
C      1  0.4944140000000  0.5596770000000  0.4274640000000 1.0
C      1  0.4378050000000  0.4887480000000  0.5609680000000 1.0
C      1  0.5069280000000  0.4161870000000  0.5434700000000 1.0
C      1  0.4763780000000  0.5075470000000  0.5772300000000 1.0
C      1  0.4837510000000  0.4867600000000  0.5246150000000 1.0
END
