TITL C-61681-9596-1 0.00725791545350726 125000 -586.727775354638 0 0 85 (C1) n - 1
REM
REM in /rds/project/t2_vol4/rds-t2-cs072/BORA/CARBON/from-Arr/AIRSS/Generating-Clusters/GAP-ML-2020/Only-C1/SD-CG/HFTN-CG
REM
REM
REM
REM
REM
REM ./C.cell (11c1c37f851c82e70ff6c80c92926a4b)
REM AIRSS Version 0.9.1 bugfix July 2018 build 013d7b7c2542+ Fri, 06 Jul 2018 19:26:36 +0100
REM compiler GCC version 9.3.0
REM options -cpp -mtune=generic -march=x86-64 -g -O0
REM seed 1461383840 1726588756 -627676032 300015138 743245104 646208923 1893695639 -1551665043 88486117 -1865966029 715926979 -1679137926 944160102 969108777 -1175650788 -140820257 -884785050 -2077856778 228523273 1308468582 124142552 -784310423 1590377051 -1245087692 -299232038 1409362797 1066305048 -1758964565 -2058207068 -1665657113 -1938842959 1555714462 586547262
REM
CELL 1.54180   50.00000   50.00000   50.00000   90.00000   90.00000   90.00000
LATT -1
SFAC C  
C      1  0.4428540000000  0.4419240000000  0.5032830000000 1.0
C      1  0.4820630000000  0.5751460000000  0.4626500000000 1.0
C      1  0.4596990000000  0.4435950000000  0.5278220000000 1.0
C      1  0.4226990000000  0.5089670000000  0.4929690000000 1.0
C      1  0.4779930000000  0.5058250000000  0.4215780000000 1.0
C      1  0.4780770000000  0.5342370000000  0.5164990000000 1.0
C      1  0.4959340000000  0.5687130000000  0.4864720000000 1.0
C      1  0.4207600000000  0.4832130000000  0.4828740000000 1.0
C      1  0.5381090000000  0.4617800000000  0.5509920000000 1.0
C      1  0.5589330000000  0.5441340000000  0.5328580000000 1.0
C      1  0.4359890000000  0.5402560000000  0.5285420000000 1.0
C      1  0.5213810000000  0.4942020000000  0.5854220000000 1.0
C      1  0.5357930000000  0.5501620000000  0.4418470000000 1.0
C      1  0.4817900000000  0.4871460000000  0.5044820000000 1.0
C      1  0.4648060000000  0.4572070000000  0.4374540000000 1.0
C      1  0.4260290000000  0.4652330000000  0.5045620000000 1.0
C      1  0.5195070000000  0.5728480000000  0.5023810000000 1.0
C      1  0.5618680000000  0.5163270000000  0.5340850000000 1.0
C      1  0.5297430000000  0.4773830000000  0.5047990000000 1.0
C      1  0.4996550000000  0.5097460000000  0.5898140000000 1.0
C      1  0.5369140000000  0.5544220000000  0.5477890000000 1.0
C      1  0.5628180000000  0.4753660000000  0.5512900000000 1.0
C      1  0.5685810000000  0.5300510000000  0.4833810000000 1.0
C      1  0.5054700000000  0.4378680000000  0.5130340000000 1.0
C      1  0.5446640000000  0.5646700000000  0.4913370000000 1.0
C      1  0.4742330000000  0.5325330000000  0.5618710000000 1.0
C      1  0.5045780000000  0.5174700000000  0.4213990000000 1.0
C      1  0.4386630000000  0.4652160000000  0.4398340000000 1.0
C      1  0.4878230000000  0.4939910000000  0.4776060000000 1.0
C      1  0.4306560000000  0.4800530000000  0.5286530000000 1.0
C      1  0.4921130000000  0.4586220000000  0.5682160000000 1.0
C      1  0.4836760000000  0.5423400000000  0.4901750000000 1.0
C      1  0.4618570000000  0.5460560000000  0.5404800000000 1.0
C      1  0.5496320000000  0.5022280000000  0.5085780000000 1.0
C      1  0.4641980000000  0.4412450000000  0.4843530000000 1.0
C      1  0.4945820000000  0.5213090000000  0.4738170000000 1.0
C      1  0.5545760000000  0.4399790000000  0.5079990000000 1.0
C      1  0.5405200000000  0.5136840000000  0.5759950000000 1.0
C      1  0.5781020000000  0.4550380000000  0.5091190000000 1.0
C      1  0.5145160000000  0.4782240000000  0.4745510000000 1.0
C      1  0.5697740000000  0.4996950000000  0.4859280000000 1.0
C      1  0.4657640000000  0.5067610000000  0.5208750000000 1.0
C      1  0.5430920000000  0.4351910000000  0.4829540000000 1.0
C      1  0.5201440000000  0.4542110000000  0.4496750000000 1.0
C      1  0.5240130000000  0.5184770000000  0.5023990000000 1.0
C      1  0.5169370000000  0.5608250000000  0.5284350000000 1.0
C      1  0.4703860000000  0.4772940000000  0.5607900000000 1.0
C      1  0.4351770000000  0.5130330000000  0.4491690000000 1.0
C      1  0.5469700000000  0.4548210000000  0.4620100000000 1.0
C      1  0.4848920000000  0.4282390000000  0.5350270000000 1.0
C      1  0.4537670000000  0.5652950000000  0.4603840000000 1.0
C      1  0.4349730000000  0.5095400000000  0.5197970000000 1.0
C      1  0.4495810000000  0.4652230000000  0.5446980000000 1.0
C      1  0.4274120000000  0.5276020000000  0.4723220000000 1.0
C      1  0.5218690000000  0.4965290000000  0.4306690000000 1.0
C      1  0.5595940000000  0.5029460000000  0.5584160000000 1.0
C      1  0.5315100000000  0.4517150000000  0.5229160000000 1.0
C      1  0.4980630000000  0.5348310000000  0.5778070000000 1.0
C      1  0.5270450000000  0.5385940000000  0.5700050000000 1.0
C      1  0.5456680000000  0.5448350000000  0.4677180000000 1.0
C      1  0.5817690000000  0.4719530000000  0.5304570000000 1.0
C      1  0.5030250000000  0.4339690000000  0.4610350000000 1.0
C      1  0.5063570000000  0.5337290000000  0.5228190000000 1.0
C      1  0.5562390000000  0.4828150000000  0.4647070000000 1.0
C      1  0.5101160000000  0.4713210000000  0.4281550000000 1.0
C      1  0.5086750000000  0.4939600000000  0.5154490000000 1.0
C      1  0.4286260000000  0.4851590000000  0.4546950000000 1.0
C      1  0.5320770000000  0.4977790000000  0.4584750000000 1.0
C      1  0.4615730000000  0.5497430000000  0.4367160000000 1.0
C      1  0.5063240000000  0.5087880000000  0.5410920000000 1.0
C      1  0.4306590000000  0.5567790000000  0.5075420000000 1.0
C      1  0.4751600000000  0.4393190000000  0.4586300000000 1.0
C      1  0.4769700000000  0.5041340000000  0.5499960000000 1.0
C      1  0.5640770000000  0.5495220000000  0.5052340000000 1.0
C      1  0.4558990000000  0.5222220000000  0.4313970000000 1.0
C      1  0.5158000000000  0.4279360000000  0.4862560000000 1.0
C      1  0.4347160000000  0.5545500000000  0.4794430000000 1.0
C      1  0.4823860000000  0.4765810000000  0.4245100000000 1.0
C      1  0.4811490000000  0.4559170000000  0.5052340000000 1.0
C      1  0.5115790000000  0.5450580000000  0.4290420000000 1.0
C      1  0.4884420000000  0.5601360000000  0.4369250000000 1.0
C      1  0.5867710000000  0.4812820000000  0.5039990000000 1.0
C      1  0.5188060000000  0.4693810000000  0.5707400000000 1.0
C      1  0.4902360000000  0.4312360000000  0.5615030000000 1.0
C      1  0.5240790000000  0.5226650000000  0.4730970000000 1.0
END
