TITL C-61666-537-11 -1.37789145112263 125000 -129.84677978312 0 0 20 (C1) n - 1
REM
REM in /rds/project/t2_vol4/rds-t2-cs072/BORA/CARBON/from-Arr/AIRSS/Generating-Clusters/GAP-ML-2020/Only-C1/SD-CG/HFTN-CG
REM
REM
REM
REM
REM
REM ./C.cell (11c1c37f851c82e70ff6c80c92926a4b)
REM AIRSS Version 0.9.1 bugfix July 2018 build 013d7b7c2542+ Fri, 06 Jul 2018 19:26:36 +0100
REM compiler GCC version 9.3.0
REM options -cpp -mtune=generic -march=x86-64 -g -O0
REM seed -1902334676 1738054964 2028164856 -278356551 1965488073 -525442738 -1622015776 -1545364579 2048550167 1103375144 1188309371 379557150 1287797286 -58856050 951941875 -76433981 -820588313 382388510 354047230 -677909187 -572663286 -1210558653 -281694022 1754416336 -1964790818 1375636040 1574639292 -2041888057 -140075409 -2134085533 -207581931 -1994463758 1656120802
REM
CELL 1.54180   50.00000   50.00000   50.00000   90.00000   90.00000   90.00000
LATT -1
SFAC C  
C      1  0.4760770000000  0.5041690000000  0.4643660000000 1.0
C      1  0.4617220000000  0.4998450000000  0.5271880000000 1.0
C      1  0.4644250000000  0.4726110000000  0.5198330000000 1.0
C      1  0.5549100000000  0.5295880000000  0.4970070000000 1.0
C      1  0.5014790000000  0.5316690000000  0.4911230000000 1.0
C      1  0.4689430000000  0.4779090000000  0.4690020000000 1.0
C      1  0.5186850000000  0.5313620000000  0.4541470000000 1.0
C      1  0.4731100000000  0.5332870000000  0.4968130000000 1.0
C      1  0.5450600000000  0.4820160000000  0.5122970000000 1.0
C      1  0.4631250000000  0.5238710000000  0.5208550000000 1.0
C      1  0.5498610000000  0.5053100000000  0.5034050000000 1.0
C      1  0.5221330000000  0.5477460000000  0.4781780000000 1.0
C      1  0.5194620000000  0.4454300000000  0.5372360000000 1.0
C      1  0.4762930000000  0.4529980000000  0.5360530000000 1.0
C      1  0.4612860000000  0.5267190000000  0.4723570000000 1.0
C      1  0.5469720000000  0.5530320000000  0.4899110000000 1.0
C      1  0.4949740000000  0.4390380000000  0.5461590000000 1.0
C      1  0.5028800000000  0.5123910000000  0.4683120000000 1.0
C      1  0.4652810000000  0.4692210000000  0.4920100000000 1.0
C      1  0.5333220000000  0.4617890000000  0.5237470000000 1.0
END
