TITL C-61673-9576-6 0.128888431294369 125000 -699.057917213464 0 0 100 (C1) n - 1
REM
REM in /rds/project/t2_vol4/rds-t2-cs072/BORA/CARBON/from-Arr/AIRSS/Generating-Clusters/GAP-ML-2020/Only-C1/SD-CG/HFTN-CG
REM
REM
REM
REM
REM
REM ./C.cell (11c1c37f851c82e70ff6c80c92926a4b)
REM AIRSS Version 0.9.1 bugfix July 2018 build 013d7b7c2542+ Fri, 06 Jul 2018 19:26:36 +0100
REM compiler GCC version 9.3.0
REM options -cpp -mtune=generic -march=x86-64 -g -O0
REM seed 1879694624 1627632805 -1589999874 -1773581049 2143166122 -1213396375 -57437121 -1409644510 -1967901245 759617958 722240905 -1218118335 -707742431 -622736738 -1005847438 115756703 1949663111 346279696 -416640767 240886008 801260064 1972255992 216528499 1523638316 572945910 422069529 -1865624853 524662030 -1353781437 557788603 1425072088 1509894802 1624423428
REM
CELL 1.54180   50.00000   50.00000   50.00000   90.00000   90.00000   90.00000
LATT -1
SFAC C  
C      1  0.4972050000000  0.4943140000000  0.5182330000000 1.0
C      1  0.4238470000000  0.5333390000000  0.4533000000000 1.0
C      1  0.4170070000000  0.4865590000000  0.5281190000000 1.0
C      1  0.5184910000000  0.4386600000000  0.4498220000000 1.0
C      1  0.4231160000000  0.5141890000000  0.5283050000000 1.0
C      1  0.4350010000000  0.4894060000000  0.4304550000000 1.0
C      1  0.5208900000000  0.4196150000000  0.4962640000000 1.0
C      1  0.5794970000000  0.5024700000000  0.5470220000000 1.0
C      1  0.4338280000000  0.5298150000000  0.5069010000000 1.0
C      1  0.5611680000000  0.5071990000000  0.5693750000000 1.0
C      1  0.4855050000000  0.4291270000000  0.5324140000000 1.0
C      1  0.4857570000000  0.4795070000000  0.4251110000000 1.0
C      1  0.4941200000000  0.4797820000000  0.4543620000000 1.0
C      1  0.5705880000000  0.4959970000000  0.4497910000000 1.0
C      1  0.4387350000000  0.4966760000000  0.5679040000000 1.0
C      1  0.4234320000000  0.4469770000000  0.5035360000000 1.0
C      1  0.4868880000000  0.5384400000000  0.5606190000000 1.0
C      1  0.5091530000000  0.5195750000000  0.5076660000000 1.0
C      1  0.4860380000000  0.5391250000000  0.5011290000000 1.0
C      1  0.5849980000000  0.4777480000000  0.4670520000000 1.0
C      1  0.5058610000000  0.4383490000000  0.5507060000000 1.0
C      1  0.5210570000000  0.5151540000000  0.4803840000000 1.0
C      1  0.5220480000000  0.4871600000000  0.4692880000000 1.0
C      1  0.4973490000000  0.5830520000000  0.4843600000000 1.0
C      1  0.5340950000000  0.5711690000000  0.5271140000000 1.0
C      1  0.5415300000000  0.5679890000000  0.4988590000000 1.0
C      1  0.4316150000000  0.5165610000000  0.4299340000000 1.0
C      1  0.4406840000000  0.5551710000000  0.4431100000000 1.0
C      1  0.5401390000000  0.4884480000000  0.5359750000000 1.0
C      1  0.4481300000000  0.4537250000000  0.4481750000000 1.0
C      1  0.5233890000000  0.5385310000000  0.4351620000000 1.0
C      1  0.5076000000000  0.5786360000000  0.5333920000000 1.0
C      1  0.5135210000000  0.5406260000000  0.4641610000000 1.0
C      1  0.5730440000000  0.5470120000000  0.5256890000000 1.0
C      1  0.4596190000000  0.4821080000000  0.5176660000000 1.0
C      1  0.5879670000000  0.4833030000000  0.4942880000000 1.0
C      1  0.4517390000000  0.5371000000000  0.4226370000000 1.0
C      1  0.5090800000000  0.5063140000000  0.5782350000000 1.0
C      1  0.5477530000000  0.4753450000000  0.4479050000000 1.0
C      1  0.4378850000000  0.5195920000000  0.5522070000000 1.0
C      1  0.5316020000000  0.4346830000000  0.5411720000000 1.0
C      1  0.4542870000000  0.5768020000000  0.4516700000000 1.0
C      1  0.5500400000000  0.5358690000000  0.4378650000000 1.0
C      1  0.4500210000000  0.4539690000000  0.5558390000000 1.0
C      1  0.4781950000000  0.4792220000000  0.4966740000000 1.0
C      1  0.4930300000000  0.4491350000000  0.4606940000000 1.0
C      1  0.4304020000000  0.4748450000000  0.5520010000000 1.0
C      1  0.5303050000000  0.4584230000000  0.4305580000000 1.0
C      1  0.5223630000000  0.4682920000000  0.4927460000000 1.0
C      1  0.5206430000000  0.5671570000000  0.4797840000000 1.0
C      1  0.4985340000000  0.4581490000000  0.5705170000000 1.0
C      1  0.4747940000000  0.4973400000000  0.5355400000000 1.0
C      1  0.4600730000000  0.5424280000000  0.5179830000000 1.0
C      1  0.4629040000000  0.5699420000000  0.5314750000000 1.0
C      1  0.4920130000000  0.5913330000000  0.5111450000000 1.0
C      1  0.5599430000000  0.4355740000000  0.4762330000000 1.0
C      1  0.5197180000000  0.4764020000000  0.5196920000000 1.0
C      1  0.5127160000000  0.4721290000000  0.4128060000000 1.0
C      1  0.4824800000000  0.5140800000000  0.5812700000000 1.0
C      1  0.4452520000000  0.4321190000000  0.5094880000000 1.0
C      1  0.5409750000000  0.4858860000000  0.5659660000000 1.0
C      1  0.5855980000000  0.5214420000000  0.5270070000000 1.0
C      1  0.4657080000000  0.5947480000000  0.5207440000000 1.0
C      1  0.4646470000000  0.4249360000000  0.4892530000000 1.0
C      1  0.5530660000000  0.5573130000000  0.5432040000000 1.0
C      1  0.4862530000000  0.5658820000000  0.5495700000000 1.0
C      1  0.4572480000000  0.4709600000000  0.4258950000000 1.0
C      1  0.4645920000000  0.5184390000000  0.4667130000000 1.0
C      1  0.5611820000000  0.5302210000000  0.5849220000000 1.0
C      1  0.5404210000000  0.4275340000000  0.5166730000000 1.0
C      1  0.4769920000000  0.4938380000000  0.4717130000000 1.0
C      1  0.5277030000000  0.5177490000000  0.5313630000000 1.0
C      1  0.4581170000000  0.4352310000000  0.5356720000000 1.0
C      1  0.5688150000000  0.5237530000000  0.4538750000000 1.0
C      1  0.4920340000000  0.4267320000000  0.5034180000000 1.0
C      1  0.5867420000000  0.5115460000000  0.5000350000000 1.0
C      1  0.5686730000000  0.4786450000000  0.5354450000000 1.0
C      1  0.4752470000000  0.5710320000000  0.4682690000000 1.0
C      1  0.4270640000000  0.4747230000000  0.4545930000000 1.0
C      1  0.4636000000000  0.4925340000000  0.5807900000000 1.0
C      1  0.5436880000000  0.5420070000000  0.5660520000000 1.0
C      1  0.4709900000000  0.4649470000000  0.5731680000000 1.0
C      1  0.5661250000000  0.5526020000000  0.4982780000000 1.0
C      1  0.5171680000000  0.5283030000000  0.5593190000000 1.0
C      1  0.4655390000000  0.5265850000000  0.5427930000000 1.0
C      1  0.4652860000000  0.4366210000000  0.4624400000000 1.0
C      1  0.4163310000000  0.4735620000000  0.5018540000000 1.0
C      1  0.5031340000000  0.5261480000000  0.4166240000000 1.0
C      1  0.5641050000000  0.4394600000000  0.5044480000000 1.0
C      1  0.5165130000000  0.4791450000000  0.5772880000000 1.0
C      1  0.5677490000000  0.4562420000000  0.4601360000000 1.0
C      1  0.4207230000000  0.4897250000000  0.4780180000000 1.0
C      1  0.4823820000000  0.5416930000000  0.4717390000000 1.0
C      1  0.5331470000000  0.4262560000000  0.4707330000000 1.0
C      1  0.4327640000000  0.5191470000000  0.4790100000000 1.0
C      1  0.5766680000000  0.5312820000000  0.4817740000000 1.0
C      1  0.5772670000000  0.4639290000000  0.5131400000000 1.0
C      1  0.4777600000000  0.5360190000000  0.4167680000000 1.0
C      1  0.5031800000000  0.4975730000000  0.4088820000000 1.0
C      1  0.4961200000000  0.4538550000000  0.4906330000000 1.0
END
