TITL C-61684-9612-6 348.855406503862 125000 -708.919577321621 0 0 102 (C1) n - 1
REM
REM in /rds/project/t2_vol4/rds-t2-cs072/BORA/CARBON/from-Arr/AIRSS/Generating-Clusters/GAP-ML-2020/Only-C1/SD-CG/HFTN-CG
REM
REM
REM
REM
REM
REM ./C.cell (11c1c37f851c82e70ff6c80c92926a4b)
REM AIRSS Version 0.9.1 bugfix July 2018 build 013d7b7c2542+ Fri, 06 Jul 2018 19:26:36 +0100
REM compiler GCC version 9.3.0
REM options -cpp -mtune=generic -march=x86-64 -g -O0
REM seed 1783767433 100639230 -373785090 -231420430 1534647016 -334172963 1931488274 -1790684001 1455135051 -1745904054 -1941293525 948119725 905168300 772459357 1633697995 -2106388529 -508911415 -390054543 -145997973 542133622 173608513 1820256910 665853179 2108346332 113243716 1232072975 1292846541 771842521 643898704 619641473 921719022 -32052310 -552323671
REM
CELL 1.54180   50.00000   50.00000   50.00000   90.00000   90.00000   90.00000
LATT -1
SFAC C  
C      1  0.5067900000000  0.4784670000000  0.5877050000000 1.0
C      1  0.4600070000000  0.5417260000000  0.4269810000000 1.0
C      1  0.5058190000000  0.5105000000000  0.5847900000000 1.0
C      1  0.4722340000000  0.4359490000000  0.4676260000000 1.0
C      1  0.4760870000000  0.5025080000000  0.4083560000000 1.0
C      1  0.4297680000000  0.5407880000000  0.5219190000000 1.0
C      1  0.5445500000000  0.5477330000000  0.4518800000000 1.0
C      1  0.5307900000000  0.4299480000000  0.5000340000000 1.0
C      1  0.4989640000000  0.5204340000000  0.4108950000000 1.0
C      1  0.5275190000000  0.4584840000000  0.5819170000000 1.0
C      1  0.5196100000000  0.5128750000000  0.4600040000000 1.0
C      1  0.5293750000000  0.4825860000000  0.4111700000000 1.0
C      1  0.5015740000000  0.5348380000000  0.4664960000000 1.0
C      1  0.5183210000000  0.4187400000000  0.5239160000000 1.0
C      1  0.5181570000000  0.5603740000000  0.4568600000000 1.0
C      1  0.4932960000000  0.5813560000000  0.5004160000000 1.0
C      1  0.5825410000000  0.4937450000000  0.5109500000000 1.0
C      1  0.5789850000000  0.5307400000000  0.4821430000000 1.0
C      1  0.4406810000000  0.4681480000000  0.5558170000000 1.0
C      1  0.4336470000000  0.5285380000000  0.4944780000000 1.0
C      1  0.5146740000000  0.4650550000000  0.5342100000000 1.0
C      1  0.5465870000000  0.5671350000000  0.4957510000000 1.0
C      1  0.5262360000000  0.5314290000000  0.5863070000000 1.0
C      1  0.5260330000000  0.5107240000000  0.4152310000000 1.0
C      1  0.4533450000000  0.4468730000000  0.5403470000000 1.0
C      1  0.5568530000000  0.4427550000000  0.4974680000000 1.0
C      1  0.4526820000000  0.5149190000000  0.4191140000000 1.0
C      1  0.4931390000000  0.5444180000000  0.5470260000000 1.0
C      1  0.5064240000000  0.5154850000000  0.5532390000000 1.0
C      1  0.4683990000000  0.5610360000000  0.5028270000000 1.0
C      1  0.5638310000000  0.4992750000000  0.4462780000000 1.0
C      1  0.4529800000000  0.4689830000000  0.4310740000000 1.0
C      1  0.5172280000000  0.4714870000000  0.4795540000000 1.0
C      1  0.4164410000000  0.4792410000000  0.5148810000000 1.0
C      1  0.5086830000000  0.5710270000000  0.5449070000000 1.0
C      1  0.4798440000000  0.4371960000000  0.4984800000000 1.0
C      1  0.4491740000000  0.5078020000000  0.5115290000000 1.0
C      1  0.4890890000000  0.4747140000000  0.5264950000000 1.0
C      1  0.4749600000000  0.5772230000000  0.4499680000000 1.0
C      1  0.4567870000000  0.4771390000000  0.5781500000000 1.0
C      1  0.5546380000000  0.4385330000000  0.5481360000000 1.0
C      1  0.4329890000000  0.5162810000000  0.5400660000000 1.0
C      1  0.5532760000000  0.5619080000000  0.5234160000000 1.0
C      1  0.4894780000000  0.4217350000000  0.5226640000000 1.0
C      1  0.4445450000000  0.4776970000000  0.5033820000000 1.0
C      1  0.5026830000000  0.4880040000000  0.4596900000000 1.0
C      1  0.4988910000000  0.4348700000000  0.4565400000000 1.0
C      1  0.5417970000000  0.5445830000000  0.5684600000000 1.0
C      1  0.4784400000000  0.4961090000000  0.4744650000000 1.0
C      1  0.5665710000000  0.4775960000000  0.5272100000000 1.0
C      1  0.5353890000000  0.4850870000000  0.5274280000000 1.0
C      1  0.4874450000000  0.5454480000000  0.4200420000000 1.0
C      1  0.4560790000000  0.5048410000000  0.5831430000000 1.0
C      1  0.5150350000000  0.4685030000000  0.3924310000000 1.0
C      1  0.5306290000000  0.4229240000000  0.5492120000000 1.0
C      1  0.4239200000000  0.4868660000000  0.5422470000000 1.0
C      1  0.5828900000000  0.4834180000000  0.4846190000000 1.0
C      1  0.5332590000000  0.5068880000000  0.5452840000000 1.0
C      1  0.5798950000000  0.5063200000000  0.4675640000000 1.0
C      1  0.4382520000000  0.4946650000000  0.4339610000000 1.0
C      1  0.4138310000000  0.5104570000000  0.4801960000000 1.0
C      1  0.5687080000000  0.5380220000000  0.5292020000000 1.0
C      1  0.4766660000000  0.5133510000000  0.5170910000000 1.0
C      1  0.4706950000000  0.5399720000000  0.5669100000000 1.0
C      1  0.4838100000000  0.4992860000000  0.5419590000000 1.0
C      1  0.4880760000000  0.4383740000000  0.5699850000000 1.0
C      1  0.4872740000000  0.5400680000000  0.5168260000000 1.0
C      1  0.5289530000000  0.5173360000000  0.4889180000000 1.0
C      1  0.4471820000000  0.5613640000000  0.5220780000000 1.0
C      1  0.4466330000000  0.5243880000000  0.5635880000000 1.0
C      1  0.4749990000000  0.5248550000000  0.4696750000000 1.0
C      1  0.5113610000000  0.4461160000000  0.4338320000000 1.0
C      1  0.5364330000000  0.4624060000000  0.4325780000000 1.0
C      1  0.4925790000000  0.4928840000000  0.5022030000000 1.0
C      1  0.5816040000000  0.5227290000000  0.5095260000000 1.0
C      1  0.4497190000000  0.4793000000000  0.4744100000000 1.0
C      1  0.5668290000000  0.4610540000000  0.4761670000000 1.0
C      1  0.4822320000000  0.4643740000000  0.5824030000000 1.0
C      1  0.5001110000000  0.5882070000000  0.5255000000000 1.0
C      1  0.4746660000000  0.4292560000000  0.5467120000000 1.0
C      1  0.5518650000000  0.4562860000000  0.5695350000000 1.0
C      1  0.5228100000000  0.4921140000000  0.5001590000000 1.0
C      1  0.4548940000000  0.5583270000000  0.4515170000000 1.0
C      1  0.5094400000000  0.4427560000000  0.4842020000000 1.0
C      1  0.5154320000000  0.4340540000000  0.5709580000000 1.0
C      1  0.4971940000000  0.4575110000000  0.4105780000000 1.0
C      1  0.4009610000000  0.4934200000000  0.4984040000000 1.0
C      1  0.4543970000000  0.4554430000000  0.4568970000000 1.0
C      1  0.4293680000000  0.4959240000000  0.4608290000000 1.0
C      1  0.4738150000000  0.4737140000000  0.4124290000000 1.0
C      1  0.5569440000000  0.4705680000000  0.4498410000000 1.0
C      1  0.4635980000000  0.4581370000000  0.5152960000000 1.0
C      1  0.5659960000000  0.4490470000000  0.5239470000000 1.0
C      1  0.5181540000000  0.5687480000000  0.4864970000000 1.0
C      1  0.5363580000000  0.5652630000000  0.5475370000000 1.0
C      1  0.5104150000000  0.5400470000000  0.4961530000000 1.0
C      1  0.5537370000000  0.5255360000000  0.5502690000000 1.0
C      1  0.5606850000000  0.5519550000000  0.4747510000000 1.0
C      1  0.4784380000000  0.5209100000000  0.5877720000000 1.0
C      1  0.5418920000000  0.5191650000000  0.4391910000000 1.0
C      1  0.4979550000000  0.5676970000000  0.4370440000000 1.0
C      1  0.4550880000000  0.5449080000000  0.4792820000000 1.0
END
