TITL C-64414-98-7 -0.165508695836128 125000 -408.441724058086 0 0 58 (C1) n - 1
REM
REM in /rds/project/t2_vol4/rds-t2-cs072/BORA/CARBON/from-Arr/AIRSS/Generating-Clusters/GAP-ML-2020/Only-C1/SD-CG/HFTN-CG
REM
REM
REM
REM
REM
REM ./C.cell (11c1c37f851c82e70ff6c80c92926a4b)
REM AIRSS Version 0.9.1 bugfix July 2018 build 013d7b7c2542+ Fri, 06 Jul 2018 19:26:36 +0100
REM compiler GCC version 9.3.0
REM options -cpp -mtune=generic -march=x86-64 -g -O0
REM seed -1401434955 861201653 1404657659 -2108662174 5173432 785863061 -2032666942 912795802 -129192669 1119897142 -259175159 -1322065012 -191344470 1501297496 -1431865037 81687529 1299583213 -877274879 1098674644 -410071448 -672941627 -1227234868 -745957264 -1827528935 927698551 -427393154 1741656189 -525262729 -329640461 -1847096524 1443502196 2046414319 -77031616
REM
CELL 1.54180   50.00000   50.00000   50.00000   90.00000   90.00000   90.00000
LATT -1
SFAC C  
C      1  0.5298440000000  0.4381020000000  0.5173500000000 1.0
C      1  0.4619060000000  0.5319090000000  0.4476040000000 1.0
C      1  0.4669640000000  0.4486600000000  0.4886650000000 1.0
C      1  0.5557370000000  0.5275280000000  0.5167070000000 1.0
C      1  0.4802890000000  0.5646590000000  0.5043210000000 1.0
C      1  0.5484490000000  0.5376830000000  0.4904490000000 1.0
C      1  0.4480270000000  0.4876440000000  0.5155990000000 1.0
C      1  0.5264900000000  0.4469920000000  0.5439010000000 1.0
C      1  0.5102880000000  0.4352030000000  0.4764090000000 1.0
C      1  0.4939280000000  0.5139110000000  0.4786700000000 1.0
C      1  0.4964140000000  0.4863200000000  0.4769950000000 1.0
C      1  0.5027950000000  0.5557080000000  0.4632140000000 1.0
C      1  0.5463460000000  0.4887570000000  0.5483660000000 1.0
C      1  0.4614480000000  0.4948320000000  0.4205670000000 1.0
C      1  0.5416630000000  0.5214300000000  0.4690380000000 1.0
C      1  0.4451010000000  0.5171020000000  0.4668750000000 1.0
C      1  0.4460300000000  0.5173060000000  0.5154570000000 1.0
C      1  0.4882750000000  0.4696360000000  0.4512590000000 1.0
C      1  0.5001340000000  0.5201320000000  0.5061860000000 1.0
C      1  0.5502620000000  0.4939870000000  0.4732350000000 1.0
C      1  0.4610170000000  0.5553970000000  0.4860850000000 1.0
C      1  0.4763800000000  0.5559820000000  0.5310710000000 1.0
C      1  0.5067190000000  0.5650220000000  0.4902910000000 1.0
C      1  0.4769480000000  0.5150470000000  0.4304280000000 1.0
C      1  0.4443860000000  0.5319420000000  0.4909160000000 1.0
C      1  0.4961640000000  0.5565510000000  0.5513620000000 1.0
C      1  0.4859180000000  0.4450150000000  0.4663240000000 1.0
C      1  0.5463140000000  0.4545860000000  0.4985670000000 1.0
C      1  0.5231770000000  0.4983120000000  0.5645580000000 1.0
C      1  0.5180780000000  0.5253770000000  0.5687630000000 1.0
C      1  0.5118280000000  0.4837830000000  0.4342780000000 1.0
C      1  0.4503350000000  0.4731420000000  0.4901770000000 1.0
C      1  0.5571700000000  0.4999010000000  0.5225210000000 1.0
C      1  0.5051090000000  0.4766670000000  0.5022080000000 1.0
C      1  0.5555310000000  0.4826030000000  0.4992930000000 1.0
C      1  0.5409930000000  0.4722680000000  0.4557210000000 1.0
C      1  0.4738570000000  0.5534740000000  0.4603330000000 1.0
C      1  0.4730860000000  0.4913130000000  0.5585640000000 1.0
C      1  0.4994060000000  0.4809160000000  0.5649630000000 1.0
C      1  0.5074050000000  0.4981980000000  0.5191120000000 1.0
C      1  0.5158570000000  0.5290380000000  0.4563960000000 1.0
C      1  0.4586410000000  0.5325690000000  0.5361130000000 1.0
C      1  0.5005930000000  0.4554830000000  0.5524800000000 1.0
C      1  0.5363750000000  0.4730400000000  0.4279640000000 1.0
C      1  0.5050870000000  0.5125640000000  0.4346480000000 1.0
C      1  0.5249770000000  0.5495970000000  0.5518960000000 1.0
C      1  0.4625790000000  0.4803710000000  0.4431760000000 1.0
C      1  0.5312100000000  0.5585910000000  0.5022430000000 1.0
C      1  0.4795380000000  0.4373750000000  0.5118730000000 1.0
C      1  0.5067550000000  0.4287740000000  0.5039030000000 1.0
C      1  0.5350020000000  0.4497420000000  0.4730910000000 1.0
C      1  0.4771220000000  0.4514540000000  0.5363120000000 1.0
C      1  0.5397210000000  0.5492430000000  0.5287440000000 1.0
C      1  0.4608270000000  0.4752870000000  0.5382640000000 1.0
C      1  0.4908580000000  0.5341750000000  0.5692180000000 1.0
C      1  0.4469960000000  0.4885420000000  0.4664770000000 1.0
C      1  0.4695180000000  0.5190880000000  0.5588370000000 1.0
C      1  0.5481320000000  0.4620670000000  0.5519620000000 1.0
END
