TITL C-64402-91-8 -305.312489355186 125000 -606.296664532271 0 0 84 (C1) n - 1
REM
REM in /rds/project/t2_vol4/rds-t2-cs072/BORA/CARBON/from-Arr/AIRSS/Generating-Clusters/GAP-ML-2020/Only-C1/SD-CG/HFTN-CG
REM
REM
REM
REM
REM
REM ./C.cell (11c1c37f851c82e70ff6c80c92926a4b)
REM AIRSS Version 0.9.1 bugfix July 2018 build 013d7b7c2542+ Fri, 06 Jul 2018 19:26:36 +0100
REM compiler GCC version 9.3.0
REM options -cpp -mtune=generic -march=x86-64 -g -O0
REM seed 1114209092 -1141796238 -2084256790 407625931 -1073881569 1391207413 -1584309552 -1546189531 2042372200 339289774 -1880012230 1080483721 341284685 -1529963230 -1218713346 -1697103754 2071146211 2116279964 1501737604 -1712818230 109121524 962616918 2134767131 136705115 -2028574876 -1171070951 -961122213 -1415123907 -1106781354 -1527413117 1065139776 2125663107 2100191511
REM
CELL 1.54180   50.00000   50.00000   50.00000   90.00000   90.00000   90.00000
LATT -1
SFAC C  
C      1  0.4583480000000  0.4629060000000  0.4716940000000 1.0
C      1  0.5068740000000  0.4594740000000  0.4333080000000 1.0
C      1  0.4588250000000  0.5741140000000  0.4762200000000 1.0
C      1  0.4479280000000  0.5280660000000  0.5537570000000 1.0
C      1  0.5361860000000  0.4701050000000  0.5728300000000 1.0
C      1  0.4521850000000  0.5424310000000  0.4440570000000 1.0
C      1  0.5522110000000  0.5163900000000  0.5576010000000 1.0
C      1  0.5294570000000  0.5492450000000  0.4462580000000 1.0
C      1  0.5689890000000  0.5305220000000  0.4731190000000 1.0
C      1  0.5434240000000  0.5405110000000  0.5427880000000 1.0
C      1  0.4950800000000  0.5468420000000  0.5498710000000 1.0
C      1  0.4380120000000  0.4469110000000  0.5093400000000 1.0
C      1  0.5045930000000  0.5372750000000  0.4337820000000 1.0
C      1  0.4947030000000  0.4973420000000  0.5325700000000 1.0
C      1  0.5559290000000  0.4653360000000  0.4463970000000 1.0
C      1  0.5650130000000  0.4587400000000  0.5324360000000 1.0
C      1  0.5832830000000  0.4838580000000  0.4953930000000 1.0
C      1  0.4988630000000  0.4867670000000  0.4685840000000 1.0
C      1  0.5213010000000  0.4351210000000  0.5454250000000 1.0
C      1  0.4212060000000  0.4902010000000  0.4991270000000 1.0
C      1  0.4809840000000  0.5743440000000  0.4577030000000 1.0
C      1  0.4551350000000  0.4614490000000  0.5600870000000 1.0
C      1  0.4974200000000  0.5814550000000  0.5005960000000 1.0
C      1  0.5443750000000  0.4321710000000  0.4897340000000 1.0
C      1  0.5331480000000  0.4701370000000  0.4292440000000 1.0
C      1  0.4898250000000  0.4841860000000  0.4396820000000 1.0
C      1  0.5316350000000  0.4981350000000  0.4226900000000 1.0
C      1  0.4359390000000  0.4821100000000  0.5490130000000 1.0
C      1  0.4928400000000  0.4838180000000  0.5866230000000 1.0
C      1  0.5057600000000  0.5092160000000  0.4260270000000 1.0
C      1  0.4804210000000  0.4783160000000  0.4872050000000 1.0
C      1  0.5592180000000  0.4474510000000  0.4683830000000 1.0
C      1  0.5618200000000  0.5461520000000  0.4962770000000 1.0
C      1  0.4406250000000  0.5544940000000  0.4678330000000 1.0
C      1  0.5199370000000  0.5571590000000  0.5388640000000 1.0
C      1  0.4331570000000  0.4654530000000  0.4904520000000 1.0
C      1  0.4799700000000  0.5517100000000  0.4400760000000 1.0
C      1  0.5035520000000  0.5810030000000  0.4725670000000 1.0
C      1  0.5770080000000  0.4851100000000  0.5242160000000 1.0
C      1  0.4683490000000  0.5770840000000  0.5030310000000 1.0
C      1  0.4608010000000  0.4759910000000  0.4447930000000 1.0
C      1  0.4603700000000  0.4308560000000  0.5054070000000 1.0
C      1  0.4664890000000  0.5499370000000  0.5454750000000 1.0
C      1  0.5448860000000  0.4522530000000  0.5518470000000 1.0
C      1  0.5718720000000  0.5105060000000  0.5363920000000 1.0
C      1  0.5532480000000  0.5340660000000  0.4486760000000 1.0
C      1  0.5046800000000  0.5275030000000  0.4894470000000 1.0
C      1  0.5169190000000  0.4249740000000  0.4941100000000 1.0
C      1  0.5779020000000  0.4572020000000  0.4879600000000 1.0
C      1  0.5794100000000  0.5029780000000  0.4734980000000 1.0
C      1  0.4538340000000  0.5619890000000  0.5224300000000 1.0
C      1  0.4312890000000  0.5456370000000  0.5141240000000 1.0
C      1  0.4281970000000  0.5247060000000  0.5333040000000 1.0
C      1  0.4972000000000  0.5193980000000  0.5569270000000 1.0
C      1  0.5183030000000  0.5044810000000  0.4802520000000 1.0
C      1  0.5075610000000  0.4258560000000  0.5212560000000 1.0
C      1  0.4192860000000  0.5119570000000  0.4808210000000 1.0
C      1  0.5693540000000  0.4908590000000  0.4491970000000 1.0
C      1  0.4791930000000  0.4285970000000  0.5263810000000 1.0
C      1  0.5370650000000  0.4991290000000  0.5748200000000 1.0
C      1  0.4770770000000  0.4969990000000  0.5100120000000 1.0
C      1  0.5026400000000  0.4366570000000  0.4471810000000 1.0
C      1  0.4699490000000  0.4361140000000  0.4793480000000 1.0
C      1  0.5642410000000  0.4424170000000  0.5091610000000 1.0
C      1  0.4204660000000  0.5062080000000  0.4527680000000 1.0
C      1  0.5404640000000  0.5647610000000  0.4930770000000 1.0
C      1  0.4743570000000  0.4413590000000  0.5517120000000 1.0
C      1  0.5091510000000  0.5069580000000  0.5794600000000 1.0
C      1  0.4378360000000  0.5199160000000  0.4354520000000 1.0
C      1  0.4391440000000  0.4915410000000  0.4373140000000 1.0
C      1  0.5294410000000  0.4904290000000  0.5004950000000 1.0
C      1  0.5636360000000  0.5353290000000  0.5225020000000 1.0
C      1  0.5003600000000  0.4418410000000  0.5637010000000 1.0
C      1  0.4256840000000  0.5393290000000  0.4870120000000 1.0
C      1  0.5209850000000  0.5715400000000  0.5139030000000 1.0
C      1  0.5279050000000  0.5682240000000  0.4674440000000 1.0
C      1  0.5163330000000  0.4860640000000  0.5221410000000 1.0
C      1  0.4486460000000  0.5023120000000  0.5663010000000 1.0
C      1  0.4659300000000  0.4821360000000  0.5780980000000 1.0
C      1  0.4802700000000  0.5209370000000  0.4962260000000 1.0
C      1  0.5545340000000  0.5100560000000  0.4341120000000 1.0
C      1  0.5095310000000  0.4619210000000  0.5809770000000 1.0
C      1  0.4967210000000  0.4282890000000  0.4722420000000 1.0
C      1  0.4233130000000  0.4966790000000  0.5273810000000 1.0
END
