TITL C-64431-9034-4 194.567629839037 125000 -1111.06489502754 0 0 157 (C1) n - 1
REM
REM in /rds/project/t2_vol4/rds-t2-cs072/BORA/CARBON/from-Arr/AIRSS/Generating-Clusters/GAP-ML-2020/Only-C1/SD-CG/HFTN-CG
REM
REM
REM
REM
REM
REM ./C.cell (11c1c37f851c82e70ff6c80c92926a4b)
REM AIRSS Version 0.9.1 bugfix July 2018 build 013d7b7c2542+ Fri, 06 Jul 2018 19:26:36 +0100
REM compiler GCC version 9.3.0
REM options -cpp -mtune=generic -march=x86-64 -g -O0
REM seed -309469472 1345421129 -1489276738 -152384230 1056402347 646237470 -1973171378 518037265 535008643 1804557440 -776980405 -785362454 768873529 1437468428 -1792322116 453021761 47916358 -586616858 1068825382 1312367158 -136462986 1496088400 1011006040 295647761 1837382269 -1025617442 -1034923454 -1764736781 692807984 -1662243722 -1846412537 426113883 -825607449
REM
CELL 1.54180   50.00000   50.00000   50.00000   90.00000   90.00000   90.00000
LATT -1
SFAC C  
C      1  0.4852950000000  0.5070920000000  0.5220240000000 1.0
C      1  0.4528800000000  0.5248540000000  0.4979140000000 1.0
C      1  0.5594700000000  0.4159450000000  0.5095090000000 1.0
C      1  0.4717520000000  0.4328660000000  0.5043410000000 1.0
C      1  0.5914300000000  0.4934970000000  0.5421530000000 1.0
C      1  0.4300250000000  0.5734610000000  0.5188470000000 1.0
C      1  0.4649970000000  0.4955700000000  0.5578310000000 1.0
C      1  0.5568560000000  0.5705030000000  0.4650770000000 1.0
C      1  0.4831370000000  0.5543740000000  0.5215720000000 1.0
C      1  0.5309660000000  0.5565680000000  0.5434560000000 1.0
C      1  0.4661150000000  0.4335290000000  0.5743800000000 1.0
C      1  0.5161100000000  0.5866150000000  0.4876030000000 1.0
C      1  0.4556360000000  0.5235040000000  0.5530280000000 1.0
C      1  0.5036840000000  0.4818980000000  0.6116540000000 1.0
C      1  0.4201590000000  0.5237810000000  0.4403210000000 1.0
C      1  0.4132560000000  0.5500750000000  0.5119670000000 1.0
C      1  0.4931880000000  0.5153190000000  0.4365740000000 1.0
C      1  0.4920310000000  0.6011340000000  0.5015680000000 1.0
C      1  0.4947390000000  0.5244420000000  0.5932950000000 1.0
C      1  0.5468570000000  0.4288780000000  0.5351430000000 1.0
C      1  0.5545660000000  0.4857810000000  0.4095260000000 1.0
C      1  0.5778010000000  0.4687030000000  0.5353950000000 1.0
C      1  0.4851450000000  0.4037680000000  0.5434440000000 1.0
C      1  0.4230890000000  0.4790020000000  0.5541190000000 1.0
C      1  0.3909870000000  0.4816860000000  0.4907200000000 1.0
C      1  0.5268830000000  0.5294270000000  0.5316320000000 1.0
C      1  0.4323610000000  0.5055590000000  0.4867140000000 1.0
C      1  0.5235230000000  0.4447780000000  0.5160570000000 1.0
C      1  0.4819700000000  0.4054970000000  0.4661060000000 1.0
C      1  0.5078250000000  0.4691380000000  0.5237460000000 1.0
C      1  0.5258820000000  0.5529650000000  0.4298890000000 1.0
C      1  0.5699010000000  0.4741990000000  0.5066250000000 1.0
C      1  0.5593210000000  0.4519990000000  0.5494850000000 1.0
C      1  0.5605230000000  0.5050850000000  0.5068360000000 1.0
C      1  0.6046510000000  0.5079210000000  0.5209660000000 1.0
C      1  0.5099050000000  0.4456320000000  0.4712940000000 1.0
C      1  0.5463990000000  0.5324260000000  0.4232510000000 1.0
C      1  0.4906770000000  0.5073850000000  0.5676520000000 1.0
C      1  0.4612310000000  0.4202330000000  0.4777690000000 1.0
C      1  0.4695880000000  0.4949800000000  0.4013600000000 1.0
C      1  0.4235280000000  0.4998570000000  0.4241370000000 1.0
C      1  0.5004000000000  0.4561220000000  0.6007420000000 1.0
C      1  0.5150460000000  0.4214520000000  0.5722730000000 1.0
C      1  0.5292600000000  0.4695310000000  0.4786490000000 1.0
C      1  0.3970860000000  0.4572100000000  0.4762250000000 1.0
C      1  0.5179560000000  0.3884280000000  0.5086120000000 1.0
C      1  0.4469000000000  0.4906860000000  0.4645250000000 1.0
C      1  0.4912900000000  0.5473810000000  0.4724890000000 1.0
C      1  0.4100200000000  0.5285300000000  0.5324290000000 1.0
C      1  0.4117950000000  0.5487940000000  0.4828180000000 1.0
C      1  0.5479560000000  0.5811100000000  0.4903790000000 1.0
C      1  0.5577810000000  0.5518900000000  0.5752640000000 1.0
C      1  0.4667280000000  0.5297260000000  0.5243790000000 1.0
C      1  0.4833170000000  0.4281530000000  0.4215760000000 1.0
C      1  0.5913750000000  0.5334450000000  0.4784810000000 1.0
C      1  0.4816020000000  0.4984420000000  0.6059160000000 1.0
C      1  0.4444290000000  0.5763290000000  0.5432860000000 1.0
C      1  0.4725440000000  0.4536230000000  0.5937310000000 1.0
C      1  0.4753860000000  0.5778400000000  0.5422980000000 1.0
C      1  0.4293910000000  0.4532990000000  0.5414380000000 1.0
C      1  0.5769780000000  0.5519470000000  0.5255500000000 1.0
C      1  0.5731340000000  0.4799450000000  0.4305380000000 1.0
C      1  0.4610290000000  0.4467240000000  0.4230110000000 1.0
C      1  0.5399050000000  0.5819600000000  0.5332270000000 1.0
C      1  0.5033210000000  0.4011510000000  0.4861790000000 1.0
C      1  0.6097370000000  0.4886440000000  0.4819040000000 1.0
C      1  0.5634070000000  0.4349930000000  0.4892240000000 1.0
C      1  0.5290660000000  0.4026760000000  0.4713240000000 1.0
C      1  0.4974070000000  0.5099100000000  0.4957940000000 1.0
C      1  0.4615070000000  0.4682810000000  0.4769070000000 1.0
C      1  0.3907380000000  0.4989840000000  0.4680010000000 1.0
C      1  0.4100730000000  0.5224010000000  0.4681630000000 1.0
C      1  0.5733010000000  0.5120870000000  0.5548270000000 1.0
C      1  0.4743790000000  0.5252200000000  0.4785550000000 1.0
C      1  0.4659500000000  0.5133500000000  0.4524010000000 1.0
C      1  0.5357180000000  0.5752040000000  0.4466050000000 1.0
C      1  0.4666780000000  0.5977280000000  0.4878860000000 1.0
C      1  0.5040060000000  0.5597900000000  0.4096540000000 1.0
C      1  0.4607490000000  0.4794680000000  0.5950130000000 1.0
C      1  0.5175450000000  0.5981180000000  0.5434160000000 1.0
C      1  0.4253450000000  0.5342350000000  0.5540700000000 1.0
C      1  0.5056520000000  0.4816010000000  0.4921690000000 1.0
C      1  0.5464040000000  0.4570440000000  0.4983050000000 1.0
C      1  0.5299580000000  0.4107180000000  0.5505760000000 1.0
C      1  0.5067900000000  0.5104140000000  0.5442730000000 1.0
C      1  0.6236350000000  0.4976860000000  0.5045030000000 1.0
C      1  0.5336290000000  0.5651920000000  0.5703080000000 1.0
C      1  0.5478620000000  0.4845330000000  0.5893430000000 1.0
C      1  0.4900640000000  0.5908400000000  0.4446520000000 1.0
C      1  0.5056830000000  0.5387610000000  0.4487510000000 1.0
C      1  0.5442260000000  0.4651170000000  0.3951580000000 1.0
C      1  0.4404890000000  0.5848350000000  0.4948050000000 1.0
C      1  0.5629500000000  0.5071400000000  0.5819120000000 1.0
C      1  0.4426810000000  0.4854450000000  0.5743290000000 1.0
C      1  0.4458620000000  0.5763800000000  0.4509950000000 1.0
C      1  0.4960200000000  0.5388710000000  0.3933180000000 1.0
C      1  0.5172210000000  0.4974530000000  0.4400390000000 1.0
C      1  0.5428440000000  0.4385000000000  0.4335410000000 1.0
C      1  0.4666710000000  0.5943790000000  0.4600460000000 1.0
C      1  0.4300160000000  0.4592940000000  0.5118780000000 1.0
C      1  0.5411330000000  0.5152820000000  0.4856880000000 1.0
C      1  0.4204680000000  0.4452610000000  0.4863240000000 1.0
C      1  0.5237100000000  0.5215170000000  0.6019520000000 1.0
C      1  0.4495660000000  0.4348560000000  0.5502960000000 1.0
C      1  0.5836080000000  0.5050190000000  0.4416200000000 1.0
C      1  0.4875370000000  0.5739160000000  0.5706100000000 1.0
C      1  0.4134030000000  0.4990050000000  0.5339940000000 1.0
C      1  0.5336360000000  0.4948260000000  0.4661220000000 1.0
C      1  0.4892990000000  0.4674930000000  0.4670600000000 1.0
C      1  0.5281280000000  0.4941870000000  0.6073490000000 1.0
C      1  0.4468640000000  0.5083210000000  0.4108520000000 1.0
C      1  0.4810650000000  0.5509030000000  0.5868750000000 1.0
C      1  0.4829070000000  0.5724280000000  0.4238090000000 1.0
C      1  0.3994000000000  0.4756700000000  0.4534240000000 1.0
C      1  0.5132740000000  0.5852450000000  0.5695390000000 1.0
C      1  0.4389220000000  0.4494560000000  0.4389820000000 1.0
C      1  0.4928910000000  0.5996810000000  0.5299100000000 1.0
C      1  0.5366240000000  0.5067190000000  0.4176920000000 1.0
C      1  0.4768550000000  0.4792800000000  0.5285040000000 1.0
C      1  0.4356500000000  0.5592230000000  0.5638510000000 1.0
C      1  0.5113000000000  0.3954090000000  0.5346640000000 1.0
C      1  0.5148250000000  0.5900590000000  0.4581070000000 1.0
C      1  0.4156670000000  0.4868600000000  0.5074250000000 1.0
C      1  0.5029880000000  0.4314680000000  0.4970090000000 1.0
C      1  0.4564780000000  0.5606600000000  0.4299390000000 1.0
C      1  0.4481550000000  0.5317720000000  0.4325540000000 1.0
C      1  0.5610560000000  0.5759330000000  0.5151020000000 1.0
C      1  0.4968130000000  0.4768500000000  0.4395750000000 1.0
C      1  0.4602670000000  0.4622120000000  0.5070130000000 1.0
C      1  0.5670390000000  0.4531190000000  0.4427680000000 1.0
C      1  0.5476680000000  0.5066720000000  0.5339240000000 1.0
C      1  0.5497600000000  0.5300640000000  0.5915480000000 1.0
C      1  0.5707880000000  0.5310540000000  0.4374050000000 1.0
C      1  0.5856680000000  0.5289970000000  0.5082280000000 1.0
C      1  0.4284660000000  0.5705980000000  0.4730770000000 1.0
C      1  0.5994060000000  0.5093630000000  0.4650020000000 1.0
C      1  0.4651170000000  0.4194350000000  0.5303460000000 1.0
C      1  0.5250570000000  0.4857680000000  0.5429680000000 1.0
C      1  0.5234070000000  0.4239830000000  0.4515770000000 1.0
C      1  0.5756690000000  0.5487380000000  0.4600660000000 1.0
C      1  0.4262070000000  0.4770230000000  0.4423180000000 1.0
C      1  0.4567850000000  0.5439860000000  0.5761180000000 1.0
C      1  0.5200110000000  0.5305330000000  0.5014670000000 1.0
C      1  0.5001150000000  0.4468120000000  0.4072560000000 1.0
C      1  0.4806610000000  0.4694190000000  0.4144720000000 1.0
C      1  0.4874780000000  0.4152290000000  0.5691060000000 1.0
C      1  0.5791660000000  0.4477650000000  0.4685350000000 1.0
C      1  0.5899260000000  0.4681560000000  0.4852080000000 1.0
C      1  0.4876460000000  0.5166910000000  0.4051160000000 1.0
C      1  0.5034690000000  0.5559530000000  0.4973240000000 1.0
C      1  0.5749960000000  0.5425880000000  0.5527720000000 1.0
C      1  0.5292670000000  0.4472000000000  0.4090460000000 1.0
C      1  0.5430830000000  0.3979150000000  0.4962640000000 1.0
C      1  0.5208340000000  0.4464330000000  0.5831540000000 1.0
C      1  0.4956860000000  0.4133380000000  0.4420650000000 1.0
C      1  0.5387800000000  0.4655440000000  0.5682020000000 1.0
C      1  0.4421290000000  0.4391780000000  0.4671860000000 1.0
END
