TITL C-64419-8917-6 59.50421975672 125000 -230.802385953175 0 0 35 (C1) n - 1
REM
REM in /rds/project/t2_vol4/rds-t2-cs072/BORA/CARBON/from-Arr/AIRSS/Generating-Clusters/GAP-ML-2020/Only-C1/SD-CG/HFTN-CG
REM
REM
REM
REM
REM
REM ./C.cell (11c1c37f851c82e70ff6c80c92926a4b)
REM AIRSS Version 0.9.1 bugfix July 2018 build 013d7b7c2542+ Fri, 06 Jul 2018 19:26:36 +0100
REM compiler GCC version 9.3.0
REM options -cpp -mtune=generic -march=x86-64 -g -O0
REM seed 1246038767 -823266857 940754522 323867246 714132098 920635448 -1713963186 -392598177 -1012254127 1875753828 132697868 171789249 549764050 1433813904 -263832387 713458631 951436216 112597171 473794730 -199336720 -991732221 1579487585 1274088948 -124377905 -525412281 1755077740 906207088 747560861 427723403 1065972134 -484332749 -1732684837 1704259613
REM
CELL 1.54180   50.00000   50.00000   50.00000   90.00000   90.00000   90.00000
LATT -1
SFAC C  
C      1  0.5412920000000  0.5376540000000  0.5009630000000 1.0
C      1  0.5177590000000  0.4699670000000  0.5082610000000 1.0
C      1  0.5230750000000  0.4885710000000  0.4544950000000 1.0
C      1  0.4800660000000  0.4967870000000  0.5016110000000 1.0
C      1  0.4965280000000  0.4823600000000  0.4620290000000 1.0
C      1  0.4868890000000  0.5439250000000  0.4825260000000 1.0
C      1  0.5046790000000  0.4441120000000  0.5245570000000 1.0
C      1  0.4869680000000  0.4302910000000  0.5086180000000 1.0
C      1  0.5426470000000  0.4733850000000  0.4665050000000 1.0
C      1  0.4939850000000  0.4730990000000  0.4903320000000 1.0
C      1  0.4738510000000  0.4937710000000  0.5307320000000 1.0
C      1  0.4456820000000  0.4747900000000  0.4796510000000 1.0
C      1  0.4596840000000  0.5463140000000  0.4927940000000 1.0
C      1  0.4546600000000  0.5338160000000  0.5170580000000 1.0
C      1  0.4924910000000  0.5270040000000  0.4582110000000 1.0
C      1  0.5467830000000  0.5245450000000  0.5256670000000 1.0
C      1  0.4575110000000  0.5002460000000  0.4816440000000 1.0
C      1  0.4764320000000  0.4491360000000  0.4914830000000 1.0
C      1  0.5055600000000  0.5652080000000  0.4870850000000 1.0
C      1  0.5141050000000  0.4895030000000  0.5303610000000 1.0
C      1  0.5682560000000  0.5061990000000  0.5243880000000 1.0
C      1  0.4447480000000  0.5232680000000  0.4934800000000 1.0
C      1  0.4953510000000  0.4510360000000  0.5492830000000 1.0
C      1  0.4496150000000  0.4499740000000  0.4794070000000 1.0
C      1  0.4718980000000  0.5223080000000  0.5359220000000 1.0
C      1  0.5451320000000  0.4710350000000  0.4942570000000 1.0
C      1  0.4991750000000  0.5301310000000  0.5297530000000 1.0
C      1  0.5224100000000  0.5160000000000  0.5374770000000 1.0
C      1  0.4918970000000  0.4778130000000  0.5444530000000 1.0
C      1  0.4780250000000  0.5038900000000  0.4594330000000 1.0
C      1  0.5196250000000  0.5166480000000  0.4608600000000 1.0
C      1  0.5292180000000  0.5612550000000  0.4959810000000 1.0
C      1  0.5627620000000  0.4857630000000  0.5103180000000 1.0
C      1  0.4974170000000  0.5223150000000  0.5009010000000 1.0
C      1  0.5238230000000  0.5178790000000  0.4895030000000 1.0
END
