TITL C-64409-8931-3 21.5271253215323 125000 -567.122425452733 0 0 81 (C1) n - 1
REM
REM in /rds/project/t2_vol4/rds-t2-cs072/BORA/CARBON/from-Arr/AIRSS/Generating-Clusters/GAP-ML-2020/Only-C1/SD-CG/HFTN-CG
REM
REM
REM
REM
REM
REM ./C.cell (11c1c37f851c82e70ff6c80c92926a4b)
REM AIRSS Version 0.9.1 bugfix July 2018 build 013d7b7c2542+ Fri, 06 Jul 2018 19:26:36 +0100
REM compiler GCC version 9.3.0
REM options -cpp -mtune=generic -march=x86-64 -g -O0
REM seed -2097694001 -799831345 -404510249 1782048388 722144982 598889437 38411574 -44051694 111952947 1646603995 917008725 533228867 1552786687 -1351215109 1670224628 346311938 1533720991 1675422490 -1126825542 -138596435 1456970902 -1778417788 -1157620689 2317880 1451384087 357372745 -1790568868 895096419 -1803677958 -322609023 -922694323 -1045597377 76370522
REM
CELL 1.54180   50.00000   50.00000   50.00000   90.00000   90.00000   90.00000
LATT -1
SFAC C  
C      1  0.5753000000000  0.5088590000000  0.4790150000000 1.0
C      1  0.4935950000000  0.5509570000000  0.4334380000000 1.0
C      1  0.5019050000000  0.5358280000000  0.4869730000000 1.0
C      1  0.4412450000000  0.4549110000000  0.4751710000000 1.0
C      1  0.4551450000000  0.5275290000000  0.5787820000000 1.0
C      1  0.4949850000000  0.5506660000000  0.5489020000000 1.0
C      1  0.5165140000000  0.4818500000000  0.5321500000000 1.0
C      1  0.5526940000000  0.5511020000000  0.4930160000000 1.0
C      1  0.5838070000000  0.4833680000000  0.4880430000000 1.0
C      1  0.5560720000000  0.4855630000000  0.5522550000000 1.0
C      1  0.5412870000000  0.5569490000000  0.5410670000000 1.0
C      1  0.4500090000000  0.4975700000000  0.5779410000000 1.0
C      1  0.5421110000000  0.4439640000000  0.5210720000000 1.0
C      1  0.4353520000000  0.5233430000000  0.4540350000000 1.0
C      1  0.4736970000000  0.5335420000000  0.4250290000000 1.0
C      1  0.5428530000000  0.5100890000000  0.5576230000000 1.0
C      1  0.5562450000000  0.5327420000000  0.5456840000000 1.0
C      1  0.5360700000000  0.4627110000000  0.5444420000000 1.0
C      1  0.4734210000000  0.5127680000000  0.5239440000000 1.0
C      1  0.4325430000000  0.4812560000000  0.4704770000000 1.0
C      1  0.4928270000000  0.4400060000000  0.5226980000000 1.0
C      1  0.4778070000000  0.5054640000000  0.4210180000000 1.0
C      1  0.5143730000000  0.5051360000000  0.5513840000000 1.0
C      1  0.5369580000000  0.5646120000000  0.5137440000000 1.0
C      1  0.4496560000000  0.5520380000000  0.4877380000000 1.0
C      1  0.5187020000000  0.4518090000000  0.4331540000000 1.0
C      1  0.4623770000000  0.4442920000000  0.4591060000000 1.0
C      1  0.4521140000000  0.5330590000000  0.5303770000000 1.0
C      1  0.5156510000000  0.5229830000000  0.5082780000000 1.0
C      1  0.5115640000000  0.4309560000000  0.4791790000000 1.0
C      1  0.5099570000000  0.5711450000000  0.5054590000000 1.0
C      1  0.4890640000000  0.5658910000000  0.4563170000000 1.0
C      1  0.4705040000000  0.4353060000000  0.5038600000000 1.0
C      1  0.4611490000000  0.5599950000000  0.4626790000000 1.0
C      1  0.5154450000000  0.4525310000000  0.5639530000000 1.0
C      1  0.4359750000000  0.4961250000000  0.4465870000000 1.0
C      1  0.5718090000000  0.5299580000000  0.4987310000000 1.0
C      1  0.4855330000000  0.5193350000000  0.4708570000000 1.0
C      1  0.5664210000000  0.4511490000000  0.5088750000000 1.0
C      1  0.5000770000000  0.5233880000000  0.5324490000000 1.0
C      1  0.4735780000000  0.4846500000000  0.5654400000000 1.0
C      1  0.4817520000000  0.5322300000000  0.5714230000000 1.0
C      1  0.4684570000000  0.4851270000000  0.5343520000000 1.0
C      1  0.4724810000000  0.5036230000000  0.4934320000000 1.0
C      1  0.4891060000000  0.4797970000000  0.4934220000000 1.0
C      1  0.5825290000000  0.4747160000000  0.5155610000000 1.0
C      1  0.4232300000000  0.4822240000000  0.5400820000000 1.0
C      1  0.5249470000000  0.4963260000000  0.5050110000000 1.0
C      1  0.4911730000000  0.4705610000000  0.5218680000000 1.0
C      1  0.4406010000000  0.4983200000000  0.4928610000000 1.0
C      1  0.5095830000000  0.5620180000000  0.4771990000000 1.0
C      1  0.4569520000000  0.4872960000000  0.4300300000000 1.0
C      1  0.5356540000000  0.5247260000000  0.4546430000000 1.0
C      1  0.5738930000000  0.5217020000000  0.5263090000000 1.0
C      1  0.4932120000000  0.5066150000000  0.5705440000000 1.0
C      1  0.5716000000000  0.4578200000000  0.4806370000000 1.0
C      1  0.4379420000000  0.5287780000000  0.5546330000000 1.0
C      1  0.4419860000000  0.4777440000000  0.5188110000000 1.0
C      1  0.5199030000000  0.5604930000000  0.5573850000000 1.0
C      1  0.4820580000000  0.4324270000000  0.4776530000000 1.0
C      1  0.4863830000000  0.5664680000000  0.5227040000000 1.0
C      1  0.5098150000000  0.5065990000000  0.4577410000000 1.0
C      1  0.5183420000000  0.4341010000000  0.5075180000000 1.0
C      1  0.5763360000000  0.4932180000000  0.5345280000000 1.0
C      1  0.4289670000000  0.5006050000000  0.5583450000000 1.0
C      1  0.5521630000000  0.4816330000000  0.4438480000000 1.0
C      1  0.4884840000000  0.4584560000000  0.5705780000000 1.0
C      1  0.4344230000000  0.5271690000000  0.4820960000000 1.0
C      1  0.4605230000000  0.5562340000000  0.5141090000000 1.0
C      1  0.5307810000000  0.4787630000000  0.4263010000000 1.0
C      1  0.5582300000000  0.5073670000000  0.4557330000000 1.0
C      1  0.5354410000000  0.5487610000000  0.4702650000000 1.0
C      1  0.4474540000000  0.4519890000000  0.5028900000000 1.0
C      1  0.4677740000000  0.4608380000000  0.4362550000000 1.0
C      1  0.5294410000000  0.4403860000000  0.4573580000000 1.0
C      1  0.4939950000000  0.4632390000000  0.4286310000000 1.0
C      1  0.5040530000000  0.4930750000000  0.4291660000000 1.0
C      1  0.5540520000000  0.4564630000000  0.4596420000000 1.0
C      1  0.4939740000000  0.4382760000000  0.5525280000000 1.0
C      1  0.5140590000000  0.4862610000000  0.4810200000000 1.0
C      1  0.4518580000000  0.5421640000000  0.4419450000000 1.0
END
