TITL C-64427-8975-3 -3.88766084353685 125000 -258.535124526312 0 0 40 (C1) n - 1
REM
REM in /rds/project/t2_vol4/rds-t2-cs072/BORA/CARBON/from-Arr/AIRSS/Generating-Clusters/GAP-ML-2020/Only-C1/SD-CG/HFTN-CG
REM
REM
REM
REM
REM
REM ./C.cell (11c1c37f851c82e70ff6c80c92926a4b)
REM AIRSS Version 0.9.1 bugfix July 2018 build 013d7b7c2542+ Fri, 06 Jul 2018 19:26:36 +0100
REM compiler GCC version 9.3.0
REM options -cpp -mtune=generic -march=x86-64 -g -O0
REM seed -353350146 816098250 1963786581 1279036532 -239695384 -1966560038 -94441520 -1812748950 1661815566 1002194727 -472338751 -1298992568 -846738737 277788923 1831969752 -1909036070 -1115783821 -1978561783 -1621571740 428921300 -1888488154 -535550385 -556064345 -945799636 -1385764747 2041831451 3246504 497047279 -396955538 1810686803 1054956874 888522869 -639193819
REM
CELL 1.54180   50.00000   50.00000   50.00000   90.00000   90.00000   90.00000
LATT -1
SFAC C  
C      1  0.4930390000000  0.5130340000000  0.4697850000000 1.0
C      1  0.5377550000000  0.4808100000000  0.4753150000000 1.0
C      1  0.4292120000000  0.4866640000000  0.4816140000000 1.0
C      1  0.5158550000000  0.4674960000000  0.4634380000000 1.0
C      1  0.4655220000000  0.4747550000000  0.4602150000000 1.0
C      1  0.4976340000000  0.5680560000000  0.5126100000000 1.0
C      1  0.4419110000000  0.4720390000000  0.5012020000000 1.0
C      1  0.5278660000000  0.4731050000000  0.5698500000000 1.0
C      1  0.4673900000000  0.5295030000000  0.5447010000000 1.0
C      1  0.5438000000000  0.5068140000000  0.4757980000000 1.0
C      1  0.5495610000000  0.5472930000000  0.5069340000000 1.0
C      1  0.5104550000000  0.5277790000000  0.4486410000000 1.0
C      1  0.4931240000000  0.4831490000000  0.4547340000000 1.0
C      1  0.4981340000000  0.4405090000000  0.5168650000000 1.0
C      1  0.5080850000000  0.4854690000000  0.5173840000000 1.0
C      1  0.5336350000000  0.5310300000000  0.4898130000000 1.0
C      1  0.4834860000000  0.5773000000000  0.4935110000000 1.0
C      1  0.5044220000000  0.5202560000000  0.4223330000000 1.0
C      1  0.5097770000000  0.5167940000000  0.5462070000000 1.0
C      1  0.4971100000000  0.4446010000000  0.5438880000000 1.0
C      1  0.5049990000000  0.5273740000000  0.4943030000000 1.0
C      1  0.5403660000000  0.4543440000000  0.5291150000000 1.0
C      1  0.4682880000000  0.5109230000000  0.5187460000000 1.0
C      1  0.5363600000000  0.5276070000000  0.4591840000000 1.0
C      1  0.5231740000000  0.4520680000000  0.5521020000000 1.0
C      1  0.5533730000000  0.5649410000000  0.5242260000000 1.0
C      1  0.5275130000000  0.4958080000000  0.5536810000000 1.0
C      1  0.5344380000000  0.4824400000000  0.5283820000000 1.0
C      1  0.4991140000000  0.4955670000000  0.4282220000000 1.0
C      1  0.4872890000000  0.4674460000000  0.5240860000000 1.0
C      1  0.4467740000000  0.4977130000000  0.4633200000000 1.0
C      1  0.4622860000000  0.4818360000000  0.5184180000000 1.0
C      1  0.4889990000000  0.5322040000000  0.5588500000000 1.0
C      1  0.5302160000000  0.4545480000000  0.4823890000000 1.0
C      1  0.4645330000000  0.5170510000000  0.4723430000000 1.0
C      1  0.4611000000000  0.5293990000000  0.4971410000000 1.0
C      1  0.4992720000000  0.5120340000000  0.5189880000000 1.0
C      1  0.4841560000000  0.5486020000000  0.4951200000000 1.0
C      1  0.5254140000000  0.4434110000000  0.5072430000000 1.0
C      1  0.4545660000000  0.4582290000000  0.4793030000000 1.0
END
