TITL C-64412-8955-4 53.4124327976943 125000 -383.81101215204 0 0 57 (C1) n - 1
REM
REM in /rds/project/t2_vol4/rds-t2-cs072/BORA/CARBON/from-Arr/AIRSS/Generating-Clusters/GAP-ML-2020/Only-C1/SD-CG/HFTN-CG
REM
REM
REM
REM
REM
REM ./C.cell (11c1c37f851c82e70ff6c80c92926a4b)
REM AIRSS Version 0.9.1 bugfix July 2018 build 013d7b7c2542+ Fri, 06 Jul 2018 19:26:36 +0100
REM compiler GCC version 9.3.0
REM options -cpp -mtune=generic -march=x86-64 -g -O0
REM seed 391047483 -307066659 -387210532 -1524146686 -486992832 -25612304 1409653026 -1157198821 -2004133919 1731180091 2095537208 -1864883985 20163172 1008674344 1303919189 -1956839004 -553713398 1246171254 499706062 -2065351498 718126772 723766120 -747119080 381960261 -530055164 398189866 -530541745 -127509523 702861591 -202219868 -562587532 -1228155977 -43399980
REM
CELL 1.54180   50.00000   50.00000   50.00000   90.00000   90.00000   90.00000
LATT -1
SFAC C  
C      1  0.5655050000000  0.4953620000000  0.4770090000000 1.0
C      1  0.5430710000000  0.5187800000000  0.4428630000000 1.0
C      1  0.5299780000000  0.4437960000000  0.4936780000000 1.0
C      1  0.5702620000000  0.4640910000000  0.5104340000000 1.0
C      1  0.5016180000000  0.5474470000000  0.5307240000000 1.0
C      1  0.5566410000000  0.4514910000000  0.4891460000000 1.0
C      1  0.4778240000000  0.5391400000000  0.5446480000000 1.0
C      1  0.5048630000000  0.4989000000000  0.5204780000000 1.0
C      1  0.4623960000000  0.4721340000000  0.4985940000000 1.0
C      1  0.4720900000000  0.5418630000000  0.4712280000000 1.0
C      1  0.4849780000000  0.4638180000000  0.5480930000000 1.0
C      1  0.4512490000000  0.5029570000000  0.5555710000000 1.0
C      1  0.4703100000000  0.5204770000000  0.4974380000000 1.0
C      1  0.5215330000000  0.4707850000000  0.4357710000000 1.0
C      1  0.5317440000000  0.5383010000000  0.5314050000000 1.0
C      1  0.4522760000000  0.4816440000000  0.4409920000000 1.0
C      1  0.4365040000000  0.5200970000000  0.5385420000000 1.0
C      1  0.4618350000000  0.4553360000000  0.5603040000000 1.0
C      1  0.5261560000000  0.4994270000000  0.4328250000000 1.0
C      1  0.5461520000000  0.4640030000000  0.4445050000000 1.0
C      1  0.4280440000000  0.5032190000000  0.5172270000000 1.0
C      1  0.4997490000000  0.5301780000000  0.4651560000000 1.0
C      1  0.4491200000000  0.4749930000000  0.5465110000000 1.0
C      1  0.5264610000000  0.4919080000000  0.5543060000000 1.0
C      1  0.4463730000000  0.5312910000000  0.4626280000000 1.0
C      1  0.4428680000000  0.4779160000000  0.5184350000000 1.0
C      1  0.4165660000000  0.5181520000000  0.4980350000000 1.0
C      1  0.4968460000000  0.5629600000000  0.5047690000000 1.0
C      1  0.4715440000000  0.5623410000000  0.4921370000000 1.0
C      1  0.4958570000000  0.5236830000000  0.5111670000000 1.0
C      1  0.4513590000000  0.5444060000000  0.5332510000000 1.0
C      1  0.5264810000000  0.4854340000000  0.5069650000000 1.0
C      1  0.4773070000000  0.5128260000000  0.5564240000000 1.0
C      1  0.4475450000000  0.5549650000000  0.5066420000000 1.0
C      1  0.4682110000000  0.4957000000000  0.4822810000000 1.0
C      1  0.5607980000000  0.5402700000000  0.4861100000000 1.0
C      1  0.5392270000000  0.5419730000000  0.5027340000000 1.0
C      1  0.5050390000000  0.4550140000000  0.4788490000000 1.0
C      1  0.5582820000000  0.4920180000000  0.5051450000000 1.0
C      1  0.5612830000000  0.5207460000000  0.4657860000000 1.0
C      1  0.4837150000000  0.4538050000000  0.4996190000000 1.0
C      1  0.5609170000000  0.4694400000000  0.4658760000000 1.0
C      1  0.5157690000000  0.5252670000000  0.4404350000000 1.0
C      1  0.5126340000000  0.5424040000000  0.4901540000000 1.0
C      1  0.4956220000000  0.4510860000000  0.5247400000000 1.0
C      1  0.5424120000000  0.5150690000000  0.5444190000000 1.0
C      1  0.4976260000000  0.4575370000000  0.4497240000000 1.0
C      1  0.4502110000000  0.5025080000000  0.4590940000000 1.0
C      1  0.4307810000000  0.5380510000000  0.4872210000000 1.0
C      1  0.5163220000000  0.4831240000000  0.4807010000000 1.0
C      1  0.4953660000000  0.5007750000000  0.4720090000000 1.0
C      1  0.5391510000000  0.4669690000000  0.5442720000000 1.0
C      1  0.5645830000000  0.5016040000000  0.5324520000000 1.0
C      1  0.5659960000000  0.4714750000000  0.5370140000000 1.0
C      1  0.4721330000000  0.4642820000000  0.4430100000000 1.0
C      1  0.5231870000000  0.4547920000000  0.5212490000000 1.0
C      1  0.4976290000000  0.4919720000000  0.5492030000000 1.0
END
