TITL C-64430-8952-6 89.8417729483894 125000 -357.680769459081 0 0 53 (C1) n - 1
REM
REM in /rds/project/t2_vol4/rds-t2-cs072/BORA/CARBON/from-Arr/AIRSS/Generating-Clusters/GAP-ML-2020/Only-C1/SD-CG/HFTN-CG
REM
REM
REM
REM
REM
REM ./C.cell (11c1c37f851c82e70ff6c80c92926a4b)
REM AIRSS Version 0.9.1 bugfix July 2018 build 013d7b7c2542+ Fri, 06 Jul 2018 19:26:36 +0100
REM compiler GCC version 9.3.0
REM options -cpp -mtune=generic -march=x86-64 -g -O0
REM seed 73172214 2042813998 -1805487181 1991832094 -468926348 -1451571612 1820842352 -1470814967 -1000091884 -575128764 86256640 728060101 -1519304991 1608477661 -829696975 412246964 -430152556 -136468831 -1854781107 -223856829 13048030 1079053879 -581442109 657388289 1451921219 -1288121824 -181428871 -556703192 1185993725 71895371 1388799753 -1934883709 839083444
REM
CELL 1.54180   50.00000   50.00000   50.00000   90.00000   90.00000   90.00000
LATT -1
SFAC C  
C      1  0.4648640000000  0.4975360000000  0.5558270000000 1.0
C      1  0.5429700000000  0.5039290000000  0.5365160000000 1.0
C      1  0.5425340000000  0.4615990000000  0.5197950000000 1.0
C      1  0.4752320000000  0.5193270000000  0.4487570000000 1.0
C      1  0.4493510000000  0.5213100000000  0.5193410000000 1.0
C      1  0.4977010000000  0.4453400000000  0.4635460000000 1.0
C      1  0.4356360000000  0.4726400000000  0.4937630000000 1.0
C      1  0.4896420000000  0.4932120000000  0.4485100000000 1.0
C      1  0.4720160000000  0.4864540000000  0.4742490000000 1.0
C      1  0.4523200000000  0.4837870000000  0.5141940000000 1.0
C      1  0.4287350000000  0.5142920000000  0.4749120000000 1.0
C      1  0.4444240000000  0.4990800000000  0.5357670000000 1.0
C      1  0.5830780000000  0.5209600000000  0.5110810000000 1.0
C      1  0.4723540000000  0.4392040000000  0.4754150000000 1.0
C      1  0.4554560000000  0.5099060000000  0.4664420000000 1.0
C      1  0.4412610000000  0.5321390000000  0.4943130000000 1.0
C      1  0.5148860000000  0.4684920000000  0.5572810000000 1.0
C      1  0.4776680000000  0.5571960000000  0.5128830000000 1.0
C      1  0.4990230000000  0.4647190000000  0.4429250000000 1.0
C      1  0.4819750000000  0.5202610000000  0.5524240000000 1.0
C      1  0.5677780000000  0.5012820000000  0.5214190000000 1.0
C      1  0.5379470000000  0.5387280000000  0.5036870000000 1.0
C      1  0.5065840000000  0.5223740000000  0.5641340000000 1.0
C      1  0.4926390000000  0.4573000000000  0.5150280000000 1.0
C      1  0.4893840000000  0.5439690000000  0.4541140000000 1.0
C      1  0.4765500000000  0.5307480000000  0.5257080000000 1.0
C      1  0.4552140000000  0.4610860000000  0.4757190000000 1.0
C      1  0.5237710000000  0.5127590000000  0.5121800000000 1.0
C      1  0.5215670000000  0.5546950000000  0.4875560000000 1.0
C      1  0.5275300000000  0.4976560000000  0.4877750000000 1.0
C      1  0.5170320000000  0.5417220000000  0.4621290000000 1.0
C      1  0.4731580000000  0.4729980000000  0.5626080000000 1.0
C      1  0.5579790000000  0.5116190000000  0.4704320000000 1.0
C      1  0.5415520000000  0.4625410000000  0.4639280000000 1.0
C      1  0.4743570000000  0.4391200000000  0.5016190000000 1.0
C      1  0.4772150000000  0.5627580000000  0.4720920000000 1.0
C      1  0.5187320000000  0.4990430000000  0.4429720000000 1.0
C      1  0.5250730000000  0.5394050000000  0.5742050000000 1.0
C      1  0.4913980000000  0.4607050000000  0.5461020000000 1.0
C      1  0.4574380000000  0.5554720000000  0.4908210000000 1.0
C      1  0.5546210000000  0.4828730000000  0.4802730000000 1.0
C      1  0.5315250000000  0.5173470000000  0.4598200000000 1.0
C      1  0.5268860000000  0.4727160000000  0.4427350000000 1.0
C      1  0.4955530000000  0.5082050000000  0.5168570000000 1.0
C      1  0.4976980000000  0.5669270000000  0.4949580000000 1.0
C      1  0.5352010000000  0.5222100000000  0.5570220000000 1.0
C      1  0.4180240000000  0.4905780000000  0.4836290000000 1.0
C      1  0.5630440000000  0.4764430000000  0.5067230000000 1.0
C      1  0.5204600000000  0.4506160000000  0.5058800000000 1.0
C      1  0.5630050000000  0.5274160000000  0.4937400000000 1.0
C      1  0.4813860000000  0.4853640000000  0.5048220000000 1.0
C      1  0.5361350000000  0.4758680000000  0.5432630000000 1.0
C      1  0.5224450000000  0.4460760000000  0.4781110000000 1.0
END
