TITL C-64428-8969-7 -2.71705444953411 125000 -1137.58978867716 0 0 162 (C1) n - 1
REM
REM in /rds/project/t2_vol4/rds-t2-cs072/BORA/CARBON/from-Arr/AIRSS/Generating-Clusters/GAP-ML-2020/Only-C1/SD-CG/HFTN-CG
REM
REM
REM
REM
REM
REM ./C.cell (11c1c37f851c82e70ff6c80c92926a4b)
REM AIRSS Version 0.9.1 bugfix July 2018 build 013d7b7c2542+ Fri, 06 Jul 2018 19:26:36 +0100
REM compiler GCC version 9.3.0
REM options -cpp -mtune=generic -march=x86-64 -g -O0
REM seed -363466319 585088108 -105398275 1321898898 1837927189 -854948027 -938746392 46017161 -1487273117 1895645174 1601254611 -1413804434 299286569 215148095 1232038416 -346616380 -1630949316 -575656525 472401837 56748595 1785185236 1454287863 1169762705 1329030189 -811350640 1900648898 2010397556 1572446375 1529286486 -1267301464 925003664 327298522 497436565
REM
CELL 1.54180   50.00000   50.00000   50.00000   90.00000   90.00000   90.00000
LATT -1
SFAC C  
C      1  0.5222970000000  0.4508440000000  0.5632130000000 1.0
C      1  0.5265340000000  0.4666110000000  0.4796880000000 1.0
C      1  0.5457710000000  0.5422610000000  0.5166880000000 1.0
C      1  0.6028660000000  0.4745770000000  0.5286760000000 1.0
C      1  0.5866350000000  0.4994590000000  0.4482200000000 1.0
C      1  0.5778790000000  0.4783110000000  0.4315620000000 1.0
C      1  0.4524470000000  0.5020410000000  0.5584510000000 1.0
C      1  0.5037790000000  0.5622560000000  0.4879270000000 1.0
C      1  0.5928990000000  0.4635910000000  0.4813490000000 1.0
C      1  0.5447770000000  0.4863200000000  0.5885890000000 1.0
C      1  0.5956680000000  0.4544810000000  0.5080030000000 1.0
C      1  0.5032800000000  0.5703970000000  0.4341470000000 1.0
C      1  0.5225630000000  0.3945140000000  0.5032360000000 1.0
C      1  0.5900050000000  0.5407500000000  0.4701360000000 1.0
C      1  0.4039840000000  0.5025190000000  0.4758080000000 1.0
C      1  0.4582590000000  0.4787030000000  0.5415050000000 1.0
C      1  0.5139910000000  0.5190210000000  0.4919620000000 1.0
C      1  0.5227210000000  0.4287260000000  0.4343520000000 1.0
C      1  0.4970620000000  0.5656940000000  0.5803680000000 1.0
C      1  0.4628930000000  0.5992810000000  0.4741380000000 1.0
C      1  0.4977330000000  0.4068700000000  0.5480070000000 1.0
C      1  0.5584750000000  0.4971000000000  0.5410010000000 1.0
C      1  0.4668210000000  0.5182790000000  0.5046370000000 1.0
C      1  0.4388970000000  0.4811900000000  0.4300250000000 1.0
C      1  0.4905500000000  0.5599420000000  0.4613050000000 1.0
C      1  0.6007930000000  0.5451800000000  0.5296060000000 1.0
C      1  0.4963040000000  0.4689510000000  0.4838310000000 1.0
C      1  0.5700390000000  0.4515270000000  0.4404560000000 1.0
C      1  0.5173980000000  0.5880230000000  0.4865740000000 1.0
C      1  0.5161080000000  0.4074610000000  0.5267660000000 1.0
C      1  0.5317940000000  0.5772490000000  0.4412190000000 1.0
C      1  0.5113890000000  0.4881860000000  0.5290470000000 1.0
C      1  0.5651060000000  0.4247580000000  0.4864790000000 1.0
C      1  0.4825530000000  0.5972760000000  0.5461690000000 1.0
C      1  0.4866230000000  0.5157210000000  0.4803680000000 1.0
C      1  0.4931160000000  0.4697090000000  0.4171820000000 1.0
C      1  0.5388630000000  0.5887070000000  0.4661810000000 1.0
C      1  0.4525000000000  0.4046230000000  0.4873140000000 1.0
C      1  0.4492120000000  0.4956620000000  0.5892260000000 1.0
C      1  0.4556520000000  0.5045200000000  0.3991950000000 1.0
C      1  0.4047560000000  0.4738070000000  0.4697260000000 1.0
C      1  0.5609780000000  0.5167930000000  0.5168210000000 1.0
C      1  0.4796420000000  0.4380090000000  0.4484950000000 1.0
C      1  0.4194470000000  0.5192030000000  0.4581700000000 1.0
C      1  0.5035510000000  0.4780530000000  0.5560030000000 1.0
C      1  0.4295890000000  0.5424640000000  0.4730690000000 1.0
C      1  0.5607570000000  0.5853150000000  0.4839780000000 1.0
C      1  0.4739880000000  0.6088540000000  0.4993890000000 1.0
C      1  0.5494650000000  0.5917330000000  0.5111340000000 1.0
C      1  0.6014820000000  0.5199550000000  0.4863670000000 1.0
C      1  0.4217760000000  0.4608900000000  0.4480670000000 1.0
C      1  0.5459930000000  0.4438800000000  0.4251180000000 1.0
C      1  0.4189630000000  0.5264220000000  0.4278620000000 1.0
C      1  0.5859540000000  0.5456850000000  0.5551720000000 1.0
C      1  0.5382130000000  0.4772300000000  0.5266330000000 1.0
C      1  0.5012290000000  0.4282130000000  0.5673010000000 1.0
C      1  0.4953360000000  0.3971800000000  0.4671390000000 1.0
C      1  0.5355710000000  0.5097690000000  0.4736860000000 1.0
C      1  0.5242060000000  0.5385690000000  0.5367520000000 1.0
C      1  0.4201300000000  0.5267440000000  0.5208290000000 1.0
C      1  0.4414890000000  0.5706660000000  0.5360060000000 1.0
C      1  0.5629730000000  0.5721030000000  0.5270550000000 1.0
C      1  0.4910460000000  0.4413850000000  0.4768680000000 1.0
C      1  0.5168240000000  0.4788590000000  0.4004420000000 1.0
C      1  0.4125600000000  0.4816270000000  0.5420400000000 1.0
C      1  0.5606740000000  0.5337570000000  0.4243430000000 1.0
C      1  0.5408550000000  0.5545680000000  0.4245160000000 1.0
C      1  0.6166190000000  0.4975360000000  0.5240030000000 1.0
C      1  0.5030470000000  0.5812970000000  0.5579120000000 1.0
C      1  0.5662600000000  0.5679050000000  0.5553620000000 1.0
C      1  0.5237680000000  0.4900640000000  0.6065540000000 1.0
C      1  0.4670740000000  0.4021270000000  0.4628760000000 1.0
C      1  0.5218160000000  0.5505820000000  0.5823470000000 1.0
C      1  0.4546670000000  0.5651300000000  0.5111090000000 1.0
C      1  0.5099700000000  0.5171400000000  0.5222490000000 1.0
C      1  0.5409410000000  0.4654170000000  0.4065200000000 1.0
C      1  0.5886370000000  0.4938600000000  0.4765130000000 1.0
C      1  0.4832270000000  0.4882030000000  0.4680110000000 1.0
C      1  0.5226980000000  0.5071970000000  0.3996020000000 1.0
C      1  0.4852130000000  0.5323320000000  0.4576940000000 1.0
C      1  0.5144610000000  0.5509560000000  0.4143590000000 1.0
C      1  0.5203750000000  0.5927830000000  0.5148720000000 1.0
C      1  0.4549020000000  0.4838360000000  0.4710780000000 1.0
C      1  0.5152400000000  0.4357900000000  0.5176580000000 1.0
C      1  0.4657020000000  0.4895650000000  0.5140750000000 1.0
C      1  0.4021210000000  0.5078370000000  0.5042420000000 1.0
C      1  0.5779130000000  0.4434190000000  0.4670040000000 1.0
C      1  0.4702360000000  0.3976830000000  0.5091960000000 1.0
C      1  0.4736210000000  0.4384540000000  0.5715010000000 1.0
C      1  0.5268650000000  0.4877400000000  0.4577460000000 1.0
C      1  0.4980940000000  0.4940030000000  0.5987210000000 1.0
C      1  0.5230570000000  0.5250880000000  0.5662910000000 1.0
C      1  0.4650030000000  0.5237180000000  0.4399000000000 1.0
C      1  0.5478990000000  0.4606410000000  0.5766100000000 1.0
C      1  0.4335900000000  0.5505430000000  0.4270220000000 1.0
C      1  0.4383170000000  0.5612210000000  0.4537680000000 1.0
C      1  0.4704110000000  0.4046270000000  0.5383660000000 1.0
C      1  0.4767370000000  0.5186290000000  0.5550140000000 1.0
C      1  0.4221760000000  0.5508550000000  0.5409430000000 1.0
C      1  0.4563590000000  0.4230750000000  0.4469910000000 1.0
C      1  0.4316100000000  0.4346320000000  0.4557480000000 1.0
C      1  0.5349910000000  0.4474010000000  0.5360380000000 1.0
C      1  0.5807450000000  0.5272940000000  0.4448190000000 1.0
C      1  0.4253110000000  0.5103380000000  0.5476970000000 1.0
C      1  0.4720950000000  0.5286940000000  0.3983080000000 1.0
C      1  0.4119170000000  0.4361280000000  0.5008580000000 1.0
C      1  0.4520900000000  0.5917810000000  0.4986460000000 1.0
C      1  0.5499880000000  0.5098520000000  0.5687920000000 1.0
C      1  0.5629990000000  0.4369740000000  0.5381430000000 1.0
C      1  0.5500660000000  0.5117830000000  0.4077960000000 1.0
C      1  0.4995690000000  0.5054660000000  0.5698050000000 1.0
C      1  0.4799800000000  0.4604380000000  0.5500200000000 1.0
C      1  0.4447330000000  0.5027460000000  0.4510090000000 1.0
C      1  0.5497840000000  0.5576550000000  0.5770170000000 1.0
C      1  0.4255540000000  0.5361880000000  0.5641400000000 1.0
C      1  0.4463120000000  0.4779840000000  0.4972010000000 1.0
C      1  0.4286630000000  0.4336240000000  0.5524770000000 1.0
C      1  0.5707970000000  0.4546560000000  0.5601420000000 1.0
C      1  0.4637370000000  0.5767440000000  0.4550360000000 1.0
C      1  0.4199050000000  0.4596340000000  0.5648510000000 1.0
C      1  0.4908720000000  0.4747530000000  0.5109380000000 1.0
C      1  0.4353680000000  0.4672090000000  0.5860720000000 1.0
C      1  0.5000680000000  0.4898620000000  0.4429940000000 1.0
C      1  0.5816270000000  0.4774290000000  0.5474560000000 1.0
C      1  0.4744640000000  0.5733450000000  0.4273570000000 1.0
C      1  0.5448240000000  0.4773580000000  0.4991570000000 1.0
C      1  0.4343390000000  0.4679100000000  0.5252590000000 1.0
C      1  0.4289380000000  0.4229240000000  0.4820510000000 1.0
C      1  0.5588850000000  0.5014550000000  0.4910050000000 1.0
C      1  0.5106940000000  0.5675030000000  0.5331990000000 1.0
C      1  0.5271470000000  0.5441010000000  0.4914910000000 1.0
C      1  0.4457930000000  0.5437760000000  0.5843140000000 1.0
C      1  0.5884000000000  0.5647960000000  0.5134900000000 1.0
C      1  0.4937380000000  0.5162120000000  0.4340780000000 1.0
C      1  0.4598180000000  0.5815120000000  0.5551810000000 1.0
C      1  0.4612410000000  0.4550780000000  0.5932070000000 1.0
C      1  0.4542340000000  0.4209530000000  0.5563940000000 1.0
C      1  0.4639540000000  0.4790760000000  0.4113410000000 1.0
C      1  0.4887260000000  0.4490800000000  0.5238330000000 1.0
C      1  0.6105050000000  0.5219770000000  0.5140840000000 1.0
C      1  0.4244800000000  0.4397630000000  0.5255230000000 1.0
C      1  0.4979730000000  0.4419470000000  0.4280350000000 1.0
C      1  0.5373630000000  0.4121550000000  0.4821740000000 1.0
C      1  0.4866230000000  0.5580220000000  0.5155680000000 1.0
C      1  0.5209690000000  0.4088530000000  0.4568820000000 1.0
C      1  0.4469590000000  0.5214980000000  0.5998320000000 1.0
C      1  0.5832350000000  0.5657380000000  0.4851630000000 1.0
C      1  0.5011750000000  0.5264460000000  0.4067900000000 1.0
C      1  0.4729340000000  0.4807580000000  0.6003170000000 1.0
C      1  0.5191470000000  0.4366140000000  0.4874810000000 1.0
C      1  0.4610450000000  0.5487040000000  0.4172570000000 1.0
C      1  0.3978870000000  0.4822260000000  0.5163660000000 1.0
C      1  0.4299960000000  0.5045750000000  0.4127090000000 1.0
C      1  0.5760760000000  0.4337820000000  0.5127480000000 1.0
C      1  0.4669630000000  0.5644280000000  0.5775280000000 1.0
C      1  0.3996510000000  0.4615760000000  0.4944220000000 1.0
C      1  0.4829350000000  0.5290950000000  0.5268510000000 1.0
C      1  0.5679110000000  0.5334460000000  0.5741630000000 1.0
C      1  0.4413460000000  0.5382090000000  0.5008340000000 1.0
C      1  0.4960850000000  0.3918250000000  0.4952820000000 1.0
C      1  0.5610250000000  0.4856740000000  0.4102130000000 1.0
C      1  0.4930390000000  0.6060730000000  0.5207170000000 1.0
END
