TITL C-64411-8883-1 34.8371529288468 125000 -919.477342436449 0 0 131 (C1) n - 1
REM
REM in /rds/project/t2_vol4/rds-t2-cs072/BORA/CARBON/from-Arr/AIRSS/Generating-Clusters/GAP-ML-2020/Only-C1/SD-CG/HFTN-CG
REM
REM
REM
REM
REM
REM ./C.cell (11c1c37f851c82e70ff6c80c92926a4b)
REM AIRSS Version 0.9.1 bugfix July 2018 build 013d7b7c2542+ Fri, 06 Jul 2018 19:26:36 +0100
REM compiler GCC version 9.3.0
REM options -cpp -mtune=generic -march=x86-64 -g -O0
REM seed -459639727 395213282 1719189469 -2005958380 -723989950 -2035639106 -2048763504 -492857658 1885341368 -593565470 1632555489 1929773962 1181755234 -1673515709 162381556 -1875857036 975904046 -1008398565 1570769286 -1316080079 1053394417 1441881249 -388162070 -908459059 -1628418251 -1774936881 -733648161 -776070441 -779769528 -2012470872 1967242411 -568173697 -277580941
REM
CELL 1.54180   50.00000   50.00000   50.00000   90.00000   90.00000   90.00000
LATT -1
SFAC C  
C      1  0.5345790000000  0.5440960000000  0.4478670000000 1.0
C      1  0.4942380000000  0.4004360000000  0.5220810000000 1.0
C      1  0.5455800000000  0.5776650000000  0.4791230000000 1.0
C      1  0.5289840000000  0.4857310000000  0.5937770000000 1.0
C      1  0.5819640000000  0.5346080000000  0.5467980000000 1.0
C      1  0.4964400000000  0.5906880000000  0.4787750000000 1.0
C      1  0.5202590000000  0.5811970000000  0.5446630000000 1.0
C      1  0.4756240000000  0.4922070000000  0.4445680000000 1.0
C      1  0.5314150000000  0.4460360000000  0.4947150000000 1.0
C      1  0.5039300000000  0.4547590000000  0.4945290000000 1.0
C      1  0.4459030000000  0.4585010000000  0.4371320000000 1.0
C      1  0.4734580000000  0.5779160000000  0.4672560000000 1.0
C      1  0.5508680000000  0.4550580000000  0.5679650000000 1.0
C      1  0.4606910000000  0.5495520000000  0.5242070000000 1.0
C      1  0.4342600000000  0.4682500000000  0.5633000000000 1.0
C      1  0.5367080000000  0.4557400000000  0.4300360000000 1.0
C      1  0.4535470000000  0.5423450000000  0.4950190000000 1.0
C      1  0.4921570000000  0.5839430000000  0.5507710000000 1.0
C      1  0.4379820000000  0.5435010000000  0.5431970000000 1.0
C      1  0.4322510000000  0.5720400000000  0.5041990000000 1.0
C      1  0.4882360000000  0.4210430000000  0.5410610000000 1.0
C      1  0.4983260000000  0.4623190000000  0.5232370000000 1.0
C      1  0.4739990000000  0.5280940000000  0.5961670000000 1.0
C      1  0.5655690000000  0.4354080000000  0.5253440000000 1.0
C      1  0.5692380000000  0.5109960000000  0.4414170000000 1.0
C      1  0.4329380000000  0.4364570000000  0.4242640000000 1.0
C      1  0.4497760000000  0.5314230000000  0.5820520000000 1.0
C      1  0.5349490000000  0.5374010000000  0.5232320000000 1.0
C      1  0.4606170000000  0.4776260000000  0.5709890000000 1.0
C      1  0.4878940000000  0.5099640000000  0.5419010000000 1.0
C      1  0.4605380000000  0.5312510000000  0.4136970000000 1.0
C      1  0.4208520000000  0.4720300000000  0.5127290000000 1.0
C      1  0.4758500000000  0.5227880000000  0.4954830000000 1.0
C      1  0.5692100000000  0.4533370000000  0.5465320000000 1.0
C      1  0.4877510000000  0.5038880000000  0.6011280000000 1.0
C      1  0.4862230000000  0.5322110000000  0.5236040000000 1.0
C      1  0.4093860000000  0.4961070000000  0.5276410000000 1.0
C      1  0.5840880000000  0.4281880000000  0.4776180000000 1.0
C      1  0.5441300000000  0.4714530000000  0.4970380000000 1.0
C      1  0.4936160000000  0.4689900000000  0.4100160000000 1.0
C      1  0.4788200000000  0.5932380000000  0.5263300000000 1.0
C      1  0.4933500000000  0.4059380000000  0.4805060000000 1.0
C      1  0.4639570000000  0.4368010000000  0.5409230000000 1.0
C      1  0.5017330000000  0.5080330000000  0.4449900000000 1.0
C      1  0.4683500000000  0.4571130000000  0.5187540000000 1.0
C      1  0.5199140000000  0.5367560000000  0.5895420000000 1.0
C      1  0.5248810000000  0.5946580000000  0.5192150000000 1.0
C      1  0.5541540000000  0.4799550000000  0.5813330000000 1.0
C      1  0.4823860000000  0.4775720000000  0.5898840000000 1.0
C      1  0.5781940000000  0.5295310000000  0.4614560000000 1.0
C      1  0.4198470000000  0.4699320000000  0.4833620000000 1.0
C      1  0.4933160000000  0.4418690000000  0.4491710000000 1.0
C      1  0.5846930000000  0.5344060000000  0.5208040000000 1.0
C      1  0.5420980000000  0.5421680000000  0.5720320000000 1.0
C      1  0.5070090000000  0.4916010000000  0.5334570000000 1.0
C      1  0.4499600000000  0.4133700000000  0.4980540000000 1.0
C      1  0.4183350000000  0.5491650000000  0.5212500000000 1.0
C      1  0.4864060000000  0.4345490000000  0.4768330000000 1.0
C      1  0.5709430000000  0.4967230000000  0.5664620000000 1.0
C      1  0.5993700000000  0.5132100000000  0.5085610000000 1.0
C      1  0.4073450000000  0.4868740000000  0.4672640000000 1.0
C      1  0.5002560000000  0.5702870000000  0.4235270000000 1.0
C      1  0.5127660000000  0.4996530000000  0.4733390000000 1.0
C      1  0.5956290000000  0.4679470000000  0.4977910000000 1.0
C      1  0.4127850000000  0.5211480000000  0.5125040000000 1.0
C      1  0.5838770000000  0.4410820000000  0.5020360000000 1.0
C      1  0.5215070000000  0.5845800000000  0.4646170000000 1.0
C      1  0.5358280000000  0.4271510000000  0.4688190000000 1.0
C      1  0.5929230000000  0.4833350000000  0.4722480000000 1.0
C      1  0.4369210000000  0.4875070000000  0.4294800000000 1.0
C      1  0.5895430000000  0.5108010000000  0.4813500000000 1.0
C      1  0.5215530000000  0.4036460000000  0.5114100000000 1.0
C      1  0.4784720000000  0.4612540000000  0.4338040000000 1.0
C      1  0.5316620000000  0.5043470000000  0.5306460000000 1.0
C      1  0.5241310000000  0.5713450000000  0.4401810000000 1.0
C      1  0.4391880000000  0.5160690000000  0.5585100000000 1.0
C      1  0.4666560000000  0.4833310000000  0.4718880000000 1.0
C      1  0.5127980000000  0.4389130000000  0.5414320000000 1.0
C      1  0.4850150000000  0.5375020000000  0.3994120000000 1.0
C      1  0.4215320000000  0.4442280000000  0.5241590000000 1.0
C      1  0.5632210000000  0.4571360000000  0.4417230000000 1.0
C      1  0.5601760000000  0.5097280000000  0.4944050000000 1.0
C      1  0.4571530000000  0.4998110000000  0.4942790000000 1.0
C      1  0.5028370000000  0.5271660000000  0.4834570000000 1.0
C      1  0.5776850000000  0.4820670000000  0.4478800000000 1.0
C      1  0.4790300000000  0.5669400000000  0.5700910000000 1.0
C      1  0.5582290000000  0.5376670000000  0.5033330000000 1.0
C      1  0.4555770000000  0.5501430000000  0.4341640000000 1.0
C      1  0.5033760000000  0.5368180000000  0.4551390000000 1.0
C      1  0.4991260000000  0.5982760000000  0.5064530000000 1.0
C      1  0.5984220000000  0.4863930000000  0.5196950000000 1.0
C      1  0.5216190000000  0.5050610000000  0.4191330000000 1.0
C      1  0.5211380000000  0.4746610000000  0.4156550000000 1.0
C      1  0.5211930000000  0.4035080000000  0.4827610000000 1.0
C      1  0.5665980000000  0.5258070000000  0.5673660000000 1.0
C      1  0.5644570000000  0.4340920000000  0.4598730000000 1.0
C      1  0.4806610000000  0.5608710000000  0.4449220000000 1.0
C      1  0.5359120000000  0.5569520000000  0.5480770000000 1.0
C      1  0.5351480000000  0.4286250000000  0.5213040000000 1.0
C      1  0.4321580000000  0.5202930000000  0.4899150000000 1.0
C      1  0.4367210000000  0.4444930000000  0.5491480000000 1.0
C      1  0.4949240000000  0.4788270000000  0.4810530000000 1.0
C      1  0.4517010000000  0.5564330000000  0.5681770000000 1.0
C      1  0.4601200000000  0.4410460000000  0.4895040000000 1.0
C      1  0.5534040000000  0.4902010000000  0.5187540000000 1.0
C      1  0.4747220000000  0.3980770000000  0.5007900000000 1.0
C      1  0.4460510000000  0.4605480000000  0.4711410000000 1.0
C      1  0.4999790000000  0.5130380000000  0.3990630000000 1.0
C      1  0.5780620000000  0.4814310000000  0.5411840000000 1.0
C      1  0.4358950000000  0.5502910000000  0.4539120000000 1.0
C      1  0.5448350000000  0.5211610000000  0.4303690000000 1.0
C      1  0.4193340000000  0.4931760000000  0.5543870000000 1.0
C      1  0.4467700000000  0.5664110000000  0.4772100000000 1.0
C      1  0.5465000000000  0.5891110000000  0.5038800000000 1.0
C      1  0.4618420000000  0.4973340000000  0.5475340000000 1.0
C      1  0.4194690000000  0.5013740000000  0.4473640000000 1.0
C      1  0.5155350000000  0.5099690000000  0.5995860000000 1.0
C      1  0.5400470000000  0.4930610000000  0.4787320000000 1.0
C      1  0.4267410000000  0.4223620000000  0.5078570000000 1.0
C      1  0.4592420000000  0.5022410000000  0.4181670000000 1.0
C      1  0.5095690000000  0.4659370000000  0.5865480000000 1.0
C      1  0.5560260000000  0.5493720000000  0.4721570000000 1.0
C      1  0.4954850000000  0.5634530000000  0.3977760000000 1.0
C      1  0.5231510000000  0.4482300000000  0.5681220000000 1.0
C      1  0.4530650000000  0.4824890000000  0.5194930000000 1.0
C      1  0.4243990000000  0.5256550000000  0.4617700000000 1.0
C      1  0.4928870000000  0.5482350000000  0.5877040000000 1.0
C      1  0.4809010000000  0.4922710000000  0.4000450000000 1.0
C      1  0.5105150000000  0.5408960000000  0.5090330000000 1.0
C      1  0.5210710000000  0.4385730000000  0.4463500000000 1.0
C      1  0.4551990000000  0.5794600000000  0.5210950000000 1.0
END
