TITL C-64417-8977-2 0.0546322565824786 125000 -423.978798153637 0 0 61 (C1) n - 1
REM
REM in /rds/project/t2_vol4/rds-t2-cs072/BORA/CARBON/from-Arr/AIRSS/Generating-Clusters/GAP-ML-2020/Only-C1/SD-CG/HFTN-CG
REM
REM
REM
REM
REM
REM ./C.cell (11c1c37f851c82e70ff6c80c92926a4b)
REM AIRSS Version 0.9.1 bugfix July 2018 build 013d7b7c2542+ Fri, 06 Jul 2018 19:26:36 +0100
REM compiler GCC version 9.3.0
REM options -cpp -mtune=generic -march=x86-64 -g -O0
REM seed -1519446081 531636118 932968985 1836667106 -213856500 1139271608 -220894767 -1181598860 47697018 -1602851570 1853145590 -1312643485 1141305288 -1725819041 -2104419304 -2122098409 -19825458 2075176959 444429459 943415709 -1379955281 2020901027 1787559895 1747242002 1295489907 -1988705877 -1775777823 545414833 -1036895993 -114716532 -1078459189 811847072 165081181
REM
CELL 1.54180   50.00000   50.00000   50.00000   90.00000   90.00000   90.00000
LATT -1
SFAC C  
C      1  0.4858580000000  0.4723870000000  0.4344820000000 1.0
C      1  0.4860920000000  0.4541550000000  0.5289220000000 1.0
C      1  0.5863480000000  0.5229210000000  0.4913580000000 1.0
C      1  0.5220010000000  0.5013010000000  0.4387990000000 1.0
C      1  0.5477510000000  0.5628790000000  0.5369820000000 1.0
C      1  0.4403480000000  0.4709860000000  0.4997690000000 1.0
C      1  0.4687760000000  0.4559070000000  0.4504340000000 1.0
C      1  0.4923060000000  0.5593320000000  0.4858480000000 1.0
C      1  0.4467150000000  0.4822540000000  0.5262210000000 1.0
C      1  0.5380280000000  0.5350540000000  0.4986810000000 1.0
C      1  0.4803860000000  0.4850940000000  0.5272020000000 1.0
C      1  0.4569900000000  0.4471690000000  0.4968010000000 1.0
C      1  0.4513080000000  0.5329360000000  0.5286640000000 1.0
C      1  0.4650330000000  0.5367370000000  0.4540580000000 1.0
C      1  0.4773150000000  0.4993300000000  0.4290900000000 1.0
C      1  0.4647030000000  0.5490940000000  0.4806540000000 1.0
C      1  0.5135910000000  0.4736370000000  0.4408290000000 1.0
C      1  0.4307070000000  0.4921910000000  0.4824480000000 1.0
C      1  0.4889530000000  0.4670100000000  0.5770650000000 1.0
C      1  0.4841320000000  0.5060820000000  0.5530790000000 1.0
C      1  0.4460920000000  0.5403810000000  0.5003120000000 1.0
C      1  0.4917000000000  0.5401400000000  0.4437510000000 1.0
C      1  0.5133080000000  0.5016940000000  0.5586430000000 1.0
C      1  0.5238540000000  0.4576030000000  0.4612980000000 1.0
C      1  0.5395300000000  0.5124680000000  0.4573200000000 1.0
C      1  0.5061130000000  0.4418010000000  0.4785360000000 1.0
C      1  0.4552390000000  0.5112370000000  0.4428970000000 1.0
C      1  0.4757840000000  0.5323580000000  0.5418720000000 1.0
C      1  0.5341240000000  0.5619530000000  0.5131280000000 1.0
C      1  0.5308790000000  0.5138240000000  0.5390780000000 1.0
C      1  0.4617450000000  0.4412280000000  0.5245930000000 1.0
C      1  0.5154040000000  0.5213510000000  0.5149260000000 1.0
C      1  0.5117930000000  0.4430550000000  0.5299430000000 1.0
C      1  0.5082170000000  0.5520210000000  0.4635310000000 1.0
C      1  0.5786300000000  0.5406830000000  0.4742990000000 1.0
C      1  0.5511650000000  0.5374890000000  0.5462150000000 1.0
C      1  0.5563060000000  0.4980590000000  0.5284600000000 1.0
C      1  0.4353940000000  0.5090360000000  0.5260650000000 1.0
C      1  0.4712870000000  0.4893360000000  0.5738380000000 1.0
C      1  0.5049500000000  0.5649630000000  0.5110010000000 1.0
C      1  0.4773860000000  0.4434350000000  0.4751470000000 1.0
C      1  0.5444990000000  0.4569240000000  0.5028400000000 1.0
C      1  0.5150480000000  0.4743510000000  0.5661910000000 1.0
C      1  0.5694810000000  0.5171590000000  0.5474810000000 1.0
C      1  0.4300890000000  0.5158440000000  0.4979320000000 1.0
C      1  0.4382050000000  0.4910170000000  0.4548290000000 1.0
C      1  0.5595420000000  0.5118270000000  0.5003830000000 1.0
C      1  0.4477590000000  0.4583980000000  0.5441390000000 1.0
C      1  0.4971460000000  0.5431470000000  0.5272460000000 1.0
C      1  0.4998140000000  0.5166830000000  0.4304780000000 1.0
C      1  0.4432300000000  0.4649150000000  0.4474520000000 1.0
C      1  0.4957280000000  0.4991130000000  0.5039420000000 1.0
C      1  0.5213780000000  0.4400450000000  0.5033870000000 1.0
C      1  0.4613470000000  0.4644970000000  0.5683580000000 1.0
C      1  0.4885990000000  0.4966650000000  0.4789340000000 1.0
C      1  0.5295730000000  0.4588120000000  0.5464200000000 1.0
C      1  0.5497990000000  0.4693060000000  0.5285950000000 1.0
C      1  0.5607190000000  0.5552640000000  0.4627540000000 1.0
C      1  0.5449820000000  0.4689850000000  0.4773690000000 1.0
C      1  0.5517070000000  0.4961400000000  0.4763280000000 1.0
C      1  0.5351130000000  0.5403360000000  0.4687020000000 1.0
END
