TITL C-64427-8975-6 -0.081663864271492 125000 -420.838070009833 0 0 61 (C1) n - 1
REM
REM in /rds/project/t2_vol4/rds-t2-cs072/BORA/CARBON/from-Arr/AIRSS/Generating-Clusters/GAP-ML-2020/Only-C1/SD-CG/HFTN-CG
REM
REM
REM
REM
REM
REM ./C.cell (11c1c37f851c82e70ff6c80c92926a4b)
REM AIRSS Version 0.9.1 bugfix July 2018 build 013d7b7c2542+ Fri, 06 Jul 2018 19:26:36 +0100
REM compiler GCC version 9.3.0
REM options -cpp -mtune=generic -march=x86-64 -g -O0
REM seed 122155939 -1858051340 557841947 -434301401 -896788318 -1320893782 -552456860 -1725497072 1855848105 816777497 -2143357018 -420682324 1551275673 -1802437548 72586752 1761144266 -421308177 1212034442 513035682 2048345864 -381913082 261971825 1431306370 980589525 223186863 1604045352 1926517846 1197963293 165449704 -1473030534 -2006850103 -975698274 755587404
REM
CELL 1.54180   50.00000   50.00000   50.00000   90.00000   90.00000   90.00000
LATT -1
SFAC C  
C      1  0.5364520000000  0.4910160000000  0.4492270000000 1.0
C      1  0.5233550000000  0.4932990000000  0.5017280000000 1.0
C      1  0.5224390000000  0.5669740000000  0.5200490000000 1.0
C      1  0.4582080000000  0.5429160000000  0.4795010000000 1.0
C      1  0.5293830000000  0.4793660000000  0.5611570000000 1.0
C      1  0.4597380000000  0.4766730000000  0.4483770000000 1.0
C      1  0.5413880000000  0.4467250000000  0.5009510000000 1.0
C      1  0.4766170000000  0.5622970000000  0.5216620000000 1.0
C      1  0.5227350000000  0.5052420000000  0.4737590000000 1.0
C      1  0.5302640000000  0.5557970000000  0.4765250000000 1.0
C      1  0.4544340000000  0.5154210000000  0.5457330000000 1.0
C      1  0.4873150000000  0.4892580000000  0.4428100000000 1.0
C      1  0.5173390000000  0.4641160000000  0.5018640000000 1.0
C      1  0.4953740000000  0.4588560000000  0.5178520000000 1.0
C      1  0.5640620000000  0.5229070000000  0.4838090000000 1.0
C      1  0.4419590000000  0.4589530000000  0.5086850000000 1.0
C      1  0.5086880000000  0.4604430000000  0.5709850000000 1.0
C      1  0.4843320000000  0.4834270000000  0.5263860000000 1.0
C      1  0.5486360000000  0.4729430000000  0.5392020000000 1.0
C      1  0.5222750000000  0.5081930000000  0.5645290000000 1.0
C      1  0.4980850000000  0.5713400000000  0.5055690000000 1.0
C      1  0.4965290000000  0.5145560000000  0.5719500000000 1.0
C      1  0.4342680000000  0.4819790000000  0.4935100000000 1.0
C      1  0.4475930000000  0.4622890000000  0.5380990000000 1.0
C      1  0.4414900000000  0.5193680000000  0.4755550000000 1.0
C      1  0.4869880000000  0.4485500000000  0.5657830000000 1.0
C      1  0.4430610000000  0.4909940000000  0.4669780000000 1.0
C      1  0.4950030000000  0.5037940000000  0.4680280000000 1.0
C      1  0.5382760000000  0.5188810000000  0.4391260000000 1.0
C      1  0.5021810000000  0.5641410000000  0.4783210000000 1.0
C      1  0.4975670000000  0.4335240000000  0.4645050000000 1.0
C      1  0.4789970000000  0.4351530000000  0.5206370000000 1.0
C      1  0.5514980000000  0.4951010000000  0.5184160000000 1.0
C      1  0.4601880000000  0.4872460000000  0.5424420000000 1.0
C      1  0.5422430000000  0.5595010000000  0.5018950000000 1.0
C      1  0.4893630000000  0.5140090000000  0.4267170000000 1.0
C      1  0.4884210000000  0.5511860000000  0.5458930000000 1.0
C      1  0.4806200000000  0.5531990000000  0.4627670000000 1.0
C      1  0.4433240000000  0.5273310000000  0.5218810000000 1.0
C      1  0.4974700000000  0.5041410000000  0.5120460000000 1.0
C      1  0.5347610000000  0.5297650000000  0.5496880000000 1.0
C      1  0.5180860000000  0.4497980000000  0.4573090000000 1.0
C      1  0.5137480000000  0.4733930000000  0.4422730000000 1.0
C      1  0.5545080000000  0.4782980000000  0.4681140000000 1.0
C      1  0.4328620000000  0.5101110000000  0.5016500000000 1.0
C      1  0.5597350000000  0.5383410000000  0.5074690000000 1.0
C      1  0.4554800000000  0.5496280000000  0.5079660000000 1.0
C      1  0.5433510000000  0.4528790000000  0.4734420000000 1.0
C      1  0.5533560000000  0.4492620000000  0.5247830000000 1.0
C      1  0.4708050000000  0.4370350000000  0.4707280000000 1.0
C      1  0.4815180000000  0.5121440000000  0.4908190000000 1.0
C      1  0.5644130000000  0.4948970000000  0.4903540000000 1.0
C      1  0.5173690000000  0.5520850000000  0.5435280000000 1.0
C      1  0.4677040000000  0.4426690000000  0.5461760000000 1.0
C      1  0.4904350000000  0.5411370000000  0.4389380000000 1.0
C      1  0.4565590000000  0.4492480000000  0.4489820000000 1.0
C      1  0.4605020000000  0.4386450000000  0.4986660000000 1.0
C      1  0.5538360000000  0.5221890000000  0.5296780000000 1.0
C      1  0.5430030000000  0.5312750000000  0.4653620000000 1.0
C      1  0.5130850000000  0.5274120000000  0.4302110000000 1.0
C      1  0.4767250000000  0.5286840000000  0.5589550000000 1.0
END
