TITL C-64412-8955-7 -0.0804616805789584 125000 -145.687632826374 0 0 23 (C1) n - 1
REM
REM in /rds/project/t2_vol4/rds-t2-cs072/BORA/CARBON/from-Arr/AIRSS/Generating-Clusters/GAP-ML-2020/Only-C1/SD-CG/HFTN-CG
REM
REM
REM
REM
REM
REM ./C.cell (11c1c37f851c82e70ff6c80c92926a4b)
REM AIRSS Version 0.9.1 bugfix July 2018 build 013d7b7c2542+ Fri, 06 Jul 2018 19:26:36 +0100
REM compiler GCC version 9.3.0
REM options -cpp -mtune=generic -march=x86-64 -g -O0
REM seed -465439319 -401655255 2003196121 -1295625480 2063661589 -1940653614 -1826685047 652668371 -1546126814 -775760892 1205164461 -2015312465 560245597 -848876436 -220311214 1319964418 -26321076 -1151813284 345429760 612729777 565099797 911457601 643896684 -842889821 2047662969 -1238750344 2084969037 370092883 -1575492943 2073443439 482997668 739567429 1930911865
REM
CELL 1.54180   50.00000   50.00000   50.00000   90.00000   90.00000   90.00000
LATT -1
SFAC C  
C      1  0.4813490000000  0.5053670000000  0.5349120000000 1.0
C      1  0.5091640000000  0.5098550000000  0.4530810000000 1.0
C      1  0.4906650000000  0.5262100000000  0.4661370000000 1.0
C      1  0.4816350000000  0.4492380000000  0.4860840000000 1.0
C      1  0.4439410000000  0.5161090000000  0.4784120000000 1.0
C      1  0.4958810000000  0.4846630000000  0.5207920000000 1.0
C      1  0.5428030000000  0.4918780000000  0.5114950000000 1.0
C      1  0.5262180000000  0.4719430000000  0.4713740000000 1.0
C      1  0.4991260000000  0.4669950000000  0.4740820000000 1.0
C      1  0.4935280000000  0.5302540000000  0.5308860000000 1.0
C      1  0.5231410000000  0.4817650000000  0.5288760000000 1.0
C      1  0.5339450000000  0.5064870000000  0.5327890000000 1.0
C      1  0.5140740000000  0.5398300000000  0.4813020000000 1.0
C      1  0.5213870000000  0.5303200000000  0.5320410000000 1.0
C      1  0.5090270000000  0.5332360000000  0.5076350000000 1.0
C      1  0.5357780000000  0.4951810000000  0.4849320000000 1.0
C      1  0.5319420000000  0.5195650000000  0.4690300000000 1.0
C      1  0.4429620000000  0.4788890000000  0.5494040000000 1.0
C      1  0.4813680000000  0.4644340000000  0.5065310000000 1.0
C      1  0.4591420000000  0.4979700000000  0.5487040000000 1.0
C      1  0.4700040000000  0.5148450000000  0.4813100000000 1.0
C      1  0.5076430000000  0.4821640000000  0.4518770000000 1.0
C      1  0.5052760000000  0.5028040000000  0.4983140000000 1.0
END
