TITL C-64429-9064-9 0.177192991304741 125000 -793.982196878786 0 0 115 (C1) n - 1
REM
REM in /rds/project/t2_vol4/rds-t2-cs072/BORA/CARBON/from-Arr/AIRSS/Generating-Clusters/GAP-ML-2020/Only-C1/SD-CG/HFTN-CG
REM
REM
REM
REM
REM
REM ./C.cell (11c1c37f851c82e70ff6c80c92926a4b)
REM AIRSS Version 0.9.1 bugfix July 2018 build 013d7b7c2542+ Fri, 06 Jul 2018 19:26:36 +0100
REM compiler GCC version 9.3.0
REM options -cpp -mtune=generic -march=x86-64 -g -O0
REM seed 1619893163 -1729199665 551379186 16836048 1789658572 1786476489 -1642265159 348558299 -687683976 2139576120 1392141998 -1982752008 -1914218994 1365277278 -926574948 -111930783 -1076649201 -1111925739 -973054174 1274456394 701828024 -1872529415 1977772791 -632388134 1401854556 1672758778 606686578 -890183291 10210194 826645124 1760990904 1888054004 -833583220
REM
CELL 1.54180   50.00000   50.00000   50.00000   90.00000   90.00000   90.00000
LATT -1
SFAC C  
C      1  0.4887170000000  0.5890240000000  0.5512160000000 1.0
C      1  0.4110030000000  0.5314510000000  0.4863760000000 1.0
C      1  0.4800680000000  0.4434620000000  0.5215820000000 1.0
C      1  0.5041410000000  0.4401790000000  0.5821610000000 1.0
C      1  0.5024410000000  0.5539540000000  0.5002010000000 1.0
C      1  0.5153250000000  0.5198360000000  0.5250570000000 1.0
C      1  0.5934110000000  0.5133510000000  0.4811660000000 1.0
C      1  0.5483090000000  0.5031440000000  0.4943450000000 1.0
C      1  0.5109390000000  0.5795450000000  0.4860630000000 1.0
C      1  0.4798380000000  0.4808680000000  0.5813650000000 1.0
C      1  0.5036520000000  0.5456800000000  0.5278880000000 1.0
C      1  0.4559870000000  0.4442000000000  0.5681210000000 1.0
C      1  0.5258520000000  0.4831120000000  0.5048640000000 1.0
C      1  0.5396580000000  0.4150320000000  0.4966050000000 1.0
C      1  0.4261480000000  0.4650940000000  0.5144460000000 1.0
C      1  0.4155520000000  0.4868130000000  0.4997150000000 1.0
C      1  0.5759860000000  0.5184280000000  0.5267180000000 1.0
C      1  0.5199520000000  0.5109940000000  0.5737650000000 1.0
C      1  0.5490810000000  0.5203650000000  0.5659840000000 1.0
C      1  0.4655670000000  0.4917410000000  0.5337780000000 1.0
C      1  0.5528730000000  0.4350790000000  0.4517400000000 1.0
C      1  0.5634260000000  0.4826260000000  0.4483280000000 1.0
C      1  0.5157370000000  0.4993390000000  0.4536430000000 1.0
C      1  0.5693120000000  0.5073840000000  0.4362260000000 1.0
C      1  0.4648560000000  0.4676000000000  0.4178140000000 1.0
C      1  0.4471600000000  0.4271280000000  0.4808810000000 1.0
C      1  0.4354980000000  0.4819590000000  0.4773460000000 1.0
C      1  0.4907400000000  0.4176370000000  0.5100320000000 1.0
C      1  0.4759650000000  0.4400820000000  0.4484360000000 1.0
C      1  0.4762710000000  0.4890630000000  0.5061540000000 1.0
C      1  0.4642940000000  0.4989350000000  0.4795260000000 1.0
C      1  0.4585980000000  0.5739730000000  0.4887990000000 1.0
C      1  0.4652620000000  0.5283890000000  0.4844540000000 1.0
C      1  0.4707470000000  0.5696340000000  0.5416140000000 1.0
C      1  0.4593170000000  0.5224260000000  0.5381150000000 1.0
C      1  0.5625920000000  0.4542370000000  0.4937250000000 1.0
C      1  0.4307750000000  0.5114840000000  0.4414340000000 1.0
C      1  0.5169630000000  0.5953290000000  0.5455040000000 1.0
C      1  0.4487590000000  0.4366480000000  0.4518910000000 1.0
C      1  0.4878360000000  0.4573990000000  0.4711740000000 1.0
C      1  0.4927990000000  0.5303680000000  0.4261110000000 1.0
C      1  0.5078980000000  0.4105320000000  0.5340890000000 1.0
C      1  0.4424130000000  0.4612700000000  0.4361750000000 1.0
C      1  0.5776140000000  0.4721360000000  0.5117760000000 1.0
C      1  0.4127850000000  0.5267930000000  0.5302230000000 1.0
C      1  0.4699190000000  0.4952280000000  0.4122080000000 1.0
C      1  0.4566290000000  0.5657170000000  0.5161540000000 1.0
C      1  0.5727670000000  0.5577740000000  0.4935620000000 1.0
C      1  0.5787000000000  0.4999520000000  0.5025730000000 1.0
C      1  0.5080980000000  0.5290830000000  0.4547250000000 1.0
C      1  0.4435080000000  0.4550390000000  0.4918810000000 1.0
C      1  0.4031280000000  0.5107890000000  0.5072880000000 1.0
C      1  0.4997620000000  0.4565270000000  0.5399470000000 1.0
C      1  0.5096590000000  0.5817730000000  0.5679900000000 1.0
C      1  0.4614730000000  0.5613130000000  0.4428900000000 1.0
C      1  0.4821450000000  0.5873650000000  0.4768580000000 1.0
C      1  0.4869710000000  0.4824070000000  0.5515610000000 1.0
C      1  0.4424800000000  0.4696290000000  0.5380030000000 1.0
C      1  0.5091990000000  0.4878340000000  0.5913020000000 1.0
C      1  0.4320380000000  0.5232020000000  0.5516010000000 1.0
C      1  0.4732060000000  0.4600360000000  0.4983130000000 1.0
C      1  0.4575300000000  0.4427620000000  0.5397820000000 1.0
C      1  0.4775760000000  0.4509610000000  0.5843070000000 1.0
C      1  0.5356860000000  0.4129690000000  0.5249980000000 1.0
C      1  0.5535310000000  0.5773360000000  0.4835100000000 1.0
C      1  0.4498440000000  0.5512060000000  0.4680340000000 1.0
C      1  0.5126500000000  0.4989930000000  0.5472080000000 1.0
C      1  0.5457460000000  0.5151020000000  0.4214490000000 1.0
C      1  0.5476110000000  0.4594340000000  0.5456220000000 1.0
C      1  0.5388070000000  0.5860410000000  0.5298840000000 1.0
C      1  0.5140360000000  0.4467340000000  0.4232310000000 1.0
C      1  0.4784870000000  0.5815330000000  0.4499960000000 1.0
C      1  0.4488940000000  0.4887210000000  0.5822240000000 1.0
C      1  0.5354070000000  0.5891940000000  0.5021400000000 1.0
C      1  0.5633810000000  0.5443950000000  0.5185350000000 1.0
C      1  0.4954140000000  0.5304220000000  0.4835210000000 1.0
C      1  0.5183160000000  0.4621490000000  0.5934400000000 1.0
C      1  0.4648730000000  0.4117880000000  0.4950080000000 1.0
C      1  0.5858360000000  0.5212010000000  0.4552700000000 1.0
C      1  0.5464530000000  0.5487890000000  0.5629910000000 1.0
C      1  0.5409730000000  0.4321800000000  0.5466980000000 1.0
C      1  0.5679260000000  0.5043510000000  0.5493030000000 1.0
C      1  0.5322420000000  0.5719360000000  0.4646720000000 1.0
C      1  0.4257030000000  0.5324750000000  0.4625210000000 1.0
C      1  0.4531140000000  0.5368690000000  0.5119020000000 1.0
C      1  0.5127630000000  0.4208700000000  0.4898790000000 1.0
C      1  0.5537230000000  0.5626410000000  0.5391960000000 1.0
C      1  0.5392670000000  0.5407180000000  0.4236490000000 1.0
C      1  0.5411300000000  0.4897030000000  0.4675330000000 1.0
C      1  0.5568900000000  0.4585330000000  0.4358060000000 1.0
C      1  0.4238750000000  0.5430140000000  0.5094690000000 1.0
C      1  0.5874560000000  0.5403940000000  0.4770220000000 1.0
C      1  0.5229580000000  0.4949530000000  0.4225700000000 1.0
C      1  0.5281600000000  0.5502160000000  0.4469800000000 1.0
C      1  0.5024820000000  0.5364510000000  0.5727740000000 1.0
C      1  0.5251650000000  0.4332500000000  0.4468040000000 1.0
C      1  0.4665080000000  0.5401420000000  0.4247980000000 1.0
C      1  0.5698390000000  0.4758920000000  0.5404120000000 1.0
C      1  0.5206010000000  0.5571490000000  0.5738240000000 1.0
C      1  0.4815200000000  0.5420560000000  0.5488730000000 1.0
C      1  0.5334720000000  0.4670010000000  0.4200430000000 1.0
C      1  0.4878540000000  0.4864250000000  0.4629470000000 1.0
C      1  0.4963130000000  0.5059490000000  0.4125810000000 1.0
C      1  0.4511520000000  0.5159850000000  0.4222480000000 1.0
C      1  0.5403680000000  0.5259530000000  0.5091050000000 1.0
C      1  0.4859330000000  0.4487000000000  0.4229160000000 1.0
C      1  0.5598210000000  0.4297310000000  0.4804300000000 1.0
C      1  0.5139110000000  0.4439420000000  0.4724240000000 1.0
C      1  0.4361220000000  0.5114890000000  0.5758760000000 1.0
C      1  0.5351050000000  0.4646350000000  0.4839940000000 1.0
C      1  0.5116070000000  0.4314200000000  0.5558450000000 1.0
C      1  0.5026390000000  0.5039360000000  0.5028640000000 1.0
C      1  0.4292400000000  0.4834600000000  0.4487590000000 1.0
C      1  0.4383010000000  0.4668940000000  0.5675010000000 1.0
C      1  0.5239910000000  0.4735670000000  0.5331510000000 1.0
END
