TITL C-64428-8969-1 141.311011113587 125000 -636.683281792294 0 0 92 (C1) n - 1
REM
REM in /rds/project/t2_vol4/rds-t2-cs072/BORA/CARBON/from-Arr/AIRSS/Generating-Clusters/GAP-ML-2020/Only-C1/SD-CG/HFTN-CG
REM
REM
REM
REM
REM
REM ./C.cell (11c1c37f851c82e70ff6c80c92926a4b)
REM AIRSS Version 0.9.1 bugfix July 2018 build 013d7b7c2542+ Fri, 06 Jul 2018 19:26:36 +0100
REM compiler GCC version 9.3.0
REM options -cpp -mtune=generic -march=x86-64 -g -O0
REM seed 1984903125 1262215695 1692837170 -798424031 2052831116 2146820870 323220212 2055221159 -1433529389 -1225278786 1116544242 1842669691 -1951572957 1683859928 236504784 1604837860 919349979 -1771456737 -1771690937 -2070320359 -1893514717 -755264015 -896497259 249219974 1399197647 1918260959 1080231940 -845594455 -1848073012 273594855 -998268859 759571816 -575931677
REM
CELL 1.54180   50.00000   50.00000   50.00000   90.00000   90.00000   90.00000
LATT -1
SFAC C  
C      1  0.5328300000000  0.5448790000000  0.5948680000000 1.0
C      1  0.5134090000000  0.4883150000000  0.4810040000000 1.0
C      1  0.5459110000000  0.4517170000000  0.4619760000000 1.0
C      1  0.4620680000000  0.5477660000000  0.4935480000000 1.0
C      1  0.5037090000000  0.4661020000000  0.4397550000000 1.0
C      1  0.4212710000000  0.5004280000000  0.4623730000000 1.0
C      1  0.4942840000000  0.5523800000000  0.5302420000000 1.0
C      1  0.4447750000000  0.5447850000000  0.5399770000000 1.0
C      1  0.4859750000000  0.5042020000000  0.5839650000000 1.0
C      1  0.4875250000000  0.5026880000000  0.4736530000000 1.0
C      1  0.4412800000000  0.4613820000000  0.5448590000000 1.0
C      1  0.5073570000000  0.4237710000000  0.5292240000000 1.0
C      1  0.5539550000000  0.5572060000000  0.4777340000000 1.0
C      1  0.4433940000000  0.4836660000000  0.5651560000000 1.0
C      1  0.4308250000000  0.5281480000000  0.4622770000000 1.0
C      1  0.4834020000000  0.4586200000000  0.5676850000000 1.0
C      1  0.5058350000000  0.5285520000000  0.5103860000000 1.0
C      1  0.5013900000000  0.4386730000000  0.4810230000000 1.0
C      1  0.5093610000000  0.5756620000000  0.5195070000000 1.0
C      1  0.5078680000000  0.5468270000000  0.4643930000000 1.0
C      1  0.5281450000000  0.5198000000000  0.6022060000000 1.0
C      1  0.4971920000000  0.5562270000000  0.4380310000000 1.0
C      1  0.5679460000000  0.4605380000000  0.5484140000000 1.0
C      1  0.5103540000000  0.4790640000000  0.5084660000000 1.0
C      1  0.4757780000000  0.5236740000000  0.4132220000000 1.0
C      1  0.4779940000000  0.5299660000000  0.5736780000000 1.0
C      1  0.4901490000000  0.5316620000000  0.4841400000000 1.0
C      1  0.5569280000000  0.5424950000000  0.5021860000000 1.0
C      1  0.4570680000000  0.5621300000000  0.4695180000000 1.0
C      1  0.5402100000000  0.4757900000000  0.5149490000000 1.0
C      1  0.4651130000000  0.4643100000000  0.4932730000000 1.0
C      1  0.4692010000000  0.4975990000000  0.4246270000000 1.0
C      1  0.4168250000000  0.4669040000000  0.4962290000000 1.0
C      1  0.5429880000000  0.5441970000000  0.4349810000000 1.0
C      1  0.4754150000000  0.4367230000000  0.4624530000000 1.0
C      1  0.4340040000000  0.5095410000000  0.5595050000000 1.0
C      1  0.4138210000000  0.4946020000000  0.4895400000000 1.0
C      1  0.5275260000000  0.5253500000000  0.4542690000000 1.0
C      1  0.5154300000000  0.5080320000000  0.4318630000000 1.0
C      1  0.4765490000000  0.4531330000000  0.4389800000000 1.0
C      1  0.4668560000000  0.4468600000000  0.5477930000000 1.0
C      1  0.4703400000000  0.5466520000000  0.4297440000000 1.0
C      1  0.4648970000000  0.5531640000000  0.5224860000000 1.0
C      1  0.5053590000000  0.5277620000000  0.4126220000000 1.0
C      1  0.5348750000000  0.5076910000000  0.4772910000000 1.0
C      1  0.4312450000000  0.4753110000000  0.4498970000000 1.0
C      1  0.5574750000000  0.4779550000000  0.5666650000000 1.0
C      1  0.4265870000000  0.5148500000000  0.5080220000000 1.0
C      1  0.5806090000000  0.5271600000000  0.5102060000000 1.0
C      1  0.5770660000000  0.4886810000000  0.5491340000000 1.0
C      1  0.5233160000000  0.5827170000000  0.4999180000000 1.0
C      1  0.5514450000000  0.4721850000000  0.4194720000000 1.0
C      1  0.4734580000000  0.5010630000000  0.5319680000000 1.0
C      1  0.5118190000000  0.4575030000000  0.5649220000000 1.0
C      1  0.5565060000000  0.4729800000000  0.4466740000000 1.0
C      1  0.4696860000000  0.4818920000000  0.5776810000000 1.0
C      1  0.5234220000000  0.5026510000000  0.5455260000000 1.0
C      1  0.5351470000000  0.5230550000000  0.5043720000000 1.0
C      1  0.5463310000000  0.4326060000000  0.5059630000000 1.0
C      1  0.4893570000000  0.4553170000000  0.5043860000000 1.0
C      1  0.5467810000000  0.4495170000000  0.5311510000000 1.0
C      1  0.4822540000000  0.4363890000000  0.5264830000000 1.0
C      1  0.5725300000000  0.5099210000000  0.5316490000000 1.0
C      1  0.4569200000000  0.5018960000000  0.5108580000000 1.0
C      1  0.5446480000000  0.5042190000000  0.5255880000000 1.0
C      1  0.4910960000000  0.4950080000000  0.4438010000000 1.0
C      1  0.5005310000000  0.5017830000000  0.5263000000000 1.0
C      1  0.5141110000000  0.5002070000000  0.5892210000000 1.0
C      1  0.5786660000000  0.5178080000000  0.4652310000000 1.0
C      1  0.4525110000000  0.4436310000000  0.4769660000000 1.0
C      1  0.4249400000000  0.5235700000000  0.5352710000000 1.0
C      1  0.5272640000000  0.4826160000000  0.5682220000000 1.0
C      1  0.5233630000000  0.4392650000000  0.5466050000000 1.0
C      1  0.4543490000000  0.4740580000000  0.4324720000000 1.0
C      1  0.5197870000000  0.4234950000000  0.5018220000000 1.0
C      1  0.4970530000000  0.5480460000000  0.5604670000000 1.0
C      1  0.4258780000000  0.4624070000000  0.5222870000000 1.0
C      1  0.4277230000000  0.4547220000000  0.4704590000000 1.0
C      1  0.4645450000000  0.4913780000000  0.4862880000000 1.0
C      1  0.5174160000000  0.4577250000000  0.4647460000000 1.0
C      1  0.5275550000000  0.5673640000000  0.4769150000000 1.0
C      1  0.5607580000000  0.4928860000000  0.4697890000000 1.0
C      1  0.4518250000000  0.5317590000000  0.5648440000000 1.0
C      1  0.4341760000000  0.5357880000000  0.4889610000000 1.0
C      1  0.5259530000000  0.4807560000000  0.4233020000000 1.0
C      1  0.5194190000000  0.5511910000000  0.4200050000000 1.0
C      1  0.5623080000000  0.5424810000000  0.4546250000000 1.0
C      1  0.5953350000000  0.5229310000000  0.4868630000000 1.0
C      1  0.5599520000000  0.4463350000000  0.4853530000000 1.0
C      1  0.5198960000000  0.5547070000000  0.5739780000000 1.0
C      1  0.5608850000000  0.4731080000000  0.4924640000000 1.0
C      1  0.4487140000000  0.5474740000000  0.4481370000000 1.0
END
