TITL C-64426-9036-11 -77.2696718160696 125000 -575.345789991022 0 0 83 (C1) n - 1
REM
REM in /rds/project/t2_vol4/rds-t2-cs072/BORA/CARBON/from-Arr/AIRSS/Generating-Clusters/GAP-ML-2020/Only-C1/SD-CG/HFTN-CG
REM
REM
REM
REM
REM
REM ./C.cell (11c1c37f851c82e70ff6c80c92926a4b)
REM AIRSS Version 0.9.1 bugfix July 2018 build 013d7b7c2542+ Fri, 06 Jul 2018 19:26:36 +0100
REM compiler GCC version 9.3.0
REM options -cpp -mtune=generic -march=x86-64 -g -O0
REM seed -208346252 700900064 1282258574 -1671042091 -761545101 1289438194 444832256 1007580039 -333579880 1066134974 -1585714804 -1667663397 2035971491 1987114356 -24755839 -413036736 1755490610 -2143209580 -1987981911 -1081626273 1989370505 791238967 -87970591 802364987 -501926367 1471804141 -1890607251 -1358847116 2015759139 123300132 1735948715 -588561314 -1003062193
REM
CELL 1.54180   50.00000   50.00000   50.00000   90.00000   90.00000   90.00000
LATT -1
SFAC C  
C      1  0.5348630000000  0.4553390000000  0.4343970000000 1.0
C      1  0.4864200000000  0.4679610000000  0.5017340000000 1.0
C      1  0.5065370000000  0.4265820000000  0.4937050000000 1.0
C      1  0.4822430000000  0.4411230000000  0.4874510000000 1.0
C      1  0.5631550000000  0.4577110000000  0.5006170000000 1.0
C      1  0.5373930000000  0.5420210000000  0.5678410000000 1.0
C      1  0.5734160000000  0.5111030000000  0.4671280000000 1.0
C      1  0.4584770000000  0.5031740000000  0.5802930000000 1.0
C      1  0.5212280000000  0.5211960000000  0.4779750000000 1.0
C      1  0.4688250000000  0.5171290000000  0.4208530000000 1.0
C      1  0.4423190000000  0.5420910000000  0.4710000000000 1.0
C      1  0.4606990000000  0.5578290000000  0.5242090000000 1.0
C      1  0.4717300000000  0.5676140000000  0.4988250000000 1.0
C      1  0.4896480000000  0.4453260000000  0.4416280000000 1.0
C      1  0.4979910000000  0.5767540000000  0.5041610000000 1.0
C      1  0.5018250000000  0.4827380000000  0.4797190000000 1.0
C      1  0.5167620000000  0.4374220000000  0.4477740000000 1.0
C      1  0.4347280000000  0.5133250000000  0.5378980000000 1.0
C      1  0.5573750000000  0.5234620000000  0.5568440000000 1.0
C      1  0.5307290000000  0.5388900000000  0.5000220000000 1.0
C      1  0.4886970000000  0.5354430000000  0.4299080000000 1.0
C      1  0.4923250000000  0.5095110000000  0.4777060000000 1.0
C      1  0.4698590000000  0.4444720000000  0.4618970000000 1.0
C      1  0.4451860000000  0.4597520000000  0.4585930000000 1.0
C      1  0.4455780000000  0.4802510000000  0.4381930000000 1.0
C      1  0.5250790000000  0.4500720000000  0.5646940000000 1.0
C      1  0.4402910000000  0.5182580000000  0.5653190000000 1.0
C      1  0.4696020000000  0.4875220000000  0.4245250000000 1.0
C      1  0.4826100000000  0.4254360000000  0.5372760000000 1.0
C      1  0.4810990000000  0.5623480000000  0.5449950000000 1.0
C      1  0.4655020000000  0.5590790000000  0.4713550000000 1.0
C      1  0.4720610000000  0.5114460000000  0.4990070000000 1.0
C      1  0.5280610000000  0.5793000000000  0.5405530000000 1.0
C      1  0.5123840000000  0.5297660000000  0.5715580000000 1.0
C      1  0.5277760000000  0.4923370000000  0.4863140000000 1.0
C      1  0.4800000000000  0.4362160000000  0.5620660000000 1.0
C      1  0.5582140000000  0.5279440000000  0.4486770000000 1.0
C      1  0.5135650000000  0.5608160000000  0.4615120000000 1.0
C      1  0.4870720000000  0.4595450000000  0.5754000000000 1.0
C      1  0.4411810000000  0.5248090000000  0.4237250000000 1.0
C      1  0.4276990000000  0.5037530000000  0.4374460000000 1.0
C      1  0.5021110000000  0.5769390000000  0.5325280000000 1.0
C      1  0.5636850000000  0.5409500000000  0.5346100000000 1.0
C      1  0.5455200000000  0.4984130000000  0.5562110000000 1.0
C      1  0.4273290000000  0.4643040000000  0.4799970000000 1.0
C      1  0.5269150000000  0.4924690000000  0.5163310000000 1.0
C      1  0.5247360000000  0.4451310000000  0.5363910000000 1.0
C      1  0.5269870000000  0.4313340000000  0.4738160000000 1.0
C      1  0.4869410000000  0.5563360000000  0.4515340000000 1.0
C      1  0.5131300000000  0.4702000000000  0.5785050000000 1.0
C      1  0.4414060000000  0.5362130000000  0.5214690000000 1.0
C      1  0.5185090000000  0.5651350000000  0.4889250000000 1.0
C      1  0.5156770000000  0.5265080000000  0.4287290000000 1.0
C      1  0.4635400000000  0.5305110000000  0.5754140000000 1.0
C      1  0.5302970000000  0.5377580000000  0.4515460000000 1.0
C      1  0.5046140000000  0.4736550000000  0.5260300000000 1.0
C      1  0.5687050000000  0.4874620000000  0.4495100000000 1.0
C      1  0.4696150000000  0.4809950000000  0.5649030000000 1.0
C      1  0.5295100000000  0.5021330000000  0.4215160000000 1.0
C      1  0.5711220000000  0.4859260000000  0.5080620000000 1.0
C      1  0.5601320000000  0.5342910000000  0.5076870000000 1.0
C      1  0.4445530000000  0.5276340000000  0.4952650000000 1.0
C      1  0.4867120000000  0.5438450000000  0.5673050000000 1.0
C      1  0.5073400000000  0.4248670000000  0.5224740000000 1.0
C      1  0.4298800000000  0.5310340000000  0.4482380000000 1.0
C      1  0.5531740000000  0.4464680000000  0.4760480000000 1.0
C      1  0.4912350000000  0.4687260000000  0.4244920000000 1.0
C      1  0.5571570000000  0.4612260000000  0.4515590000000 1.0
C      1  0.5159270000000  0.4992850000000  0.5658370000000 1.0
C      1  0.4626880000000  0.4842770000000  0.5026200000000 1.0
C      1  0.5174840000000  0.5210680000000  0.5211580000000 1.0
C      1  0.5727610000000  0.5114750000000  0.4949520000000 1.0
C      1  0.5452760000000  0.5608420000000  0.5470160000000 1.0
C      1  0.4484660000000  0.4675260000000  0.5485150000000 1.0
C      1  0.5523450000000  0.4835960000000  0.5316620000000 1.0
C      1  0.4893140000000  0.5156080000000  0.5251230000000 1.0
C      1  0.4346760000000  0.4850150000000  0.5299020000000 1.0
C      1  0.4348710000000  0.4750650000000  0.5027170000000 1.0
C      1  0.4924100000000  0.4928100000000  0.5452550000000 1.0
C      1  0.5501720000000  0.4545610000000  0.5260120000000 1.0
C      1  0.5559540000000  0.5049900000000  0.4308810000000 1.0
C      1  0.5190250000000  0.4753210000000  0.4210880000000 1.0
C      1  0.4578890000000  0.4412310000000  0.5433760000000 1.0
END
