TITL C-64426-9036-3 -0.0229786499752163 125000 -146.063475687856 0 0 23 (C1) n - 1
REM
REM in /rds/project/t2_vol4/rds-t2-cs072/BORA/CARBON/from-Arr/AIRSS/Generating-Clusters/GAP-ML-2020/Only-C1/SD-CG/HFTN-CG
REM
REM
REM
REM
REM
REM ./C.cell (11c1c37f851c82e70ff6c80c92926a4b)
REM AIRSS Version 0.9.1 bugfix July 2018 build 013d7b7c2542+ Fri, 06 Jul 2018 19:26:36 +0100
REM compiler GCC version 9.3.0
REM options -cpp -mtune=generic -march=x86-64 -g -O0
REM seed -2129924855 -1240394698 -313225869 1907756157 -776349001 304638333 82007618 -1486798246 457715307 2055275922 -492567409 997616815 -365376802 528838147 1901497182 -1931788029 -922064956 -1732333563 -1739066155 17170882 479423486 -1647391409 334041032 -258560272 -1513263928 1800553662 -335776326 1872255745 1231847032 -1502628850 991312099 -1112130459 -85257812
REM
CELL 1.54180   50.00000   50.00000   50.00000   90.00000   90.00000   90.00000
LATT -1
SFAC C  
C      1  0.5433080000000  0.4945500000000  0.5151510000000 1.0
C      1  0.5329470000000  0.4417150000000  0.4846010000000 1.0
C      1  0.4764560000000  0.5273790000000  0.4732140000000 1.0
C      1  0.5503400000000  0.5285790000000  0.4771400000000 1.0
C      1  0.5470400000000  0.5129670000000  0.4969810000000 1.0
C      1  0.4876560000000  0.5264510000000  0.5484030000000 1.0
C      1  0.5266310000000  0.4593590000000  0.4610180000000 1.0
C      1  0.4796830000000  0.5485930000000  0.4864520000000 1.0
C      1  0.4721240000000  0.5511420000000  0.5127890000000 1.0
C      1  0.4467850000000  0.5399710000000  0.5166630000000 1.0
C      1  0.5385360000000  0.4781700000000  0.4461710000000 1.0
C      1  0.4822530000000  0.4794140000000  0.4615190000000 1.0
C      1  0.4870480000000  0.5025150000000  0.5568000000000 1.0
C      1  0.4350110000000  0.5179900000000  0.5041840000000 1.0
C      1  0.5313250000000  0.4761200000000  0.5272070000000 1.0
C      1  0.4396240000000  0.5163700000000  0.5309400000000 1.0
C      1  0.5462680000000  0.4998780000000  0.4352740000000 1.0
C      1  0.4995430000000  0.4610520000000  0.4690450000000 1.0
C      1  0.5067160000000  0.4413050000000  0.4921320000000 1.0
C      1  0.4870250000000  0.5488280000000  0.5360600000000 1.0
C      1  0.5135500000000  0.4660120000000  0.5431050000000 1.0
C      1  0.4727230000000  0.5029750000000  0.4657960000000 1.0
C      1  0.4974070000000  0.4786650000000  0.5593530000000 1.0
END
