TITL C-65687-5545-9 -0.127676451197953 125000 -564.088636953208 0 0 82 (C1) n - 1
REM
REM in /rds/project/t2_vol4/rds-t2-cs072/BORA/CARBON/from-Arr/AIRSS/Generating-Clusters/GAP-ML-2020/Only-C1/SD-CG/HFTN-CG
REM
REM
REM
REM
REM
REM ./C.cell (11c1c37f851c82e70ff6c80c92926a4b)
REM AIRSS Version 0.9.1 bugfix July 2018 build 013d7b7c2542+ Fri, 06 Jul 2018 19:26:36 +0100
REM compiler GCC version 9.3.0
REM options -cpp -mtune=generic -march=x86-64 -g -O0
REM seed 1545027076 -2005294900 986250479 -1414318642 -2040885388 1837193902 168474400 1277467639 -735994030 -1517214484 1085455662 1126905032 1112367966 -1759297839 -1978108272 275886300 -1832272222 98313811 1821687376 -1341326625 -2073723148 1209676696 -2049767123 -933238195 803360275 1436735425 2087575624 873957353 -1854417706 2124556928 -1086655703 -337796042 500496303
REM
CELL 1.54180   50.00000   50.00000   50.00000   90.00000   90.00000   90.00000
LATT -1
SFAC C  
C      1  0.5611340000000  0.5511630000000  0.4974870000000 1.0
C      1  0.5179040000000  0.5379230000000  0.5751140000000 1.0
C      1  0.5119550000000  0.5103320000000  0.5770600000000 1.0
C      1  0.4339330000000  0.4992100000000  0.4575410000000 1.0
C      1  0.4410850000000  0.5392730000000  0.5165890000000 1.0
C      1  0.5163750000000  0.5453220000000  0.5105490000000 1.0
C      1  0.5567550000000  0.5501230000000  0.4690500000000 1.0
C      1  0.4222080000000  0.5071560000000  0.4823440000000 1.0
C      1  0.4443520000000  0.5299030000000  0.5606580000000 1.0
C      1  0.5105480000000  0.4678350000000  0.4303230000000 1.0
C      1  0.5349320000000  0.5670340000000  0.5419140000000 1.0
C      1  0.4951560000000  0.5523690000000  0.5645380000000 1.0
C      1  0.4738930000000  0.4931090000000  0.4218420000000 1.0
C      1  0.4817750000000  0.5181180000000  0.5110670000000 1.0
C      1  0.5389370000000  0.4489110000000  0.5040810000000 1.0
C      1  0.4995430000000  0.5309010000000  0.4903060000000 1.0
C      1  0.5506910000000  0.5282360000000  0.4345560000000 1.0
C      1  0.5633900000000  0.4678610000000  0.5091220000000 1.0
C      1  0.5661220000000  0.4855300000000  0.5318810000000 1.0
C      1  0.5057800000000  0.4159530000000  0.5100040000000 1.0
C      1  0.5713550000000  0.5139560000000  0.5273840000000 1.0
C      1  0.5301990000000  0.4219270000000  0.5494400000000 1.0
C      1  0.5055710000000  0.5712290000000  0.5442960000000 1.0
C      1  0.5409520000000  0.5617280000000  0.5139810000000 1.0
C      1  0.4950550000000  0.4429240000000  0.4697060000000 1.0
C      1  0.5418540000000  0.5463640000000  0.5604720000000 1.0
C      1  0.5464600000000  0.4516570000000  0.4576390000000 1.0
C      1  0.5242030000000  0.4875150000000  0.4753210000000 1.0
C      1  0.5075700000000  0.5092880000000  0.4725480000000 1.0
C      1  0.5751830000000  0.5256020000000  0.5026460000000 1.0
C      1  0.4253870000000  0.4599070000000  0.4972610000000 1.0
C      1  0.4879470000000  0.5050060000000  0.5613800000000 1.0
C      1  0.5499970000000  0.5220650000000  0.5457380000000 1.0
C      1  0.5094110000000  0.4385910000000  0.5568930000000 1.0
C      1  0.4651340000000  0.4695880000000  0.4368190000000 1.0
C      1  0.5142010000000  0.5151570000000  0.4151710000000 1.0
C      1  0.4289040000000  0.4959200000000  0.5269500000000 1.0
C      1  0.4732840000000  0.4728820000000  0.5094230000000 1.0
C      1  0.4831610000000  0.4366850000000  0.5436040000000 1.0
C      1  0.4688100000000  0.4969890000000  0.4942550000000 1.0
C      1  0.5001380000000  0.5046500000000  0.5305800000000 1.0
C      1  0.4508130000000  0.5414640000000  0.4693260000000 1.0
C      1  0.5006900000000  0.4898030000000  0.4151680000000 1.0
C      1  0.4657070000000  0.4549540000000  0.5566500000000 1.0
C      1  0.5012880000000  0.4778630000000  0.5190170000000 1.0
C      1  0.4873370000000  0.5757670000000  0.4916290000000 1.0
C      1  0.4968530000000  0.5346380000000  0.4281590000000 1.0
C      1  0.4731940000000  0.4462970000000  0.4911570000000 1.0
C      1  0.5314600000000  0.4736060000000  0.4484030000000 1.0
C      1  0.4818710000000  0.4278550000000  0.5145510000000 1.0
C      1  0.5680900000000  0.5252070000000  0.4583890000000 1.0
C      1  0.4829800000000  0.4753530000000  0.5687550000000 1.0
C      1  0.4488310000000  0.5224130000000  0.4476870000000 1.0
C      1  0.5282130000000  0.4866070000000  0.5718990000000 1.0
C      1  0.5212900000000  0.4726490000000  0.4999380000000 1.0
C      1  0.4699390000000  0.5421470000000  0.5253430000000 1.0
C      1  0.4888070000000  0.4539340000000  0.4434200000000 1.0
C      1  0.4962010000000  0.5711870000000  0.4653330000000 1.0
C      1  0.4338100000000  0.5327320000000  0.4901150000000 1.0
C      1  0.5213920000000  0.5240060000000  0.5298080000000 1.0
C      1  0.5710200000000  0.4598530000000  0.4645590000000 1.0
C      1  0.5380900000000  0.5521710000000  0.4466670000000 1.0
C      1  0.5098130000000  0.5566130000000  0.4440750000000 1.0
C      1  0.4724520000000  0.5334130000000  0.5566420000000 1.0
C      1  0.4449080000000  0.4541230000000  0.4780290000000 1.0
C      1  0.4181190000000  0.4878180000000  0.5022740000000 1.0
C      1  0.4398740000000  0.4534680000000  0.5438350000000 1.0
C      1  0.5503850000000  0.4934750000000  0.5557600000000 1.0
C      1  0.5292280000000  0.4269550000000  0.5222140000000 1.0
C      1  0.4439760000000  0.4714760000000  0.4552320000000 1.0
C      1  0.4704980000000  0.5205340000000  0.4292890000000 1.0
C      1  0.4306910000000  0.5224180000000  0.5375740000000 1.0
C      1  0.5418950000000  0.5160170000000  0.4122330000000 1.0
C      1  0.4507910000000  0.4773580000000  0.5316100000000 1.0
C      1  0.5741410000000  0.4787960000000  0.4840480000000 1.0
C      1  0.4832410000000  0.4958770000000  0.4703690000000 1.0
C      1  0.4918190000000  0.5643240000000  0.5192180000000 1.0
C      1  0.4765320000000  0.5523400000000  0.4769640000000 1.0
C      1  0.5265860000000  0.4401300000000  0.4760090000000 1.0
C      1  0.4291190000000  0.4455750000000  0.5209240000000 1.0
C      1  0.5090820000000  0.4646410000000  0.5702020000000 1.0
C      1  0.5777310000000  0.5082440000000  0.4799930000000 1.0
END
