TITL C-65696-5538-4 -0.220268136910932 125000 -727.751494717497 0 0 105 (C1) n - 1
REM
REM in /rds/project/t2_vol4/rds-t2-cs072/BORA/CARBON/from-Arr/AIRSS/Generating-Clusters/GAP-ML-2020/Only-C1/SD-CG/HFTN-CG
REM
REM
REM
REM
REM
REM ./C.cell (11c1c37f851c82e70ff6c80c92926a4b)
REM AIRSS Version 0.9.1 bugfix July 2018 build 013d7b7c2542+ Fri, 06 Jul 2018 19:26:36 +0100
REM compiler GCC version 9.3.0
REM options -cpp -mtune=generic -march=x86-64 -g -O0
REM seed -557198494 330530080 -918666864 -1150622320 92873844 1476772231 728466587 -1902803656 1694051284 230419460 -1735350547 401208071 1637084812 -202259522 364970689 1739729536 1416505251 -1043134025 -707174082 -183890737 1874980906 -1525256112 1284795740 -569995422 964542221 1594525760 -2069427971 -900231166 -763490153 -209442498 -1252937178 -1060265730 1244984458
REM
CELL 1.54180   50.00000   50.00000   50.00000   90.00000   90.00000   90.00000
LATT -1
SFAC C  
C      1  0.4716480000000  0.5259650000000  0.5276020000000 1.0
C      1  0.4289830000000  0.5407240000000  0.5330280000000 1.0
C      1  0.5591250000000  0.5503670000000  0.4664940000000 1.0
C      1  0.4749090000000  0.4452240000000  0.4981520000000 1.0
C      1  0.4595450000000  0.5656110000000  0.5036370000000 1.0
C      1  0.5189920000000  0.4666690000000  0.4176110000000 1.0
C      1  0.4655610000000  0.4666180000000  0.5196950000000 1.0
C      1  0.5492740000000  0.5143440000000  0.4316280000000 1.0
C      1  0.5247430000000  0.5094070000000  0.4746130000000 1.0
C      1  0.5388600000000  0.4311660000000  0.5225660000000 1.0
C      1  0.5668770000000  0.5236790000000  0.5039750000000 1.0
C      1  0.4471880000000  0.5770960000000  0.4312960000000 1.0
C      1  0.4435280000000  0.4897680000000  0.5731400000000 1.0
C      1  0.4161220000000  0.4901000000000  0.5359970000000 1.0
C      1  0.4529050000000  0.5392550000000  0.4621840000000 1.0
C      1  0.5196190000000  0.4224390000000  0.5438630000000 1.0
C      1  0.4271060000000  0.4827390000000  0.4632150000000 1.0
C      1  0.4834280000000  0.5543450000000  0.5188000000000 1.0
C      1  0.4842990000000  0.5357970000000  0.4558770000000 1.0
C      1  0.5573220000000  0.5499680000000  0.4946450000000 1.0
C      1  0.5414870000000  0.5082380000000  0.5200190000000 1.0
C      1  0.4354980000000  0.5486730000000  0.5067140000000 1.0
C      1  0.5698260000000  0.5334720000000  0.5644190000000 1.0
C      1  0.4638200000000  0.5773210000000  0.4784310000000 1.0
C      1  0.4437960000000  0.4940400000000  0.4429550000000 1.0
C      1  0.4702720000000  0.4879170000000  0.5821230000000 1.0
C      1  0.5499460000000  0.4676520000000  0.4962110000000 1.0
C      1  0.5908680000000  0.4855210000000  0.5124630000000 1.0
C      1  0.5756900000000  0.5110890000000  0.4772380000000 1.0
C      1  0.4212520000000  0.4555330000000  0.5018550000000 1.0
C      1  0.4846050000000  0.4208660000000  0.5123340000000 1.0
C      1  0.4200640000000  0.5013570000000  0.4833230000000 1.0
C      1  0.5685830000000  0.4716700000000  0.4730110000000 1.0
C      1  0.5186390000000  0.5238620000000  0.5292500000000 1.0
C      1  0.5329440000000  0.4423330000000  0.4958160000000 1.0
C      1  0.5104000000000  0.4124470000000  0.4697210000000 1.0
C      1  0.4509570000000  0.4987260000000  0.4168720000000 1.0
C      1  0.4909840000000  0.4812890000000  0.5259710000000 1.0
C      1  0.4321970000000  0.4732730000000  0.5538040000000 1.0
C      1  0.5319360000000  0.5641780000000  0.5034480000000 1.0
C      1  0.5659720000000  0.5250130000000  0.4543490000000 1.0
C      1  0.5473030000000  0.5491200000000  0.5661950000000 1.0
C      1  0.4809560000000  0.4662860000000  0.4453750000000 1.0
C      1  0.4833960000000  0.5136610000000  0.5852910000000 1.0
C      1  0.5072360000000  0.4652260000000  0.4591580000000 1.0
C      1  0.4483450000000  0.4881380000000  0.5121660000000 1.0
C      1  0.4937760000000  0.5627530000000  0.4426850000000 1.0
C      1  0.5675230000000  0.4697180000000  0.5231870000000 1.0
C      1  0.4973130000000  0.5515480000000  0.5640400000000 1.0
C      1  0.4718400000000  0.4930360000000  0.4570110000000 1.0
C      1  0.4984990000000  0.5680280000000  0.5414080000000 1.0
C      1  0.5226970000000  0.5573410000000  0.4355780000000 1.0
C      1  0.5085350000000  0.5429300000000  0.5051360000000 1.0
C      1  0.5602480000000  0.4444640000000  0.5358980000000 1.0
C      1  0.4975580000000  0.4056700000000  0.4929530000000 1.0
C      1  0.5109050000000  0.5099140000000  0.5805580000000 1.0
C      1  0.5036500000000  0.4559830000000  0.4877760000000 1.0
C      1  0.4885130000000  0.4672250000000  0.5745470000000 1.0
C      1  0.4906340000000  0.5092960000000  0.4400630000000 1.0
C      1  0.5192070000000  0.4439210000000  0.4371360000000 1.0
C      1  0.5436170000000  0.5745280000000  0.5540990000000 1.0
C      1  0.4980410000000  0.4250820000000  0.4475790000000 1.0
C      1  0.4478260000000  0.5670730000000  0.4571270000000 1.0
C      1  0.4162650000000  0.5175090000000  0.5444680000000 1.0
C      1  0.4731550000000  0.4387050000000  0.4510650000000 1.0
C      1  0.5091160000000  0.6021300000000  0.4742750000000 1.0
C      1  0.5306500000000  0.4919650000000  0.4979750000000 1.0
C      1  0.5887140000000  0.5119400000000  0.5231190000000 1.0
C      1  0.4604560000000  0.5119110000000  0.5028120000000 1.0
C      1  0.5170900000000  0.4936330000000  0.4515070000000 1.0
C      1  0.4823940000000  0.5020720000000  0.4853380000000 1.0
C      1  0.5393550000000  0.4852330000000  0.4329500000000 1.0
C      1  0.5414930000000  0.4747220000000  0.5659030000000 1.0
C      1  0.5566020000000  0.4653240000000  0.4485600000000 1.0
C      1  0.4934400000000  0.5083140000000  0.5341730000000 1.0
C      1  0.4785480000000  0.4984200000000  0.4128590000000 1.0
C      1  0.5555740000000  0.4906460000000  0.5434660000000 1.0
C      1  0.5326900000000  0.4263140000000  0.5688940000000 1.0
C      1  0.4387510000000  0.5271640000000  0.4856610000000 1.0
C      1  0.4497520000000  0.4528640000000  0.5424040000000 1.0
C      1  0.5332360000000  0.5350710000000  0.4246860000000 1.0
C      1  0.5026210000000  0.4820420000000  0.4998410000000 1.0
C      1  0.5275160000000  0.5819260000000  0.4791450000000 1.0
C      1  0.4184630000000  0.4840840000000  0.5080310000000 1.0
C      1  0.4716370000000  0.5722290000000  0.4258320000000 1.0
C      1  0.4900690000000  0.5831940000000  0.4668280000000 1.0
C      1  0.5497330000000  0.4473400000000  0.5632560000000 1.0
C      1  0.4322800000000  0.4408780000000  0.5220020000000 1.0
C      1  0.5158070000000  0.4815710000000  0.5768820000000 1.0
C      1  0.5393650000000  0.5676200000000  0.4566660000000 1.0
C      1  0.4531890000000  0.5340210000000  0.5524450000000 1.0
C      1  0.4916800000000  0.4738430000000  0.4172420000000 1.0
C      1  0.5261290000000  0.5738210000000  0.5333300000000 1.0
C      1  0.4913590000000  0.4264860000000  0.5403420000000 1.0
C      1  0.5366000000000  0.4250330000000  0.4721120000000 1.0
C      1  0.5443740000000  0.4393300000000  0.4488410000000 1.0
C      1  0.4742500000000  0.5382970000000  0.5732750000000 1.0
C      1  0.5208250000000  0.5334790000000  0.5640420000000 1.0
C      1  0.5012990000000  0.5261100000000  0.4804670000000 1.0
C      1  0.4347840000000  0.5156900000000  0.5661990000000 1.0
C      1  0.5896390000000  0.4873230000000  0.4832540000000 1.0
C      1  0.4764910000000  0.4450040000000  0.5569660000000 1.0
C      1  0.4327280000000  0.4561330000000  0.4752630000000 1.0
C      1  0.4572250000000  0.4417540000000  0.4741780000000 1.0
C      1  0.5772670000000  0.5121660000000  0.5501330000000 1.0
END
