TITL C-65712-5469-1 20.4416605697803 125000 -157.945939199802 0 0 24 (C1) n - 1
REM
REM in /rds/project/t2_vol4/rds-t2-cs072/BORA/CARBON/from-Arr/AIRSS/Generating-Clusters/GAP-ML-2020/Only-C1/SD-CG/HFTN-CG
REM
REM
REM
REM
REM
REM ./C.cell (11c1c37f851c82e70ff6c80c92926a4b)
REM AIRSS Version 0.9.1 bugfix July 2018 build 013d7b7c2542+ Fri, 06 Jul 2018 19:26:36 +0100
REM compiler GCC version 9.3.0
REM options -cpp -mtune=generic -march=x86-64 -g -O0
REM seed -1904456577 1010846603 1819840384 632296646 1064469408 531603494 -772865694 -402896859 1344649345 307416361 2045355740 -108965507 -1701850047 181767158 -1949021099 -503498522 -395275171 1334979629 1966265711 1911304246 -537056983 -11989375 1448608475 1271279968 -1239827985 2118593880 -1980612619 -1203800673 624179152 -1116665332 -1974969468 1871681184 452553506
REM
CELL 1.54180   50.00000   50.00000   50.00000   90.00000   90.00000   90.00000
LATT -1
SFAC C  
C      1  0.5179090000000  0.5639810000000  0.4873250000000 1.0
C      1  0.4821200000000  0.4379550000000  0.4751440000000 1.0
C      1  0.5131090000000  0.5626200000000  0.4620700000000 1.0
C      1  0.4898840000000  0.4927180000000  0.5407270000000 1.0
C      1  0.4887140000000  0.5425260000000  0.5485190000000 1.0
C      1  0.4780460000000  0.4698590000000  0.5255160000000 1.0
C      1  0.5195800000000  0.4882640000000  0.5391700000000 1.0
C      1  0.5243370000000  0.4620450000000  0.5304570000000 1.0
C      1  0.5303710000000  0.5061160000000  0.4705940000000 1.0
C      1  0.5089650000000  0.5134520000000  0.4540730000000 1.0
C      1  0.5351370000000  0.5096500000000  0.5338520000000 1.0
C      1  0.4701100000000  0.4782460000000  0.4547140000000 1.0
C      1  0.5004310000000  0.4532840000000  0.5173180000000 1.0
C      1  0.4611960000000  0.4555330000000  0.4685290000000 1.0
C      1  0.4985350000000  0.4373330000000  0.4941480000000 1.0
C      1  0.4423230000000  0.4584220000000  0.4907890000000 1.0
C      1  0.5447550000000  0.5146200000000  0.4891760000000 1.0
C      1  0.4823680000000  0.5174830000000  0.5474350000000 1.0
C      1  0.5078110000000  0.5404680000000  0.4496250000000 1.0
C      1  0.5366230000000  0.5271480000000  0.5129540000000 1.0
C      1  0.4880290000000  0.4945220000000  0.4506250000000 1.0
C      1  0.5212780000000  0.5518710000000  0.5119140000000 1.0
C      1  0.5040120000000  0.5562340000000  0.5332900000000 1.0
C      1  0.4543590000000  0.4656490000000  0.5120350000000 1.0
END
