TITL C-65708-5580-3 -10.5991089463261 125000 -908.030605011824 0 0 129 (C1) n - 1
REM
REM in /rds/project/t2_vol4/rds-t2-cs072/BORA/CARBON/from-Arr/AIRSS/Generating-Clusters/GAP-ML-2020/Only-C1/SD-CG/HFTN-CG
REM
REM
REM
REM
REM
REM ./C.cell (11c1c37f851c82e70ff6c80c92926a4b)
REM AIRSS Version 0.9.1 bugfix July 2018 build 013d7b7c2542+ Fri, 06 Jul 2018 19:26:36 +0100
REM compiler GCC version 9.3.0
REM options -cpp -mtune=generic -march=x86-64 -g -O0
REM seed 544221325 -1187596141 -882477386 1566522884 2139996428 -842364176 -1912239104 1702303182 -1382811536 686894444 -324106785 1209605130 1487496781 -715992740 673188324 109722484 -1803458887 -516202705 -1227018160 -1701601949 619492258 695523291 1414445884 226259608 965738758 1196036832 -1846488175 1195821539 1452598739 -2111108437 2128374993 1011281246 -1311975459
REM
CELL 1.54180   50.00000   50.00000   50.00000   90.00000   90.00000   90.00000
LATT -1
SFAC C  
C      1  0.5947600000000  0.4938410000000  0.4709870000000 1.0
C      1  0.4641140000000  0.5466120000000  0.5158830000000 1.0
C      1  0.4602220000000  0.4534880000000  0.5697290000000 1.0
C      1  0.4828100000000  0.5023040000000  0.5301860000000 1.0
C      1  0.4645680000000  0.4953300000000  0.5912560000000 1.0
C      1  0.5339980000000  0.5100940000000  0.4056300000000 1.0
C      1  0.4120040000000  0.5002010000000  0.4430910000000 1.0
C      1  0.4478270000000  0.5005890000000  0.4985760000000 1.0
C      1  0.5334040000000  0.5560650000000  0.4426560000000 1.0
C      1  0.4332510000000  0.5578200000000  0.4854100000000 1.0
C      1  0.4454630000000  0.4344030000000  0.5297690000000 1.0
C      1  0.5415600000000  0.5130570000000  0.5357870000000 1.0
C      1  0.4110490000000  0.5008420000000  0.5322930000000 1.0
C      1  0.4220480000000  0.4209310000000  0.4928860000000 1.0
C      1  0.5114510000000  0.4092920000000  0.4998750000000 1.0
C      1  0.4338070000000  0.4594160000000  0.5172950000000 1.0
C      1  0.5076370000000  0.5105010000000  0.4935960000000 1.0
C      1  0.4716570000000  0.5221360000000  0.5866380000000 1.0
C      1  0.5566590000000  0.4341520000000  0.5180490000000 1.0
C      1  0.4966940000000  0.5253480000000  0.5417220000000 1.0
C      1  0.5410550000000  0.4774840000000  0.5051220000000 1.0
C      1  0.5611840000000  0.5436330000000  0.4337360000000 1.0
C      1  0.5644880000000  0.4496050000000  0.4689450000000 1.0
C      1  0.4990010000000  0.4780990000000  0.5253940000000 1.0
C      1  0.4641510000000  0.4338190000000  0.5495620000000 1.0
C      1  0.5131040000000  0.4236600000000  0.5576320000000 1.0
C      1  0.4666520000000  0.5342830000000  0.4228380000000 1.0
C      1  0.5308440000000  0.4139290000000  0.4811780000000 1.0
C      1  0.5973610000000  0.5140240000000  0.4913240000000 1.0
C      1  0.4391600000000  0.4921680000000  0.4275450000000 1.0
C      1  0.5364260000000  0.5819750000000  0.5585070000000 1.0
C      1  0.5464090000000  0.5298710000000  0.4903120000000 1.0
C      1  0.5295100000000  0.4836190000000  0.5309710000000 1.0
C      1  0.5120460000000  0.5550740000000  0.5871860000000 1.0
C      1  0.4792590000000  0.4879660000000  0.4645780000000 1.0
C      1  0.4754010000000  0.5472370000000  0.5436690000000 1.0
C      1  0.5621640000000  0.5171510000000  0.5617050000000 1.0
C      1  0.5854880000000  0.5662030000000  0.4814830000000 1.0
C      1  0.5050100000000  0.4696150000000  0.4731820000000 1.0
C      1  0.5707650000000  0.4685240000000  0.5495870000000 1.0
C      1  0.4839500000000  0.5128710000000  0.4185730000000 1.0
C      1  0.5900000000000  0.5072110000000  0.4460340000000 1.0
C      1  0.5576020000000  0.4742650000000  0.4247680000000 1.0
C      1  0.5425890000000  0.5884910000000  0.5321250000000 1.0
C      1  0.5075260000000  0.4317640000000  0.5183450000000 1.0
C      1  0.5246970000000  0.5722240000000  0.4669710000000 1.0
C      1  0.4338620000000  0.5482900000000  0.5121350000000 1.0
C      1  0.5378570000000  0.5113240000000  0.4689400000000 1.0
C      1  0.4703990000000  0.5748860000000  0.4524540000000 1.0
C      1  0.4185470000000  0.5275970000000  0.4456810000000 1.0
C      1  0.5402110000000  0.5492990000000  0.5891510000000 1.0
C      1  0.4858600000000  0.4779900000000  0.5973260000000 1.0
C      1  0.4536170000000  0.4276680000000  0.4526430000000 1.0
C      1  0.5374330000000  0.4811670000000  0.4049210000000 1.0
C      1  0.5552800000000  0.5640390000000  0.5705480000000 1.0
C      1  0.4146670000000  0.5404680000000  0.4712490000000 1.0
C      1  0.4468050000000  0.4564140000000  0.4887450000000 1.0
C      1  0.4703060000000  0.5176920000000  0.5039270000000 1.0
C      1  0.5199200000000  0.5360670000000  0.5016750000000 1.0
C      1  0.5254170000000  0.4894180000000  0.4836040000000 1.0
C      1  0.5583540000000  0.5209830000000  0.4159750000000 1.0
C      1  0.5709000000000  0.5454940000000  0.5561870000000 1.0
C      1  0.4777410000000  0.4604200000000  0.4235490000000 1.0
C      1  0.4303390000000  0.4376400000000  0.4694650000000 1.0
C      1  0.4566720000000  0.5011750000000  0.5460240000000 1.0
C      1  0.5135740000000  0.4835150000000  0.5937980000000 1.0
C      1  0.3993750000000  0.4297640000000  0.5066850000000 1.0
C      1  0.4151040000000  0.4579970000000  0.4534160000000 1.0
C      1  0.4379370000000  0.4890630000000  0.5239560000000 1.0
C      1  0.4321650000000  0.4634840000000  0.4313360000000 1.0
C      1  0.5095760000000  0.5752930000000  0.5664330000000 1.0
C      1  0.5660110000000  0.5760830000000  0.5209390000000 1.0
C      1  0.4550200000000  0.4456220000000  0.4308100000000 1.0
C      1  0.5844020000000  0.5351390000000  0.4500790000000 1.0
C      1  0.5106130000000  0.5532680000000  0.4233690000000 1.0
C      1  0.5828250000000  0.4692640000000  0.4793550000000 1.0
C      1  0.5338820000000  0.4355280000000  0.5369910000000 1.0
C      1  0.5076320000000  0.4406370000000  0.5791920000000 1.0
C      1  0.5838620000000  0.5024790000000  0.5164740000000 1.0
C      1  0.4586920000000  0.5718500000000  0.4770010000000 1.0
C      1  0.5488840000000  0.4569910000000  0.4460830000000 1.0
C      1  0.4017520000000  0.4824700000000  0.4619530000000 1.0
C      1  0.5789520000000  0.4955070000000  0.5488300000000 1.0
C      1  0.4955640000000  0.5843950000000  0.5194390000000 1.0
C      1  0.5743060000000  0.4755630000000  0.5062800000000 1.0
C      1  0.4206740000000  0.4915140000000  0.5589740000000 1.0
C      1  0.5198450000000  0.4615680000000  0.3995140000000 1.0
C      1  0.5756670000000  0.4540950000000  0.5256110000000 1.0
C      1  0.5734880000000  0.4980110000000  0.4253850000000 1.0
C      1  0.3950660000000  0.4955990000000  0.4874560000000 1.0
C      1  0.5657400000000  0.5807940000000  0.4930670000000 1.0
C      1  0.4956560000000  0.5368940000000  0.4622860000000 1.0
C      1  0.5056760000000  0.4549620000000  0.4222600000000 1.0
C      1  0.4019210000000  0.5234970000000  0.4912380000000 1.0
C      1  0.5378820000000  0.5877200000000  0.4863520000000 1.0
C      1  0.4132430000000  0.5281320000000  0.5168670000000 1.0
C      1  0.5229990000000  0.5919670000000  0.5116830000000 1.0
C      1  0.5409610000000  0.4622280000000  0.5527640000000 1.0
C      1  0.4951320000000  0.4562980000000  0.5027420000000 1.0
C      1  0.4598800000000  0.5290300000000  0.5616460000000 1.0
C      1  0.4898880000000  0.5739780000000  0.5459420000000 1.0
C      1  0.3953430000000  0.4832670000000  0.5129360000000 1.0
C      1  0.5202790000000  0.5105240000000  0.5949160000000 1.0
C      1  0.4846830000000  0.5148180000000  0.4776940000000 1.0
C      1  0.5454360000000  0.5217320000000  0.5869330000000 1.0
C      1  0.5937260000000  0.5409160000000  0.4768760000000 1.0
C      1  0.4475740000000  0.4178790000000  0.5069500000000 1.0
C      1  0.4798020000000  0.5679110000000  0.4986560000000 1.0
C      1  0.4821740000000  0.4521790000000  0.5864490000000 1.0
C      1  0.4721530000000  0.4883820000000  0.4320920000000 1.0
C      1  0.5738520000000  0.5497470000000  0.5289470000000 1.0
C      1  0.5209460000000  0.5324670000000  0.5307930000000 1.0
C      1  0.4474870000000  0.4826080000000  0.5695230000000 1.0
C      1  0.5010290000000  0.4093800000000  0.4744750000000 1.0
C      1  0.4560210000000  0.4816750000000  0.4803700000000 1.0
C      1  0.5524120000000  0.4311830000000  0.4885030000000 1.0
C      1  0.4838190000000  0.5545040000000  0.4376350000000 1.0
C      1  0.5043940000000  0.5561250000000  0.4828180000000 1.0
C      1  0.5115150000000  0.5227830000000  0.4189960000000 1.0
C      1  0.4692130000000  0.4381800000000  0.4932000000000 1.0
C      1  0.5630560000000  0.5235660000000  0.5147390000000 1.0
C      1  0.4901890000000  0.4235020000000  0.5420670000000 1.0
C      1  0.5260640000000  0.4618710000000  0.5794040000000 1.0
C      1  0.5200880000000  0.5267750000000  0.4497130000000 1.0
C      1  0.4765010000000  0.4220850000000  0.4696290000000 1.0
C      1  0.4407910000000  0.5232490000000  0.4272710000000 1.0
C      1  0.4985050000000  0.5305130000000  0.5932940000000 1.0
C      1  0.5200100000000  0.4569360000000  0.4477900000000 1.0
C      1  0.4040840000000  0.4558290000000  0.5143400000000 1.0
END
