TITL C-65701-5544-9 -177.192007030672 125000 -805.790949312371 0 0 117 (C1) n - 1
REM
REM in /rds/project/t2_vol4/rds-t2-cs072/BORA/CARBON/from-Arr/AIRSS/Generating-Clusters/GAP-ML-2020/Only-C1/SD-CG/HFTN-CG
REM
REM
REM
REM
REM
REM ./C.cell (11c1c37f851c82e70ff6c80c92926a4b)
REM AIRSS Version 0.9.1 bugfix July 2018 build 013d7b7c2542+ Fri, 06 Jul 2018 19:26:36 +0100
REM compiler GCC version 9.3.0
REM options -cpp -mtune=generic -march=x86-64 -g -O0
REM seed 1696072304 -855496489 1286046328 -2038097120 1236704812 -641492589 1038678964 -1345421345 822527875 -1940375455 -1823320152 1025523947 1150670967 -1205639147 657225275 1637336950 -35670346 1064936999 -1095314867 1055566439 -427781061 -1798294125 1753556232 -176570122 731481769 -1672846317 -1523963477 719495624 1695260675 -1994441004 -863013512 -949809675 -740902264
REM
CELL 1.54180   50.00000   50.00000   50.00000   90.00000   90.00000   90.00000
LATT -1
SFAC C  
C      1  0.5363660000000  0.5449840000000  0.5275400000000 1.0
C      1  0.4098260000000  0.5295530000000  0.5103940000000 1.0
C      1  0.4956740000000  0.5451610000000  0.4855150000000 1.0
C      1  0.5489170000000  0.5460670000000  0.4455290000000 1.0
C      1  0.4247260000000  0.4580780000000  0.5343050000000 1.0
C      1  0.5200960000000  0.4405530000000  0.4368970000000 1.0
C      1  0.4629520000000  0.5654650000000  0.4363880000000 1.0
C      1  0.5698180000000  0.4390310000000  0.5124550000000 1.0
C      1  0.4681300000000  0.5113020000000  0.4689940000000 1.0
C      1  0.5273460000000  0.5620010000000  0.4527180000000 1.0
C      1  0.4574970000000  0.5214010000000  0.5470430000000 1.0
C      1  0.4711170000000  0.4503160000000  0.4384150000000 1.0
C      1  0.4570470000000  0.5013140000000  0.5903870000000 1.0
C      1  0.4811860000000  0.5790670000000  0.4535120000000 1.0
C      1  0.4787950000000  0.4990910000000  0.5516940000000 1.0
C      1  0.5324650000000  0.4832480000000  0.4082440000000 1.0
C      1  0.4846350000000  0.5517430000000  0.4226480000000 1.0
C      1  0.4770870000000  0.5238780000000  0.4197760000000 1.0
C      1  0.4913540000000  0.5298240000000  0.5115700000000 1.0
C      1  0.5151500000000  0.4332390000000  0.4650870000000 1.0
C      1  0.5479570000000  0.4479990000000  0.4356520000000 1.0
C      1  0.4652010000000  0.5433820000000  0.5663960000000 1.0
C      1  0.5241980000000  0.4960250000000  0.5106340000000 1.0
C      1  0.5310640000000  0.4376860000000  0.5451940000000 1.0
C      1  0.4771880000000  0.4295950000000  0.5390760000000 1.0
C      1  0.4511490000000  0.4869540000000  0.5097530000000 1.0
C      1  0.5027620000000  0.5160980000000  0.5571260000000 1.0
C      1  0.5263840000000  0.4777030000000  0.5759390000000 1.0
C      1  0.4976380000000  0.5065150000000  0.4106050000000 1.0
C      1  0.4298710000000  0.5097130000000  0.5530010000000 1.0
C      1  0.5613750000000  0.4666430000000  0.5147420000000 1.0
C      1  0.5151200000000  0.4008710000000  0.5071040000000 1.0
C      1  0.5667770000000  0.5063620000000  0.5376590000000 1.0
C      1  0.4128310000000  0.5079880000000  0.5295130000000 1.0
C      1  0.4788830000000  0.5735110000000  0.4822500000000 1.0
C      1  0.5826040000000  0.4400190000000  0.4848420000000 1.0
C      1  0.4780250000000  0.4857820000000  0.5804310000000 1.0
C      1  0.5812240000000  0.5099210000000  0.5126940000000 1.0
C      1  0.4623560000000  0.4423190000000  0.5620020000000 1.0
C      1  0.5932030000000  0.5326580000000  0.4482480000000 1.0
C      1  0.5263780000000  0.5059660000000  0.5720300000000 1.0
C      1  0.4466470000000  0.4681670000000  0.4847770000000 1.0
C      1  0.4680720000000  0.4815330000000  0.4680920000000 1.0
C      1  0.5133700000000  0.5742210000000  0.5713110000000 1.0
C      1  0.4520140000000  0.5149230000000  0.4969320000000 1.0
C      1  0.5429590000000  0.4628210000000  0.5582260000000 1.0
C      1  0.5408240000000  0.4250880000000  0.4753290000000 1.0
C      1  0.5653400000000  0.4944270000000  0.4410450000000 1.0
C      1  0.4883460000000  0.4554690000000  0.5271490000000 1.0
C      1  0.5308990000000  0.4673350000000  0.5069240000000 1.0
C      1  0.5029710000000  0.4270220000000  0.5567820000000 1.0
C      1  0.4254550000000  0.5244690000000  0.4847060000000 1.0
C      1  0.5157780000000  0.4630350000000  0.4802790000000 1.0
C      1  0.5228040000000  0.5557980000000  0.4810330000000 1.0
C      1  0.4996400000000  0.4683230000000  0.5840540000000 1.0
C      1  0.5307090000000  0.4814430000000  0.4645620000000 1.0
C      1  0.5178430000000  0.5496640000000  0.5805080000000 1.0
C      1  0.5412790000000  0.5395140000000  0.4978260000000 1.0
C      1  0.4358720000000  0.4892550000000  0.5719050000000 1.0
C      1  0.5611060000000  0.4778780000000  0.5418780000000 1.0
C      1  0.5227230000000  0.5091580000000  0.4639420000000 1.0
C      1  0.5603610000000  0.4447840000000  0.4643700000000 1.0
C      1  0.5097800000000  0.5871440000000  0.5256250000000 1.0
C      1  0.5014480000000  0.5894300000000  0.4984610000000 1.0
C      1  0.4663150000000  0.5283840000000  0.5906540000000 1.0
C      1  0.5528070000000  0.5297470000000  0.5484280000000 1.0
C      1  0.5398110000000  0.5306710000000  0.5738740000000 1.0
C      1  0.5039410000000  0.5681190000000  0.4387670000000 1.0
C      1  0.5267130000000  0.5111070000000  0.4136700000000 1.0
C      1  0.4346430000000  0.5505090000000  0.4705680000000 1.0
C      1  0.5912190000000  0.5096050000000  0.4370360000000 1.0
C      1  0.4955170000000  0.5813280000000  0.5505220000000 1.0
C      1  0.4090530000000  0.5568460000000  0.5139630000000 1.0
C      1  0.4771600000000  0.4829880000000  0.5259510000000 1.0
C      1  0.4440250000000  0.5469020000000  0.4445140000000 1.0
C      1  0.4932560000000  0.5332210000000  0.5797980000000 1.0
C      1  0.5043170000000  0.4772690000000  0.4101770000000 1.0
C      1  0.4900790000000  0.4062770000000  0.4980170000000 1.0
C      1  0.5373080000000  0.5756210000000  0.5241230000000 1.0
C      1  0.4688390000000  0.4121720000000  0.5166980000000 1.0
C      1  0.4681570000000  0.4316780000000  0.4609470000000 1.0
C      1  0.4447310000000  0.4227110000000  0.5047740000000 1.0
C      1  0.5785680000000  0.4831460000000  0.4952690000000 1.0
C      1  0.4694650000000  0.5673260000000  0.5510020000000 1.0
C      1  0.5605250000000  0.4778110000000  0.4671520000000 1.0
C      1  0.5158220000000  0.4526360000000  0.5253210000000 1.0
C      1  0.5725390000000  0.5483670000000  0.4613500000000 1.0
C      1  0.5842760000000  0.5363520000000  0.5068980000000 1.0
C      1  0.4552700000000  0.5612620000000  0.5269930000000 1.0
C      1  0.5538450000000  0.4725990000000  0.4228030000000 1.0
C      1  0.4895350000000  0.4430740000000  0.5753310000000 1.0
C      1  0.5086010000000  0.5353300000000  0.5343800000000 1.0
C      1  0.5393010000000  0.4115140000000  0.5013390000000 1.0
C      1  0.4206170000000  0.4831750000000  0.5170310000000 1.0
C      1  0.4491520000000  0.4389100000000  0.4810690000000 1.0
C      1  0.4624950000000  0.5324410000000  0.5194550000000 1.0
C      1  0.5680870000000  0.5538880000000  0.4909510000000 1.0
C      1  0.5981930000000  0.4624370000000  0.4884290000000 1.0
C      1  0.5412920000000  0.5176770000000  0.4390550000000 1.0
C      1  0.5522450000000  0.5810360000000  0.5004540000000 1.0
C      1  0.5277160000000  0.5836940000000  0.4863300000000 1.0
C      1  0.4531630000000  0.5195510000000  0.4392660000000 1.0
C      1  0.4394820000000  0.4613110000000  0.5602520000000 1.0
C      1  0.4555610000000  0.4736620000000  0.4428200000000 1.0
C      1  0.4956680000000  0.4977120000000  0.5073570000000 1.0
C      1  0.4917840000000  0.4777500000000  0.4839830000000 1.0
C      1  0.4263410000000  0.4346830000000  0.5211170000000 1.0
C      1  0.4354510000000  0.4963410000000  0.4425690000000 1.0
C      1  0.5504410000000  0.4232320000000  0.5249810000000 1.0
C      1  0.4336720000000  0.5703970000000  0.5115090000000 1.0
C      1  0.4971740000000  0.4536150000000  0.4250720000000 1.0
C      1  0.4482210000000  0.5695940000000  0.4867550000000 1.0
C      1  0.4946350000000  0.5232420000000  0.4667180000000 1.0
C      1  0.4905940000000  0.4187140000000  0.4717900000000 1.0
C      1  0.4197250000000  0.5004470000000  0.4674450000000 1.0
C      1  0.5348750000000  0.5127560000000  0.4901160000000 1.0
C      1  0.4191660000000  0.4792380000000  0.4854420000000 1.0
END
