TITL C-65698-5602-7 823.32119233185 125000 -511.170356622097 0 0 75 (C1) n - 1
REM
REM in /rds/project/t2_vol4/rds-t2-cs072/BORA/CARBON/from-Arr/AIRSS/Generating-Clusters/GAP-ML-2020/Only-C1/SD-CG/HFTN-CG
REM
REM
REM
REM
REM
REM ./C.cell (11c1c37f851c82e70ff6c80c92926a4b)
REM AIRSS Version 0.9.1 bugfix July 2018 build 013d7b7c2542+ Fri, 06 Jul 2018 19:26:36 +0100
REM compiler GCC version 9.3.0
REM options -cpp -mtune=generic -march=x86-64 -g -O0
REM seed 680013874 -460415684 1706597100 -907068719 122529726 -4778850 1948377273 -1117083408 1383884919 382727232 1659243870 -935628882 418731802 -1323663857 -893352881 -156638224 1389336136 702143205 221188852 -1051072441 341002683 -366805847 -539550530 610446386 -156202478 -649898410 -2012243065 1336746877 -14145196 958985251 1021219917 -91498462 464987935
REM
CELL 1.54180   50.00000   50.00000   50.00000   90.00000   90.00000   90.00000
LATT -1
SFAC C  
C      1  0.4545190000000  0.5224370000000  0.5620610000000 1.0
C      1  0.5535570000000  0.4634340000000  0.4864160000000 1.0
C      1  0.5319450000000  0.5373130000000  0.4371240000000 1.0
C      1  0.5473200000000  0.5610590000000  0.5125260000000 1.0
C      1  0.4912690000000  0.4798030000000  0.4932590000000 1.0
C      1  0.5374620000000  0.4631580000000  0.5168470000000 1.0
C      1  0.5236540000000  0.5524410000000  0.5269220000000 1.0
C      1  0.4609500000000  0.4754760000000  0.5608590000000 1.0
C      1  0.5786290000000  0.4749000000000  0.4952370000000 1.0
C      1  0.5665900000000  0.5113510000000  0.4627450000000 1.0
C      1  0.4946250000000  0.5069800000000  0.5753380000000 1.0
C      1  0.5552840000000  0.5130090000000  0.5163830000000 1.0
C      1  0.4889370000000  0.5259340000000  0.4434740000000 1.0
C      1  0.4394270000000  0.4821530000000  0.5431730000000 1.0
C      1  0.5463280000000  0.4905510000000  0.4697950000000 1.0
C      1  0.5586250000000  0.4740650000000  0.5354960000000 1.0
C      1  0.5583780000000  0.5316830000000  0.4440860000000 1.0
C      1  0.5214740000000  0.4281710000000  0.4946920000000 1.0
C      1  0.5497370000000  0.4897930000000  0.5571220000000 1.0
C      1  0.5459260000000  0.5810080000000  0.4932090000000 1.0
C      1  0.5374610000000  0.5125620000000  0.5413280000000 1.0
C      1  0.5169350000000  0.4844960000000  0.5100960000000 1.0
C      1  0.4342630000000  0.5480960000000  0.5011280000000 1.0
C      1  0.4638060000000  0.5116580000000  0.4421020000000 1.0
C      1  0.4784870000000  0.4130210000000  0.4987980000000 1.0
C      1  0.5253070000000  0.5373940000000  0.5511640000000 1.0
C      1  0.4843460000000  0.4542020000000  0.4728590000000 1.0
C      1  0.5270090000000  0.4903700000000  0.4448690000000 1.0
C      1  0.4921230000000  0.4425740000000  0.5342950000000 1.0
C      1  0.4761360000000  0.5410590000000  0.5509470000000 1.0
C      1  0.4449510000000  0.5188020000000  0.4652480000000 1.0
C      1  0.5345110000000  0.5036300000000  0.4950390000000 1.0
C      1  0.5663520000000  0.5531610000000  0.4616840000000 1.0
C      1  0.4317080000000  0.5223070000000  0.5179240000000 1.0
C      1  0.4450320000000  0.4728310000000  0.4598670000000 1.0
C      1  0.4677000000000  0.5008660000000  0.5739710000000 1.0
C      1  0.5063330000000  0.4827270000000  0.5622930000000 1.0
C      1  0.4389790000000  0.4714530000000  0.5152750000000 1.0
C      1  0.5322400000000  0.4786600000000  0.5740990000000 1.0
C      1  0.4854350000000  0.4614680000000  0.5548970000000 1.0
C      1  0.4222760000000  0.4887210000000  0.4978580000000 1.0
C      1  0.4546210000000  0.4519520000000  0.4759440000000 1.0
C      1  0.5433210000000  0.5697940000000  0.4678960000000 1.0
C      1  0.4600530000000  0.5608130000000  0.5070240000000 1.0
C      1  0.5029860000000  0.5392450000000  0.5088560000000 1.0
C      1  0.4358410000000  0.5108560000000  0.5446770000000 1.0
C      1  0.4654710000000  0.4828800000000  0.4421910000000 1.0
C      1  0.4671420000000  0.4847260000000  0.5094120000000 1.0
C      1  0.4807380000000  0.5496370000000  0.4880820000000 1.0
C      1  0.4877070000000  0.5208370000000  0.5272060000000 1.0
C      1  0.5147700000000  0.4660140000000  0.4369380000000 1.0
C      1  0.4713380000000  0.4332210000000  0.5158270000000 1.0
C      1  0.5201030000000  0.5590660000000  0.4531130000000 1.0
C      1  0.4307540000000  0.5416090000000  0.4747400000000 1.0
C      1  0.4087030000000  0.5087110000000  0.5084800000000 1.0
C      1  0.5194580000000  0.4400300000000  0.5208620000000 1.0
C      1  0.4683180000000  0.5216320000000  0.4849640000000 1.0
C      1  0.4922100000000  0.5061850000000  0.4781940000000 1.0
C      1  0.4953240000000  0.4274350000000  0.4829700000000 1.0
C      1  0.5091880000000  0.4993440000000  0.5343410000000 1.0
C      1  0.4933860000000  0.5512860000000  0.4593270000000 1.0
C      1  0.4309000000000  0.4934930000000  0.4714990000000 1.0
C      1  0.4682980000000  0.5623950000000  0.5330630000000 1.0
C      1  0.4875460000000  0.4650000000000  0.4456330000000 1.0
C      1  0.5148030000000  0.5220750000000  0.4882680000000 1.0
C      1  0.5653530000000  0.5382820000000  0.5068670000000 1.0
C      1  0.5302480000000  0.4430690000000  0.4385650000000 1.0
C      1  0.5749250000000  0.5338990000000  0.4808180000000 1.0
C      1  0.4489500000000  0.4476230000000  0.5038080000000 1.0
C      1  0.5449630000000  0.4257640000000  0.4501920000000 1.0
C      1  0.5430420000000  0.4371020000000  0.4772180000000 1.0
C      1  0.5009670000000  0.5337720000000  0.5655500000000 1.0
C      1  0.5148820000000  0.5152390000000  0.4356630000000 1.0
C      1  0.5742300000000  0.4900120000000  0.5175400000000 1.0
C      1  0.4634330000000  0.5122260000000  0.5117680000000 1.0
END
