TITL C-65708-5580-1 -0.0220968740530336 125000 -58.9833742048949 0 0 10 (C1) n - 1
REM
REM in /rds/project/t2_vol4/rds-t2-cs072/BORA/CARBON/from-Arr/AIRSS/Generating-Clusters/GAP-ML-2020/Only-C1/SD-CG/HFTN-CG
REM
REM
REM
REM
REM
REM ./C.cell (11c1c37f851c82e70ff6c80c92926a4b)
REM AIRSS Version 0.9.1 bugfix July 2018 build 013d7b7c2542+ Fri, 06 Jul 2018 19:26:36 +0100
REM compiler GCC version 9.3.0
REM options -cpp -mtune=generic -march=x86-64 -g -O0
REM seed -27731458 1107091456 88044633 -1691966943 -1730700440 -1971857159 -43166870 -1220566124 1913221483 -1010573278 -1021671031 -1509561068 -267904579 2060568748 -311442667 -1897086876 728275542 246720314 36998027 1703657296 -499973972 -269103611 746587466 932707543 1022700616 1422016260 1713374087 787272247 -1127449369 152195887 234975164 1367306937 1097682888
REM
CELL 1.54180   50.00000   50.00000   50.00000   90.00000   90.00000   90.00000
LATT -1
SFAC C  
C      1  0.5292030000000  0.5484150000000  0.4843740000000 1.0
C      1  0.5104540000000  0.5323510000000  0.4826540000000 1.0
C      1  0.4941620000000  0.5104960000000  0.4839130000000 1.0
C      1  0.5106660000000  0.4702040000000  0.4597540000000 1.0
C      1  0.4687040000000  0.5066340000000  0.5315720000000 1.0
C      1  0.4842440000000  0.5007370000000  0.5092320000000 1.0
C      1  0.4830190000000  0.4884090000000  0.5463050000000 1.0
C      1  0.5000900000000  0.4812640000000  0.5241810000000 1.0
C      1  0.4980510000000  0.4914680000000  0.4647350000000 1.0
C      1  0.5214080000000  0.4700230000000  0.5132800000000 1.0
END
