TITL C-65707-5549-7 -0.144438106126737 125000 -480.013736422582 0 0 69 (C1) n - 1
REM
REM in /rds/project/t2_vol4/rds-t2-cs072/BORA/CARBON/from-Arr/AIRSS/Generating-Clusters/GAP-ML-2020/Only-C1/SD-CG/HFTN-CG
REM
REM
REM
REM
REM
REM ./C.cell (11c1c37f851c82e70ff6c80c92926a4b)
REM AIRSS Version 0.9.1 bugfix July 2018 build 013d7b7c2542+ Fri, 06 Jul 2018 19:26:36 +0100
REM compiler GCC version 9.3.0
REM options -cpp -mtune=generic -march=x86-64 -g -O0
REM seed 985885196 -554335863 -484181422 376622692 1669240608 -256659706 2786870 -1934658322 -357492056 1026233412 -1547063059 1119635466 1558536708 396970728 -1576524070 -2028286592 940502284 -1390792325 -1563183486 333786855 1221002148 -309251778 1211511663 2053598562 -874057928 1234754006 363028437 1989978071 -1071869588 251598770 -1777549090 282436574 -687248857
REM
CELL 1.54180   50.00000   50.00000   50.00000   90.00000   90.00000   90.00000
LATT -1
SFAC C  
C      1  0.4579390000000  0.5475950000000  0.4784490000000 1.0
C      1  0.5078070000000  0.5188150000000  0.4315670000000 1.0
C      1  0.5104360000000  0.4639700000000  0.4768260000000 1.0
C      1  0.5081680000000  0.4397810000000  0.4626180000000 1.0
C      1  0.5394740000000  0.4209420000000  0.4967140000000 1.0
C      1  0.5330290000000  0.5480580000000  0.4593430000000 1.0
C      1  0.4540750000000  0.4870210000000  0.4813720000000 1.0
C      1  0.5309020000000  0.5333270000000  0.4853700000000 1.0
C      1  0.5193460000000  0.4179360000000  0.4768040000000 1.0
C      1  0.5151120000000  0.5695720000000  0.4598430000000 1.0
C      1  0.4598990000000  0.4480650000000  0.4558830000000 1.0
C      1  0.5749480000000  0.4690060000000  0.4672700000000 1.0
C      1  0.5557990000000  0.4945600000000  0.5239860000000 1.0
C      1  0.4397590000000  0.4939120000000  0.5078900000000 1.0
C      1  0.4917170000000  0.5122350000000  0.5325150000000 1.0
C      1  0.5162550000000  0.4728160000000  0.5038810000000 1.0
C      1  0.4416000000000  0.5197590000000  0.5466100000000 1.0
C      1  0.4567660000000  0.5401870000000  0.5072960000000 1.0
C      1  0.5513450000000  0.5063790000000  0.4513450000000 1.0
C      1  0.4941140000000  0.5635660000000  0.5334780000000 1.0
C      1  0.4906500000000  0.5649230000000  0.4470080000000 1.0
C      1  0.4443080000000  0.5316690000000  0.5711250000000 1.0
C      1  0.4588330000000  0.4756390000000  0.5497020000000 1.0
C      1  0.4552610000000  0.4717240000000  0.4380830000000 1.0
C      1  0.4673640000000  0.5035220000000  0.5515140000000 1.0
C      1  0.5345910000000  0.5275060000000  0.4389400000000 1.0
C      1  0.5015010000000  0.4908790000000  0.4367290000000 1.0
C      1  0.5548100000000  0.4413940000000  0.5079530000000 1.0
C      1  0.4390510000000  0.5208190000000  0.5187530000000 1.0
C      1  0.5440170000000  0.4856800000000  0.4984790000000 1.0
C      1  0.4433040000000  0.4928440000000  0.4532260000000 1.0
C      1  0.4851420000000  0.5391730000000  0.5184280000000 1.0
C      1  0.4711700000000  0.5229110000000  0.5743930000000 1.0
C      1  0.5614110000000  0.4631900000000  0.4902420000000 1.0
C      1  0.4545010000000  0.4568020000000  0.4825050000000 1.0
C      1  0.4839740000000  0.5008440000000  0.4825620000000 1.0
C      1  0.5054480000000  0.5575230000000  0.5595510000000 1.0
C      1  0.5070210000000  0.4897200000000  0.4656180000000 1.0
C      1  0.5320500000000  0.5559480000000  0.5501070000000 1.0
C      1  0.5348330000000  0.5640540000000  0.5227340000000 1.0
C      1  0.5340790000000  0.5045530000000  0.4764440000000 1.0
C      1  0.4752850000000  0.5715370000000  0.4720420000000 1.0
C      1  0.5209490000000  0.4384810000000  0.5439130000000 1.0
C      1  0.4888770000000  0.5361340000000  0.4441950000000 1.0
C      1  0.4316030000000  0.5178240000000  0.4472410000000 1.0
C      1  0.5474130000000  0.4757280000000  0.5440250000000 1.0
C      1  0.5007890000000  0.5712140000000  0.4867510000000 1.0
C      1  0.4975080000000  0.5324820000000  0.5728950000000 1.0
C      1  0.4826550000000  0.5288960000000  0.4725250000000 1.0
C      1  0.4560780000000  0.4488500000000  0.5102380000000 1.0
C      1  0.4767280000000  0.4376600000000  0.5285500000000 1.0
C      1  0.5453890000000  0.4489160000000  0.5339720000000 1.0
C      1  0.4842190000000  0.4697400000000  0.4296140000000 1.0
C      1  0.5710260000000  0.4879560000000  0.4496060000000 1.0
C      1  0.5462990000000  0.5414440000000  0.5091530000000 1.0
C      1  0.5392790000000  0.5285890000000  0.5517380000000 1.0
C      1  0.5069840000000  0.4588780000000  0.5589210000000 1.0
C      1  0.4973480000000  0.4948760000000  0.5093400000000 1.0
C      1  0.5027030000000  0.4245400000000  0.5267350000000 1.0
C      1  0.4449590000000  0.4715700000000  0.5248940000000 1.0
C      1  0.5107850000000  0.5770540000000  0.5135630000000 1.0
C      1  0.4374990000000  0.5404430000000  0.4582890000000 1.0
C      1  0.5148790000000  0.4116030000000  0.5049570000000 1.0
C      1  0.4866720000000  0.4440260000000  0.4443970000000 1.0
C      1  0.5234540000000  0.4828470000000  0.5597310000000 1.0
C      1  0.5150880000000  0.5118110000000  0.5575240000000 1.0
C      1  0.4787820000000  0.4553130000000  0.5516170000000 1.0
C      1  0.5013030000000  0.5411750000000  0.4920940000000 1.0
C      1  0.5536380000000  0.5215970000000  0.5283250000000 1.0
END
