TITL C-65699-5433-4 459.126352003924 125000 -655.314321430579 0 0 96 (C1) n - 1
REM
REM in /rds/project/t2_vol4/rds-t2-cs072/BORA/CARBON/from-Arr/AIRSS/Generating-Clusters/GAP-ML-2020/Only-C1/SD-CG/HFTN-CG
REM
REM
REM
REM
REM
REM ./C.cell (11c1c37f851c82e70ff6c80c92926a4b)
REM AIRSS Version 0.9.1 bugfix July 2018 build 013d7b7c2542+ Fri, 06 Jul 2018 19:26:36 +0100
REM compiler GCC version 9.3.0
REM options -cpp -mtune=generic -march=x86-64 -g -O0
REM seed 880345676 1888943059 477716805 1646007297 -2091280609 -133938357 -879831461 -168986728 -815059373 265881102 -473408208 -582086693 -1642212919 552622177 -408534788 1009896043 -1230255918 1437580395 979264007 2068443955 1575253513 1493610329 161123848 955546218 -552514636 1996030319 -1081685991 652502728 -1948062131 464166103 -1045712431 183041892 1504164677
REM
CELL 1.54180   50.00000   50.00000   50.00000   90.00000   90.00000   90.00000
LATT -1
SFAC C  
C      1  0.4870970000000  0.5006590000000  0.5112760000000 1.0
C      1  0.5337760000000  0.4253340000000  0.4946070000000 1.0
C      1  0.4749080000000  0.4285370000000  0.4762530000000 1.0
C      1  0.5345000000000  0.4520410000000  0.5343920000000 1.0
C      1  0.4864990000000  0.5316830000000  0.4720710000000 1.0
C      1  0.4371090000000  0.4934210000000  0.5209020000000 1.0
C      1  0.4662910000000  0.5217850000000  0.5625500000000 1.0
C      1  0.4648030000000  0.5195090000000  0.4586620000000 1.0
C      1  0.5706560000000  0.4798620000000  0.4998990000000 1.0
C      1  0.4293130000000  0.5348380000000  0.4971090000000 1.0
C      1  0.4299890000000  0.5058600000000  0.4965280000000 1.0
C      1  0.4879210000000  0.5620890000000  0.4669310000000 1.0
C      1  0.5237830000000  0.4271810000000  0.5204470000000 1.0
C      1  0.5612950000000  0.5078950000000  0.5637670000000 1.0
C      1  0.4629320000000  0.5509940000000  0.5239550000000 1.0
C      1  0.5189600000000  0.4710150000000  0.4883350000000 1.0
C      1  0.5334650000000  0.5314970000000  0.4173780000000 1.0
C      1  0.4257670000000  0.4936150000000  0.5473730000000 1.0
C      1  0.4571680000000  0.4510070000000  0.5153470000000 1.0
C      1  0.4272890000000  0.4749310000000  0.4527860000000 1.0
C      1  0.5212290000000  0.5887990000000  0.5013310000000 1.0
C      1  0.4760870000000  0.4869990000000  0.4395190000000 1.0
C      1  0.4902660000000  0.4266130000000  0.5525050000000 1.0
C      1  0.4978810000000  0.5592420000000  0.5582140000000 1.0
C      1  0.4673130000000  0.4911190000000  0.4669290000000 1.0
C      1  0.4937250000000  0.4443530000000  0.4327100000000 1.0
C      1  0.5093470000000  0.5447700000000  0.5095780000000 1.0
C      1  0.5206900000000  0.5568750000000  0.4272470000000 1.0
C      1  0.4211700000000  0.4971000000000  0.4389710000000 1.0
C      1  0.5153800000000  0.4988090000000  0.5265020000000 1.0
C      1  0.5483070000000  0.4648290000000  0.5793560000000 1.0
C      1  0.4240890000000  0.5229470000000  0.4352360000000 1.0
C      1  0.5104020000000  0.5560150000000  0.5830060000000 1.0
C      1  0.4455380000000  0.4520010000000  0.4459610000000 1.0
C      1  0.5082780000000  0.5653870000000  0.5326960000000 1.0
C      1  0.5299540000000  0.5231810000000  0.5112170000000 1.0
C      1  0.5344240000000  0.5148430000000  0.4817330000000 1.0
C      1  0.5081060000000  0.5113250000000  0.4672680000000 1.0
C      1  0.5705050000000  0.5332620000000  0.4487000000000 1.0
C      1  0.4757880000000  0.4312440000000  0.5052720000000 1.0
C      1  0.4626600000000  0.5695590000000  0.4810710000000 1.0
C      1  0.5478230000000  0.4874640000000  0.4813780000000 1.0
C      1  0.5788190000000  0.4703300000000  0.5447470000000 1.0
C      1  0.4851360000000  0.5005650000000  0.5650860000000 1.0
C      1  0.5207360000000  0.4430960000000  0.4738210000000 1.0
C      1  0.5644020000000  0.4501410000000  0.5312960000000 1.0
C      1  0.5555970000000  0.5168000000000  0.4295170000000 1.0
C      1  0.5561200000000  0.4743780000000  0.4555080000000 1.0
C      1  0.5237280000000  0.4788570000000  0.4249120000000 1.0
C      1  0.4284070000000  0.4661190000000  0.5568100000000 1.0
C      1  0.4221230000000  0.5405640000000  0.5477940000000 1.0
C      1  0.5484400000000  0.5777490000000  0.4980060000000 1.0
C      1  0.5114910000000  0.5657080000000  0.4845990000000 1.0
C      1  0.5502900000000  0.4886210000000  0.4321140000000 1.0
C      1  0.4644630000000  0.4805410000000  0.5235330000000 1.0
C      1  0.4954050000000  0.5647910000000  0.4382310000000 1.0
C      1  0.4743970000000  0.5461890000000  0.5509550000000 1.0
C      1  0.5031820000000  0.4985370000000  0.4359940000000 1.0
C      1  0.5493150000000  0.5387650000000  0.4701890000000 1.0
C      1  0.4412840000000  0.5503580000000  0.4767080000000 1.0
C      1  0.5680080000000  0.4802820000000  0.5686710000000 1.0
C      1  0.4971390000000  0.5864080000000  0.5168910000000 1.0
C      1  0.4939930000000  0.5447370000000  0.4201150000000 1.0
C      1  0.5141240000000  0.4968920000000  0.5581220000000 1.0
C      1  0.5073410000000  0.5198220000000  0.4163990000000 1.0
C      1  0.4744060000000  0.4430570000000  0.5697030000000 1.0
C      1  0.4364890000000  0.5182310000000  0.5581670000000 1.0
C      1  0.4946950000000  0.4898420000000  0.4837150000000 1.0
C      1  0.4834350000000  0.5302780000000  0.5042600000000 1.0
C      1  0.4959900000000  0.4233500000000  0.5244860000000 1.0
C      1  0.5707290000000  0.5156010000000  0.5374430000000 1.0
C      1  0.5587490000000  0.4350210000000  0.4849750000000 1.0
C      1  0.5344760000000  0.5143140000000  0.5730500000000 1.0
C      1  0.5704940000000  0.4515600000000  0.5035280000000 1.0
C      1  0.5256660000000  0.5363400000000  0.5871100000000 1.0
C      1  0.5572780000000  0.5346980000000  0.5208310000000 1.0
C      1  0.5796530000000  0.5439920000000  0.4721460000000 1.0
C      1  0.4539960000000  0.4627640000000  0.5684820000000 1.0
C      1  0.4711830000000  0.4790110000000  0.5529880000000 1.0
C      1  0.5028510000000  0.4442700000000  0.5701410000000 1.0
C      1  0.4499900000000  0.4325710000000  0.4636030000000 1.0
C      1  0.5245500000000  0.4633750000000  0.5630480000000 1.0
C      1  0.4316260000000  0.4440240000000  0.5241460000000 1.0
C      1  0.4388000000000  0.4874150000000  0.4755850000000 1.0
C      1  0.4140800000000  0.4456980000000  0.5437460000000 1.0
C      1  0.4697000000000  0.4604700000000  0.4318590000000 1.0
C      1  0.5379600000000  0.5652780000000  0.4734780000000 1.0
C      1  0.4420880000000  0.5344080000000  0.4525750000000 1.0
C      1  0.4975580000000  0.4333110000000  0.4590850000000 1.0
C      1  0.4338300000000  0.5453480000000  0.5237880000000 1.0
C      1  0.5797350000000  0.4910980000000  0.5252190000000 1.0
C      1  0.5658400000000  0.5540090000000  0.5009280000000 1.0
C      1  0.5233220000000  0.4731940000000  0.5170760000000 1.0
C      1  0.5155470000000  0.4536350000000  0.4181720000000 1.0
C      1  0.4702790000000  0.5751670000000  0.5079990000000 1.0
C      1  0.5485840000000  0.4479330000000  0.4616820000000 1.0
END
