TITL C-65692-5434-7 0.181544227352651 125000 -909.345928333919 0 0 129 (C1) n - 1
REM
REM in /rds/project/t2_vol4/rds-t2-cs072/BORA/CARBON/from-Arr/AIRSS/Generating-Clusters/GAP-ML-2020/Only-C1/SD-CG/HFTN-CG
REM
REM
REM
REM
REM
REM ./C.cell (11c1c37f851c82e70ff6c80c92926a4b)
REM AIRSS Version 0.9.1 bugfix July 2018 build 013d7b7c2542+ Fri, 06 Jul 2018 19:26:36 +0100
REM compiler GCC version 9.3.0
REM options -cpp -mtune=generic -march=x86-64 -g -O0
REM seed 2052446257 1824352090 961464921 -938564596 1579012395 1330202232 -669872930 494988138 -560569173 1267947040 -195336699 -602994025 1699856410 1075241930 559967180 1331777611 1784509983 151158522 -19314517 49550973 -1703428611 646812445 -1348271322 -1034226344 348746667 75529201 -862837408 1235525818 924271543 -1461536528 -355354843 -731471451 -239260969
REM
CELL 1.54180   50.00000   50.00000   50.00000   90.00000   90.00000   90.00000
LATT -1
SFAC C  
C      1  0.4473200000000  0.4447640000000  0.4924200000000 1.0
C      1  0.5404510000000  0.4160580000000  0.5027410000000 1.0
C      1  0.5857600000000  0.5184070000000  0.5755480000000 1.0
C      1  0.4983960000000  0.5611900000000  0.5653300000000 1.0
C      1  0.4763070000000  0.4260130000000  0.5444860000000 1.0
C      1  0.5690180000000  0.4563200000000  0.4486180000000 1.0
C      1  0.5626630000000  0.4321440000000  0.5148660000000 1.0
C      1  0.5110730000000  0.5087390000000  0.5827530000000 1.0
C      1  0.5525570000000  0.4676390000000  0.4269540000000 1.0
C      1  0.5746450000000  0.4908090000000  0.5336800000000 1.0
C      1  0.4231310000000  0.4855410000000  0.5406660000000 1.0
C      1  0.5464060000000  0.5126130000000  0.4944300000000 1.0
C      1  0.5578740000000  0.5596880000000  0.5526130000000 1.0
C      1  0.4246970000000  0.4524110000000  0.5105710000000 1.0
C      1  0.4813930000000  0.5903850000000  0.4576100000000 1.0
C      1  0.5191010000000  0.4995620000000  0.5349300000000 1.0
C      1  0.5282650000000  0.4573150000000  0.4140020000000 1.0
C      1  0.5048780000000  0.5180960000000  0.4928670000000 1.0
C      1  0.5124300000000  0.5272800000000  0.5422110000000 1.0
C      1  0.4472750000000  0.4867570000000  0.4283230000000 1.0
C      1  0.4890910000000  0.5760720000000  0.4343950000000 1.0
C      1  0.4476300000000  0.5780520000000  0.5177440000000 1.0
C      1  0.5594410000000  0.4440320000000  0.5411760000000 1.0
C      1  0.5381460000000  0.5740150000000  0.5374030000000 1.0
C      1  0.5068060000000  0.4417520000000  0.4264170000000 1.0
C      1  0.4821580000000  0.5101430000000  0.5914160000000 1.0
C      1  0.5248170000000  0.5015920000000  0.4743940000000 1.0
C      1  0.5891590000000  0.4696200000000  0.4895810000000 1.0
C      1  0.5829670000000  0.4776770000000  0.4612580000000 1.0
C      1  0.4636960000000  0.5034480000000  0.4868810000000 1.0
C      1  0.5407960000000  0.5005310000000  0.5875510000000 1.0
C      1  0.5167980000000  0.4194610000000  0.5606510000000 1.0
C      1  0.5594440000000  0.5220370000000  0.5836630000000 1.0
C      1  0.4379400000000  0.5136870000000  0.4307480000000 1.0
C      1  0.5079600000000  0.5442000000000  0.4536760000000 1.0
C      1  0.4859470000000  0.4538780000000  0.5308710000000 1.0
C      1  0.4264960000000  0.5683180000000  0.5013110000000 1.0
C      1  0.5765610000000  0.5481600000000  0.5072870000000 1.0
C      1  0.4734020000000  0.4615680000000  0.5050140000000 1.0
C      1  0.5925400000000  0.4835280000000  0.5121690000000 1.0
C      1  0.4727620000000  0.5547540000000  0.4205980000000 1.0
C      1  0.5272400000000  0.5357980000000  0.4978510000000 1.0
C      1  0.4600680000000  0.4186740000000  0.5018090000000 1.0
C      1  0.4768790000000  0.5291620000000  0.4858780000000 1.0
C      1  0.5344290000000  0.5165530000000  0.4231740000000 1.0
C      1  0.4119510000000  0.5334010000000  0.4637350000000 1.0
C      1  0.4920090000000  0.5947610000000  0.4852880000000 1.0
C      1  0.5005020000000  0.4099920000000  0.5399940000000 1.0
C      1  0.4770640000000  0.4823180000000  0.4227520000000 1.0
C      1  0.4648840000000  0.5313780000000  0.5813460000000 1.0
C      1  0.5439280000000  0.4932360000000  0.5184460000000 1.0
C      1  0.4327060000000  0.5733160000000  0.4737030000000 1.0
C      1  0.5674130000000  0.4688100000000  0.5540200000000 1.0
C      1  0.4879710000000  0.5022780000000  0.4461690000000 1.0
C      1  0.5672590000000  0.4342930000000  0.4682010000000 1.0
C      1  0.5318800000000  0.4675390000000  0.5064580000000 1.0
C      1  0.4137340000000  0.4873380000000  0.4622500000000 1.0
C      1  0.4602810000000  0.4905450000000  0.5865270000000 1.0
C      1  0.5155430000000  0.4729650000000  0.3949290000000 1.0
C      1  0.5418370000000  0.5450030000000  0.4278350000000 1.0
C      1  0.4491040000000  0.5595640000000  0.5410940000000 1.0
C      1  0.4676490000000  0.4388800000000  0.4496480000000 1.0
C      1  0.5005810000000  0.5661560000000  0.5182140000000 1.0
C      1  0.4439380000000  0.5118960000000  0.5765260000000 1.0
C      1  0.4763160000000  0.4388860000000  0.5722240000000 1.0
C      1  0.4922140000000  0.4631630000000  0.4794150000000 1.0
C      1  0.4871160000000  0.4165260000000  0.4930520000000 1.0
C      1  0.4324410000000  0.4699620000000  0.4483330000000 1.0
C      1  0.5037060000000  0.4373260000000  0.5791210000000 1.0
C      1  0.4968580000000  0.4913440000000  0.4008380000000 1.0
C      1  0.4799790000000  0.4771800000000  0.5513650000000 1.0
C      1  0.5111320000000  0.4180800000000  0.5123460000000 1.0
C      1  0.5463990000000  0.4142140000000  0.4743980000000 1.0
C      1  0.4717560000000  0.5495170000000  0.5592450000000 1.0
C      1  0.5097500000000  0.5175060000000  0.4046190000000 1.0
C      1  0.5096720000000  0.5765430000000  0.5452560000000 1.0
C      1  0.5313590000000  0.4415990000000  0.5484370000000 1.0
C      1  0.4671430000000  0.5020430000000  0.5380540000000 1.0
C      1  0.5078360000000  0.4851940000000  0.5604700000000 1.0
C      1  0.4709200000000  0.4905280000000  0.5115010000000 1.0
C      1  0.4275720000000  0.4133170000000  0.5404010000000 1.0
C      1  0.4525150000000  0.5403670000000  0.4381410000000 1.0
C      1  0.5138180000000  0.5580150000000  0.4279090000000 1.0
C      1  0.4811340000000  0.4527750000000  0.4282940000000 1.0
C      1  0.4166280000000  0.5433250000000  0.5110320000000 1.0
C      1  0.4269480000000  0.4408380000000  0.5373830000000 1.0
C      1  0.5244620000000  0.5575270000000  0.4764420000000 1.0
C      1  0.5784700000000  0.4423730000000  0.4925650000000 1.0
C      1  0.5818450000000  0.5176470000000  0.5480200000000 1.0
C      1  0.4775620000000  0.4864780000000  0.4675420000000 1.0
C      1  0.4308200000000  0.5380730000000  0.5358260000000 1.0
C      1  0.4342050000000  0.4630570000000  0.5544010000000 1.0
C      1  0.5173780000000  0.5379570000000  0.5710820000000 1.0
C      1  0.4300600000000  0.5529580000000  0.4547890000000 1.0
C      1  0.4444070000000  0.4479150000000  0.4622790000000 1.0
C      1  0.5762440000000  0.5021560000000  0.4474060000000 1.0
C      1  0.5733780000000  0.5261550000000  0.4884590000000 1.0
C      1  0.5095960000000  0.4226990000000  0.4479100000000 1.0
C      1  0.5605970000000  0.5491410000000  0.4484000000000 1.0
C      1  0.4079650000000  0.4951750000000  0.4906690000000 1.0
C      1  0.4529700000000  0.4144840000000  0.5298440000000 1.0
C      1  0.5417510000000  0.5834980000000  0.5101660000000 1.0
C      1  0.4969630000000  0.5415580000000  0.4103370000000 1.0
C      1  0.4077110000000  0.5246210000000  0.4908660000000 1.0
C      1  0.5516840000000  0.5654950000000  0.4694840000000 1.0
C      1  0.4784910000000  0.5442950000000  0.5117020000000 1.0
C      1  0.4993240000000  0.4992770000000  0.5135790000000 1.0
C      1  0.5233250000000  0.5463690000000  0.5240570000000 1.0
C      1  0.4551440000000  0.5903400000000  0.4718160000000 1.0
C      1  0.4139380000000  0.4783810000000  0.5138040000000 1.0
C      1  0.5151080000000  0.4479770000000  0.5234010000000 1.0
C      1  0.5484370000000  0.4749490000000  0.5767970000000 1.0
C      1  0.4365880000000  0.5109570000000  0.5480880000000 1.0
C      1  0.4600160000000  0.4652100000000  0.5707850000000 1.0
C      1  0.5455050000000  0.5448600000000  0.5738780000000 1.0
C      1  0.5145890000000  0.5800140000000  0.4958560000000 1.0
C      1  0.4821650000000  0.5283830000000  0.5376520000000 1.0
C      1  0.5625600000000  0.5708450000000  0.4957630000000 1.0
C      1  0.5756970000000  0.5276990000000  0.4599240000000 1.0
C      1  0.4653410000000  0.5927080000000  0.4985620000000 1.0
C      1  0.5204480000000  0.4731030000000  0.4809650000000 1.0
C      1  0.5292610000000  0.4049570000000  0.4547190000000 1.0
C      1  0.4786410000000  0.5336040000000  0.4568290000000 1.0
C      1  0.5161650000000  0.5133060000000  0.4490880000000 1.0
C      1  0.5566350000000  0.4960430000000  0.4271580000000 1.0
C      1  0.4154770000000  0.5111210000000  0.4473240000000 1.0
C      1  0.4896820000000  0.4318030000000  0.4679430000000 1.0
C      1  0.5231560000000  0.4608220000000  0.5705740000000 1.0
C      1  0.5759800000000  0.5436560000000  0.5357420000000 1.0
END
