TITL C-65702-5440-8 -4.45859892910636 125000 -756.644167313833 0 0 110 (C1) n - 1
REM
REM in /rds/project/t2_vol4/rds-t2-cs072/BORA/CARBON/from-Arr/AIRSS/Generating-Clusters/GAP-ML-2020/Only-C1/SD-CG/HFTN-CG
REM
REM
REM
REM
REM
REM ./C.cell (11c1c37f851c82e70ff6c80c92926a4b)
REM AIRSS Version 0.9.1 bugfix July 2018 build 013d7b7c2542+ Fri, 06 Jul 2018 19:26:36 +0100
REM compiler GCC version 9.3.0
REM options -cpp -mtune=generic -march=x86-64 -g -O0
REM seed -676497987 -848204019 491731067 -1935304385 -2063448317 -1101403394 624987117 -1638607352 2082436236 -1850342364 -1774331390 1314972060 318239095 752412779 1550438169 -1721995843 -522741895 -231566379 1362835711 1506457721 436462456 -1332593488 1345032693 1579955362 2142410094 885853559 -280535249 1875654130 669601591 -1880270479 -858443164 895674053 -1330933923
REM
CELL 1.54180   50.00000   50.00000   50.00000   90.00000   90.00000   90.00000
LATT -1
SFAC C  
C      1  0.4390730000000  0.5626800000000  0.5210130000000 1.0
C      1  0.4551420000000  0.5024190000000  0.5161020000000 1.0
C      1  0.5110920000000  0.4554600000000  0.5763200000000 1.0
C      1  0.5279080000000  0.5047360000000  0.5085040000000 1.0
C      1  0.4040850000000  0.4838800000000  0.5089890000000 1.0
C      1  0.5864970000000  0.4988530000000  0.4504180000000 1.0
C      1  0.4443810000000  0.4868760000000  0.5664640000000 1.0
C      1  0.5285450000000  0.4831340000000  0.4634400000000 1.0
C      1  0.4062750000000  0.5024130000000  0.4865660000000 1.0
C      1  0.5847140000000  0.4578110000000  0.5194750000000 1.0
C      1  0.4866550000000  0.5176670000000  0.4138990000000 1.0
C      1  0.5373070000000  0.5537190000000  0.4502560000000 1.0
C      1  0.5078470000000  0.5349540000000  0.5841980000000 1.0
C      1  0.5690900000000  0.5185540000000  0.4452450000000 1.0
C      1  0.4475700000000  0.5136570000000  0.5571240000000 1.0
C      1  0.4749650000000  0.5245930000000  0.5561180000000 1.0
C      1  0.4692810000000  0.4124550000000  0.4691790000000 1.0
C      1  0.4993470000000  0.5000110000000  0.5088100000000 1.0
C      1  0.4251220000000  0.4522530000000  0.5367740000000 1.0
C      1  0.5130040000000  0.5809200000000  0.5056030000000 1.0
C      1  0.4108820000000  0.4950280000000  0.5342660000000 1.0
C      1  0.4680570000000  0.5666830000000  0.5336980000000 1.0
C      1  0.5669720000000  0.5367090000000  0.4966730000000 1.0
C      1  0.4183370000000  0.5295050000000  0.4884180000000 1.0
C      1  0.5720870000000  0.4922810000000  0.5486010000000 1.0
C      1  0.5379330000000  0.4816570000000  0.4921880000000 1.0
C      1  0.5650300000000  0.5659500000000  0.4932810000000 1.0
C      1  0.5209820000000  0.4599320000000  0.5068990000000 1.0
C      1  0.4703000000000  0.4486700000000  0.5543730000000 1.0
C      1  0.5007510000000  0.4208470000000  0.5362500000000 1.0
C      1  0.4504890000000  0.4258080000000  0.5102530000000 1.0
C      1  0.4331350000000  0.5420440000000  0.4649700000000 1.0
C      1  0.4758400000000  0.4554610000000  0.4416020000000 1.0
C      1  0.4945640000000  0.4726970000000  0.5052800000000 1.0
C      1  0.5696490000000  0.4813680000000  0.4873690000000 1.0
C      1  0.4839660000000  0.5469270000000  0.5751700000000 1.0
C      1  0.5056220000000  0.5066140000000  0.5861430000000 1.0
C      1  0.4605480000000  0.4329970000000  0.4533710000000 1.0
C      1  0.4975150000000  0.4627640000000  0.4229760000000 1.0
C      1  0.4498710000000  0.4380310000000  0.5366580000000 1.0
C      1  0.4614400000000  0.5298070000000  0.4240020000000 1.0
C      1  0.5648660000000  0.5485910000000  0.5379260000000 1.0
C      1  0.4994930000000  0.4156010000000  0.5099340000000 1.0
C      1  0.4980250000000  0.5222210000000  0.4622150000000 1.0
C      1  0.4491780000000  0.5737400000000  0.4973240000000 1.0
C      1  0.4817980000000  0.5390980000000  0.5305230000000 1.0
C      1  0.4347010000000  0.5022780000000  0.4498330000000 1.0
C      1  0.4296530000000  0.5169000000000  0.5335250000000 1.0
C      1  0.5230650000000  0.4645380000000  0.5360650000000 1.0
C      1  0.4923710000000  0.5666810000000  0.4404430000000 1.0
C      1  0.4507870000000  0.4857180000000  0.4945950000000 1.0
C      1  0.5279730000000  0.5862440000000  0.5301320000000 1.0
C      1  0.4571240000000  0.5564810000000  0.4748670000000 1.0
C      1  0.5503850000000  0.5349930000000  0.5580100000000 1.0
C      1  0.4770770000000  0.4768990000000  0.4617450000000 1.0
C      1  0.5800920000000  0.5311630000000  0.5210310000000 1.0
C      1  0.4341390000000  0.4420640000000  0.4657030000000 1.0
C      1  0.4139530000000  0.4558580000000  0.5103990000000 1.0
C      1  0.4850810000000  0.5377930000000  0.4384370000000 1.0
C      1  0.5246300000000  0.5525590000000  0.5096710000000 1.0
C      1  0.5499330000000  0.4457710000000  0.4322430000000 1.0
C      1  0.4911870000000  0.5872800000000  0.4892570000000 1.0
C      1  0.4295710000000  0.4378290000000  0.4941490000000 1.0
C      1  0.5476310000000  0.4477180000000  0.5472630000000 1.0
C      1  0.4945470000000  0.4794730000000  0.5810330000000 1.0
C      1  0.4375090000000  0.5276320000000  0.4391210000000 1.0
C      1  0.5125340000000  0.5329120000000  0.4157180000000 1.0
C      1  0.5490500000000  0.4293760000000  0.5215440000000 1.0
C      1  0.4776630000000  0.5192170000000  0.5091250000000 1.0
C      1  0.5657670000000  0.4326940000000  0.4774980000000 1.0
C      1  0.5714100000000  0.4488510000000  0.4522410000000 1.0
C      1  0.5259040000000  0.5092340000000  0.4232830000000 1.0
C      1  0.5138100000000  0.5699500000000  0.5517000000000 1.0
C      1  0.5409640000000  0.5078300000000  0.4487900000000 1.0
C      1  0.4732390000000  0.4128950000000  0.4965530000000 1.0
C      1  0.4249360000000  0.5390800000000  0.5157080000000 1.0
C      1  0.4726790000000  0.4671690000000  0.4898180000000 1.0
C      1  0.5236490000000  0.4956920000000  0.5392290000000 1.0
C      1  0.4197780000000  0.4632660000000  0.4583000000000 1.0
C      1  0.4989260000000  0.4446570000000  0.5505710000000 1.0
C      1  0.5011630000000  0.4927410000000  0.4249190000000 1.0
C      1  0.5867950000000  0.5049450000000  0.5278240000000 1.0
C      1  0.5359730000000  0.4449380000000  0.5739400000000 1.0
C      1  0.5486180000000  0.5066760000000  0.5547440000000 1.0
C      1  0.5810130000000  0.4742990000000  0.4611700000000 1.0
C      1  0.4573210000000  0.5000710000000  0.4690520000000 1.0
C      1  0.5276070000000  0.5485850000000  0.5685480000000 1.0
C      1  0.4807630000000  0.5742050000000  0.4649050000000 1.0
C      1  0.5716910000000  0.4359040000000  0.5058190000000 1.0
C      1  0.5363970000000  0.5297150000000  0.4947210000000 1.0
C      1  0.4727140000000  0.5845980000000  0.5103590000000 1.0
C      1  0.5509430000000  0.5685400000000  0.5208400000000 1.0
C      1  0.5101880000000  0.5452080000000  0.5334160000000 1.0
C      1  0.5237080000000  0.4500300000000  0.4253280000000 1.0
C      1  0.5273420000000  0.5295430000000  0.4660460000000 1.0
C      1  0.5654740000000  0.5471750000000  0.4462710000000 1.0
C      1  0.4124160000000  0.4889880000000  0.4614760000000 1.0
C      1  0.5718400000000  0.4637740000000  0.5440730000000 1.0
C      1  0.5377890000000  0.4310890000000  0.4753770000000 1.0
C      1  0.5180460000000  0.5594080000000  0.4294320000000 1.0
C      1  0.5612080000000  0.5669700000000  0.4658230000000 1.0
C      1  0.5884130000000  0.4836650000000  0.5087770000000 1.0
C      1  0.4741070000000  0.5254190000000  0.4800430000000 1.0
C      1  0.5007190000000  0.4928080000000  0.4554930000000 1.0
C      1  0.4993170000000  0.5034670000000  0.5579390000000 1.0
C      1  0.5313950000000  0.4536360000000  0.4556640000000 1.0
C      1  0.4671750000000  0.4707480000000  0.5717850000000 1.0
C      1  0.4227930000000  0.4756890000000  0.5517100000000 1.0
C      1  0.4853850000000  0.5705970000000  0.5601300000000 1.0
C      1  0.5247390000000  0.4298000000000  0.5019200000000 1.0
END
