TITL C-65700-5605-1 163.287740419742 125000 -285.707938311132 0 0 44 (C1) n - 1
REM
REM in /rds/project/t2_vol4/rds-t2-cs072/BORA/CARBON/from-Arr/AIRSS/Generating-Clusters/GAP-ML-2020/Only-C1/SD-CG/HFTN-CG
REM
REM
REM
REM
REM
REM ./C.cell (11c1c37f851c82e70ff6c80c92926a4b)
REM AIRSS Version 0.9.1 bugfix July 2018 build 013d7b7c2542+ Fri, 06 Jul 2018 19:26:36 +0100
REM compiler GCC version 9.3.0
REM options -cpp -mtune=generic -march=x86-64 -g -O0
REM seed 843502462 1946725433 -1017385108 1800756413 -133266511 1396667768 -506596880 -488794986 609615250 1636574765 -1292779055 -779588064 -1987089071 -953178256 735699741 705329441 482156664 1677280005 290915092 -662105538 1463484156 -985493264 2136714206 -1873163724 -1974037582 1757521874 -1357768199 -1038371091 -365971386 48238945 -676793774 -1527512291 1354939117
REM
CELL 1.54180   50.00000   50.00000   50.00000   90.00000   90.00000   90.00000
LATT -1
SFAC C  
C      1  0.5180200000000  0.4926080000000  0.5622260000000 1.0
C      1  0.4426470000000  0.5438500000000  0.4602750000000 1.0
C      1  0.5143310000000  0.5076450000000  0.4552420000000 1.0
C      1  0.4680160000000  0.4913450000000  0.4605060000000 1.0
C      1  0.4525280000000  0.5124780000000  0.5331670000000 1.0
C      1  0.5173000000000  0.5451790000000  0.5194870000000 1.0
C      1  0.5715560000000  0.5088860000000  0.5003620000000 1.0
C      1  0.5127450000000  0.4432620000000  0.4948660000000 1.0
C      1  0.4660340000000  0.5096180000000  0.4874370000000 1.0
C      1  0.4630770000000  0.4687450000000  0.5115200000000 1.0
C      1  0.4522250000000  0.4968280000000  0.5103460000000 1.0
C      1  0.5781910000000  0.4908820000000  0.4824840000000 1.0
C      1  0.4912310000000  0.4778160000000  0.5053270000000 1.0
C      1  0.5262600000000  0.4996030000000  0.5343410000000 1.0
C      1  0.5568160000000  0.4742890000000  0.4750460000000 1.0
C      1  0.4929260000000  0.5300650000000  0.5234000000000 1.0
C      1  0.4785660000000  0.4571760000000  0.5350260000000 1.0
C      1  0.4461820000000  0.5304430000000  0.4376510000000 1.0
C      1  0.4848460000000  0.5708780000000  0.4988870000000 1.0
C      1  0.5412370000000  0.4382960000000  0.4954360000000 1.0
C      1  0.4570740000000  0.4955110000000  0.5542930000000 1.0
C      1  0.5562670000000  0.4463950000000  0.4734660000000 1.0
C      1  0.4643040000000  0.5532890000000  0.5045130000000 1.0
C      1  0.4664880000000  0.5382920000000  0.5283520000000 1.0
C      1  0.4967660000000  0.4853460000000  0.4573820000000 1.0
C      1  0.5189700000000  0.5345390000000  0.4530780000000 1.0
C      1  0.5525520000000  0.4526010000000  0.5177570000000 1.0
C      1  0.5378730000000  0.5268750000000  0.5258040000000 1.0
C      1  0.5071780000000  0.4699360000000  0.4811950000000 1.0
C      1  0.4518930000000  0.4657050000000  0.4666430000000 1.0
C      1  0.5199290000000  0.5093910000000  0.4835090000000 1.0
C      1  0.4941610000000  0.5153260000000  0.4964630000000 1.0
C      1  0.4766220000000  0.4759830000000  0.5561080000000 1.0
C      1  0.5109140000000  0.5620110000000  0.4951040000000 1.0
C      1  0.5058180000000  0.4563270000000  0.5207690000000 1.0
C      1  0.4527240000000  0.5372610000000  0.4839470000000 1.0
C      1  0.4580490000000  0.5076530000000  0.4376470000000 1.0
C      1  0.4507120000000  0.4546430000000  0.4892580000000 1.0
C      1  0.5171400000000  0.5552610000000  0.4685160000000 1.0
C      1  0.5647780000000  0.5269560000000  0.5175650000000 1.0
C      1  0.5347760000000  0.4745900000000  0.5191410000000 1.0
C      1  0.4990170000000  0.4813140000000  0.5743300000000 1.0
C      1  0.4995490000000  0.5009270000000  0.5223590000000 1.0
C      1  0.5317130000000  0.4839770000000  0.4897710000000 1.0
END
