TITL C-65681-5571-6 -48.5772361611058 125000 -299.642810704465 0 0 45 (C1) n - 1
REM
REM in /rds/project/t2_vol4/rds-t2-cs072/BORA/CARBON/from-Arr/AIRSS/Generating-Clusters/GAP-ML-2020/Only-C1/SD-CG/HFTN-CG
REM
REM
REM
REM
REM
REM ./C.cell (11c1c37f851c82e70ff6c80c92926a4b)
REM AIRSS Version 0.9.1 bugfix July 2018 build 013d7b7c2542+ Fri, 06 Jul 2018 19:26:36 +0100
REM compiler GCC version 9.3.0
REM options -cpp -mtune=generic -march=x86-64 -g -O0
REM seed 974035011 -1599435163 1645022637 1327351080 -1554648925 -1006220710 1833831444 -286751100 -502023291 1055227032 2073677882 1636186715 1894634674 -629280353 184002753 -673557649 -607696105 1811227464 210144332 -604513708 -1612308075 1633723545 -434858680 -1695566535 -2060080657 1475683365 -230773910 1734055327 1176002929 -1520068971 -886202428 -359164381 -651762182
REM
CELL 1.54180   50.00000   50.00000   50.00000   90.00000   90.00000   90.00000
LATT -1
SFAC C  
C      1  0.4587170000000  0.5574710000000  0.5017700000000 1.0
C      1  0.5430370000000  0.4547200000000  0.5211150000000 1.0
C      1  0.5251750000000  0.5437070000000  0.4738000000000 1.0
C      1  0.4758330000000  0.5307980000000  0.4506570000000 1.0
C      1  0.4627910000000  0.4856740000000  0.5413230000000 1.0
C      1  0.4979270000000  0.5347470000000  0.4702040000000 1.0
C      1  0.5150650000000  0.5121060000000  0.5036950000000 1.0
C      1  0.4961710000000  0.4870270000000  0.4356410000000 1.0
C      1  0.5174780000000  0.4720030000000  0.5565250000000 1.0
C      1  0.5247770000000  0.4841670000000  0.4385880000000 1.0
C      1  0.4854610000000  0.5341340000000  0.5412470000000 1.0
C      1  0.5561960000000  0.4933360000000  0.5321060000000 1.0
C      1  0.5551910000000  0.4773790000000  0.5060310000000 1.0
C      1  0.5515070000000  0.5225340000000  0.4503230000000 1.0
C      1  0.5504670000000  0.4857520000000  0.4800620000000 1.0
C      1  0.5252930000000  0.5189370000000  0.5597830000000 1.0
C      1  0.5081850000000  0.4655350000000  0.4491860000000 1.0
C      1  0.4395560000000  0.4855540000000  0.5234360000000 1.0
C      1  0.4994310000000  0.4447230000000  0.4979310000000 1.0
C      1  0.4702690000000  0.5023260000000  0.4959110000000 1.0
C      1  0.5449560000000  0.5469850000000  0.4538540000000 1.0
C      1  0.4347490000000  0.4805630000000  0.4794910000000 1.0
C      1  0.4810320000000  0.5061490000000  0.5506650000000 1.0
C      1  0.5167770000000  0.4420510000000  0.5202870000000 1.0
C      1  0.5472090000000  0.4954300000000  0.4536120000000 1.0
C      1  0.4506670000000  0.5639200000000  0.4779000000000 1.0
C      1  0.5236110000000  0.4896650000000  0.4880480000000 1.0
C      1  0.4891260000000  0.5227440000000  0.4959270000000 1.0
C      1  0.4757150000000  0.4610160000000  0.5340260000000 1.0
C      1  0.4576130000000  0.4826420000000  0.4622480000000 1.0
C      1  0.5439720000000  0.4703700000000  0.5458640000000 1.0
C      1  0.5316800000000  0.5357930000000  0.5008980000000 1.0
C      1  0.4775240000000  0.4767840000000  0.4844800000000 1.0
C      1  0.4409390000000  0.5012900000000  0.5000510000000 1.0
C      1  0.4398030000000  0.4638250000000  0.5037370000000 1.0
C      1  0.4765890000000  0.5420780000000  0.5151460000000 1.0
C      1  0.5015750000000  0.4536090000000  0.5421700000000 1.0
C      1  0.5051130000000  0.4674280000000  0.4792480000000 1.0
C      1  0.4725960000000  0.5009910000000  0.4450770000000 1.0
C      1  0.4580800000000  0.5506840000000  0.4558970000000 1.0
C      1  0.5474040000000  0.5180210000000  0.5414770000000 1.0
C      1  0.5127440000000  0.5406680000000  0.5462440000000 1.0
C      1  0.5354560000000  0.5428400000000  0.5270620000000 1.0
C      1  0.5065110000000  0.4974920000000  0.5612700000000 1.0
C      1  0.4700340000000  0.4543300000000  0.5059850000000 1.0
END
