TITL C-65686-5399-10 0.127113844006046 125000 -738.693587182665 0 0 104 (C1) n - 1
REM
REM in /rds/project/t2_vol4/rds-t2-cs072/BORA/CARBON/from-Arr/AIRSS/Generating-Clusters/GAP-ML-2020/Only-C1/SD-CG/HFTN-CG
REM
REM
REM
REM
REM
REM ./C.cell (11c1c37f851c82e70ff6c80c92926a4b)
REM AIRSS Version 0.9.1 bugfix July 2018 build 013d7b7c2542+ Fri, 06 Jul 2018 19:26:36 +0100
REM compiler GCC version 9.3.0
REM options -cpp -mtune=generic -march=x86-64 -g -O0
REM seed -161317730 921892412 -261230506 -467865429 669349986 2035853679 -57238043 -322652547 -1903810025 -1563409280 -985685900 -2129975780 -239778180 1848788171 501255692 -646691693 -2991373 966221248 -439079052 -1880349715 549508651 -683730436 840028273 1981603994 1725732695 656086224 1133876771 1724383578 1781117887 -539301110 -11607285 -727500609 436006812
REM
CELL 1.54180   50.00000   50.00000   50.00000   90.00000   90.00000   90.00000
LATT -1
SFAC C  
C      1  0.4943920000000  0.4514000000000  0.4199460000000 1.0
C      1  0.5529210000000  0.5674840000000  0.5136210000000 1.0
C      1  0.4726060000000  0.4728320000000  0.5127190000000 1.0
C      1  0.4381690000000  0.5572520000000  0.5126330000000 1.0
C      1  0.5319110000000  0.5549340000000  0.5584860000000 1.0
C      1  0.5125580000000  0.5672290000000  0.4417630000000 1.0
C      1  0.4375290000000  0.5573400000000  0.4585480000000 1.0
C      1  0.5539820000000  0.4459270000000  0.5525400000000 1.0
C      1  0.5647490000000  0.4906660000000  0.5594560000000 1.0
C      1  0.5655500000000  0.5511990000000  0.4918480000000 1.0
C      1  0.5483850000000  0.4683360000000  0.5682880000000 1.0
C      1  0.4596730000000  0.5881530000000  0.4848870000000 1.0
C      1  0.4299940000000  0.5302630000000  0.4529740000000 1.0
C      1  0.5609230000000  0.4279390000000  0.4851360000000 1.0
C      1  0.4442720000000  0.4368430000000  0.5029540000000 1.0
C      1  0.5009940000000  0.5940630000000  0.5084770000000 1.0
C      1  0.5345600000000  0.5296720000000  0.5732660000000 1.0
C      1  0.4325670000000  0.4933230000000  0.5562420000000 1.0
C      1  0.5328490000000  0.4162240000000  0.5212380000000 1.0
C      1  0.5152330000000  0.4508990000000  0.5018100000000 1.0
C      1  0.5778330000000  0.4750540000000  0.4873590000000 1.0
C      1  0.5555230000000  0.5579650000000  0.4677420000000 1.0
C      1  0.4673270000000  0.5462340000000  0.5675910000000 1.0
C      1  0.5354790000000  0.5517070000000  0.4511030000000 1.0
C      1  0.4943090000000  0.5546640000000  0.4224870000000 1.0
C      1  0.5013620000000  0.5860960000000  0.4597810000000 1.0
C      1  0.4751190000000  0.5673010000000  0.5500870000000 1.0
C      1  0.5593200000000  0.5180490000000  0.5647370000000 1.0
C      1  0.4805130000000  0.4383430000000  0.5602620000000 1.0
C      1  0.4383090000000  0.4796730000000  0.4485300000000 1.0
C      1  0.5692770000000  0.4460470000000  0.5284230000000 1.0
C      1  0.5711300000000  0.5347580000000  0.5444460000000 1.0
C      1  0.5290050000000  0.4873690000000  0.4185710000000 1.0
C      1  0.5032270000000  0.4339940000000  0.4424220000000 1.0
C      1  0.5093520000000  0.5159040000000  0.5787300000000 1.0
C      1  0.4559650000000  0.4359110000000  0.4557800000000 1.0
C      1  0.5502210000000  0.4804120000000  0.4377560000000 1.0
C      1  0.5589540000000  0.4251760000000  0.5126890000000 1.0
C      1  0.5545890000000  0.5571760000000  0.5398110000000 1.0
C      1  0.5138110000000  0.4855880000000  0.5328200000000 1.0
C      1  0.5127380000000  0.5463790000000  0.5147020000000 1.0
C      1  0.4507590000000  0.5022650000000  0.5775300000000 1.0
C      1  0.5776750000000  0.5245450000000  0.4962650000000 1.0
C      1  0.5522240000000  0.4542120000000  0.4487110000000 1.0
C      1  0.5216910000000  0.5143690000000  0.4213530000000 1.0
C      1  0.5087110000000  0.4418530000000  0.5666010000000 1.0
C      1  0.4863500000000  0.4923240000000  0.5292360000000 1.0
C      1  0.4729200000000  0.5884310000000  0.4601980000000 1.0
C      1  0.4416940000000  0.4636790000000  0.5175090000000 1.0
C      1  0.4891760000000  0.4495630000000  0.5183130000000 1.0
C      1  0.4515930000000  0.4571330000000  0.4361520000000 1.0
C      1  0.4380170000000  0.4418680000000  0.4765390000000 1.0
C      1  0.5308540000000  0.4332800000000  0.4504290000000 1.0
C      1  0.4292030000000  0.5106840000000  0.4959830000000 1.0
C      1  0.4516920000000  0.5069420000000  0.4495270000000 1.0
C      1  0.5305930000000  0.5240550000000  0.5104210000000 1.0
C      1  0.4991280000000  0.4860550000000  0.4734170000000 1.0
C      1  0.4391210000000  0.5680850000000  0.4856780000000 1.0
C      1  0.5557560000000  0.5033640000000  0.4540140000000 1.0
C      1  0.5138930000000  0.5905800000000  0.4848120000000 1.0
C      1  0.5051920000000  0.5558040000000  0.5473420000000 1.0
C      1  0.5004320000000  0.5132050000000  0.4620600000000 1.0
C      1  0.4824270000000  0.4250190000000  0.4607240000000 1.0
C      1  0.5018310000000  0.4884630000000  0.5845650000000 1.0
C      1  0.5365340000000  0.4181140000000  0.4735650000000 1.0
C      1  0.4739260000000  0.4830490000000  0.4855950000000 1.0
C      1  0.5251050000000  0.5742150000000  0.5064760000000 1.0
C      1  0.4803680000000  0.5120510000000  0.4389940000000 1.0
C      1  0.4878860000000  0.5345550000000  0.5079390000000 1.0
C      1  0.5799480000000  0.4913730000000  0.5340660000000 1.0
C      1  0.4680140000000  0.4209710000000  0.5080750000000 1.0
C      1  0.5690620000000  0.4521290000000  0.4721050000000 1.0
C      1  0.5263320000000  0.4972630000000  0.5107220000000 1.0
C      1  0.4586210000000  0.5078750000000  0.4803330000000 1.0
C      1  0.4140980000000  0.5204580000000  0.4730070000000 1.0
C      1  0.4259570000000  0.4810200000000  0.4982230000000 1.0
C      1  0.5797040000000  0.4697030000000  0.5160430000000 1.0
C      1  0.4798690000000  0.5185430000000  0.5318590000000 1.0
C      1  0.5198860000000  0.4660300000000  0.5784170000000 1.0
C      1  0.5314970000000  0.5220130000000  0.4487480000000 1.0
C      1  0.4406640000000  0.4678850000000  0.5472580000000 1.0
C      1  0.5123080000000  0.4688080000000  0.4089410000000 1.0
C      1  0.4790010000000  0.4267870000000  0.5335540000000 1.0
C      1  0.5157160000000  0.4561420000000  0.5303950000000 1.0
C      1  0.5732490000000  0.5020590000000  0.4774620000000 1.0
C      1  0.4817610000000  0.5270800000000  0.4819920000000 1.0
C      1  0.4724900000000  0.4836580000000  0.5802440000000 1.0
C      1  0.4573550000000  0.5718170000000  0.4426280000000 1.0
C      1  0.4446950000000  0.5301130000000  0.5694660000000 1.0
C      1  0.4280690000000  0.5309710000000  0.5194260000000 1.0
C      1  0.5283520000000  0.4330520000000  0.5460870000000 1.0
C      1  0.4691480000000  0.5662950000000  0.4187830000000 1.0
C      1  0.4632560000000  0.4604270000000  0.5649030000000 1.0
C      1  0.4733530000000  0.5903910000000  0.5095320000000 1.0
C      1  0.4287530000000  0.5209440000000  0.5464900000000 1.0
C      1  0.4668610000000  0.4547850000000  0.4140900000000 1.0
C      1  0.4951490000000  0.5259200000000  0.4184160000000 1.0
C      1  0.4592400000000  0.5735670000000  0.5278850000000 1.0
C      1  0.5197260000000  0.4771110000000  0.4897030000000 1.0
C      1  0.4277650000000  0.4686490000000  0.4729710000000 1.0
C      1  0.4878690000000  0.4151430000000  0.4869420000000 1.0
C      1  0.5821390000000  0.5182370000000  0.5239430000000 1.0
C      1  0.5165700000000  0.4182560000000  0.4950660000000 1.0
C      1  0.4915920000000  0.5309860000000  0.5596170000000 1.0
END
