TITL C-65707-5549-8 -0.0494261493491916 125000 -481.149420441201 0 0 70 (C1) n - 1
REM
REM in /rds/project/t2_vol4/rds-t2-cs072/BORA/CARBON/from-Arr/AIRSS/Generating-Clusters/GAP-ML-2020/Only-C1/SD-CG/HFTN-CG
REM
REM
REM
REM
REM
REM ./C.cell (11c1c37f851c82e70ff6c80c92926a4b)
REM AIRSS Version 0.9.1 bugfix July 2018 build 013d7b7c2542+ Fri, 06 Jul 2018 19:26:36 +0100
REM compiler GCC version 9.3.0
REM options -cpp -mtune=generic -march=x86-64 -g -O0
REM seed -1077433895 -598212562 996976466 531914477 38757946 984150748 1322796563 -1038900933 -1307097746 2072380092 1478485979 1229634356 -120389773 1291744693 1224703738 1136406217 918238246 1301113923 -75882000 -443201528 -871902753 -31239560 -1062094061 706221226 -1886401977 1616446411 -50468649 1523065981 -1054996975 67634313 -657198915 1727672438 -701869775
REM
CELL 1.54180   50.00000   50.00000   50.00000   90.00000   90.00000   90.00000
LATT -1
SFAC C  
C      1  0.5136290000000  0.4964330000000  0.5311950000000 1.0
C      1  0.4679920000000  0.4767850000000  0.5347180000000 1.0
C      1  0.5406040000000  0.4415840000000  0.5449270000000 1.0
C      1  0.5486840000000  0.4534500000000  0.4766310000000 1.0
C      1  0.5134040000000  0.5356750000000  0.5091710000000 1.0
C      1  0.5054590000000  0.5631010000000  0.5050200000000 1.0
C      1  0.4951390000000  0.4927530000000  0.4281640000000 1.0
C      1  0.5284830000000  0.4776990000000  0.5701700000000 1.0
C      1  0.5297850000000  0.5043140000000  0.5578800000000 1.0
C      1  0.4430720000000  0.5483880000000  0.4754510000000 1.0
C      1  0.4879090000000  0.4334320000000  0.4979230000000 1.0
C      1  0.4570390000000  0.4620840000000  0.4823340000000 1.0
C      1  0.4957340000000  0.5424920000000  0.4296660000000 1.0
C      1  0.4256680000000  0.5009980000000  0.4822950000000 1.0
C      1  0.4802720000000  0.4573030000000  0.4613970000000 1.0
C      1  0.4867250000000  0.5002580000000  0.5687980000000 1.0
C      1  0.5282150000000  0.4934200000000  0.5052230000000 1.0
C      1  0.4501690000000  0.4887010000000  0.4419740000000 1.0
C      1  0.5326360000000  0.4422800000000  0.5193460000000 1.0
C      1  0.4972080000000  0.4718260000000  0.5362440000000 1.0
C      1  0.4836070000000  0.4995280000000  0.4970500000000 1.0
C      1  0.4762170000000  0.5427900000000  0.5355600000000 1.0
C      1  0.4301510000000  0.5286740000000  0.4913450000000 1.0
C      1  0.5654840000000  0.4815510000000  0.5397240000000 1.0
C      1  0.5091060000000  0.4694510000000  0.4660140000000 1.0
C      1  0.5241380000000  0.4441730000000  0.4667480000000 1.0
C      1  0.5594190000000  0.4799480000000  0.4692710000000 1.0
C      1  0.5174380000000  0.4921630000000  0.4485380000000 1.0
C      1  0.4379320000000  0.4810790000000  0.4663920000000 1.0
C      1  0.5709650000000  0.4738320000000  0.5129590000000 1.0
C      1  0.5572800000000  0.5078890000000  0.5445270000000 1.0
C      1  0.5488280000000  0.5474100000000  0.5359680000000 1.0
C      1  0.5683840000000  0.5213470000000  0.4967030000000 1.0
C      1  0.4609560000000  0.4504120000000  0.5497770000000 1.0
C      1  0.4797040000000  0.4504130000000  0.5705130000000 1.0
C      1  0.5067810000000  0.4776610000000  0.4944890000000 1.0
C      1  0.4327990000000  0.4935660000000  0.5091420000000 1.0
C      1  0.5118890000000  0.5682920000000  0.4769520000000 1.0
C      1  0.4597980000000  0.4819730000000  0.5063400000000 1.0
C      1  0.5462880000000  0.4937390000000  0.4507180000000 1.0
C      1  0.4519070000000  0.5420340000000  0.4482730000000 1.0
C      1  0.4849140000000  0.5694530000000  0.4676030000000 1.0
C      1  0.4943490000000  0.5168160000000  0.5195540000000 1.0
C      1  0.4763020000000  0.5570420000000  0.4438120000000 1.0
C      1  0.5049390000000  0.4531730000000  0.5129340000000 1.0
C      1  0.5647680000000  0.5276660000000  0.5253780000000 1.0
C      1  0.5547780000000  0.4514430000000  0.5037600000000 1.0
C      1  0.4595860000000  0.4379910000000  0.5015110000000 1.0
C      1  0.5342690000000  0.5544000000000  0.4629400000000 1.0
C      1  0.4992470000000  0.4714960000000  0.5673170000000 1.0
C      1  0.4745750000000  0.4741120000000  0.4379350000000 1.0
C      1  0.4536630000000  0.5244910000000  0.5406620000000 1.0
C      1  0.4510250000000  0.4381520000000  0.5277840000000 1.0
C      1  0.4972380000000  0.4339060000000  0.4710460000000 1.0
C      1  0.4642110000000  0.5005770000000  0.5524930000000 1.0
C      1  0.5113290000000  0.5168800000000  0.4648100000000 1.0
C      1  0.4355880000000  0.5200170000000  0.5194620000000 1.0
C      1  0.5003340000000  0.5439490000000  0.5521560000000 1.0
C      1  0.5492430000000  0.4641580000000  0.5565210000000 1.0
C      1  0.4838080000000  0.5146080000000  0.4733510000000 1.0
C      1  0.4554150000000  0.5167140000000  0.4338420000000 1.0
C      1  0.4643040000000  0.5643880000000  0.4878000000000 1.0
C      1  0.4776370000000  0.5619780000000  0.5127450000000 1.0
C      1  0.5191480000000  0.5393750000000  0.4451320000000 1.0
C      1  0.5217880000000  0.5512050000000  0.5333770000000 1.0
C      1  0.5060980000000  0.5203070000000  0.5669030000000 1.0
C      1  0.5506350000000  0.5348120000000  0.4788950000000 1.0
C      1  0.5284330000000  0.5195510000000  0.4894510000000 1.0
C      1  0.5729970000000  0.4929500000000  0.4917070000000 1.0
C      1  0.4824820000000  0.5174860000000  0.4235900000000 1.0
END
