TITL C-65690-5493-1 0.00989459479788186 125000 -338.923771783582 0 0 49 (C1) n - 1
REM
REM in /rds/project/t2_vol4/rds-t2-cs072/BORA/CARBON/from-Arr/AIRSS/Generating-Clusters/GAP-ML-2020/Only-C1/SD-CG/HFTN-CG
REM
REM
REM
REM
REM
REM ./C.cell (11c1c37f851c82e70ff6c80c92926a4b)
REM AIRSS Version 0.9.1 bugfix July 2018 build 013d7b7c2542+ Fri, 06 Jul 2018 19:26:36 +0100
REM compiler GCC version 9.3.0
REM options -cpp -mtune=generic -march=x86-64 -g -O0
REM seed -143060851 1664646475 511405183 1346117088 475476826 1190854696 -365775952 -2000024003 -1813920975 515681667 1954784579 -1724383241 -287446102 -935623645 1756999469 -1230932192 1219281813 -364285936 351523002 -131271154 -1373403284 -1740980342 655966619 466774974 1544887557 1896135160 -2038995975 226341111 189812173 676553368 541064152 -1582982382 -502264088
REM
CELL 1.54180   50.00000   50.00000   50.00000   90.00000   90.00000   90.00000
LATT -1
SFAC C  
C      1  0.4680390000000  0.5375550000000  0.4528650000000 1.0
C      1  0.4730300000000  0.4792590000000  0.5714620000000 1.0
C      1  0.4776750000000  0.5154550000000  0.4383790000000 1.0
C      1  0.4516080000000  0.4845210000000  0.4684770000000 1.0
C      1  0.4627950000000  0.4584430000000  0.4765990000000 1.0
C      1  0.5409400000000  0.4512580000000  0.5033900000000 1.0
C      1  0.4845660000000  0.4709360000000  0.4383150000000 1.0
C      1  0.4477930000000  0.5059760000000  0.4871740000000 1.0
C      1  0.4650700000000  0.4908480000000  0.4435960000000 1.0
C      1  0.5161350000000  0.5051740000000  0.5075460000000 1.0
C      1  0.5404060000000  0.4653890000000  0.5278780000000 1.0
C      1  0.4594230000000  0.4736110000000  0.5230060000000 1.0
C      1  0.5267350000000  0.5450230000000  0.5328390000000 1.0
C      1  0.4934570000000  0.4434810000000  0.5118310000000 1.0
C      1  0.5232740000000  0.5287740000000  0.5565970000000 1.0
C      1  0.5214220000000  0.5308510000000  0.4535560000000 1.0
C      1  0.5094100000000  0.5345530000000  0.5129330000000 1.0
C      1  0.5072170000000  0.5114610000000  0.4376140000000 1.0
C      1  0.5105080000000  0.4824050000000  0.4359820000000 1.0
C      1  0.4823320000000  0.5610230000000  0.4499880000000 1.0
C      1  0.5218420000000  0.4597670000000  0.5489590000000 1.0
C      1  0.4681190000000  0.4544650000000  0.5034360000000 1.0
C      1  0.5060680000000  0.4902320000000  0.4881810000000 1.0
C      1  0.5213750000000  0.4826730000000  0.5667570000000 1.0
C      1  0.5477480000000  0.5263970000000  0.4655190000000 1.0
C      1  0.4730630000000  0.5326080000000  0.5558990000000 1.0
C      1  0.4961490000000  0.4939920000000  0.5741690000000 1.0
C      1  0.4560450000000  0.5496800000000  0.5234730000000 1.0
C      1  0.4659770000000  0.5499270000000  0.4974350000000 1.0
C      1  0.5024460000000  0.5502310000000  0.4659880000000 1.0
C      1  0.4836500000000  0.4509490000000  0.4582640000000 1.0
C      1  0.5590380000000  0.4605410000000  0.4852960000000 1.0
C      1  0.4966830000000  0.4506510000000  0.5391590000000 1.0
C      1  0.5584270000000  0.5018090000000  0.4596580000000 1.0
C      1  0.5398470000000  0.4947290000000  0.5264480000000 1.0
C      1  0.4970780000000  0.5225330000000  0.5672390000000 1.0
C      1  0.5153320000000  0.4410830000000  0.4937080000000 1.0
C      1  0.4701810000000  0.5595690000000  0.5457780000000 1.0
C      1  0.4540240000000  0.5326310000000  0.4780670000000 1.0
C      1  0.4562690000000  0.5218740000000  0.5336260000000 1.0
C      1  0.5359960000000  0.5035490000000  0.5536410000000 1.0
C      1  0.4948760000000  0.5498070000000  0.4939810000000 1.0
C      1  0.5474390000000  0.5475320000000  0.5132040000000 1.0
C      1  0.5275610000000  0.4650010000000  0.4510620000000 1.0
C      1  0.5519780000000  0.4750690000000  0.4628950000000 1.0
C      1  0.4516060000000  0.5003220000000  0.5158940000000 1.0
C      1  0.5104780000000  0.4463970000000  0.4662720000000 1.0
C      1  0.5549810000000  0.5428000000000  0.4892160000000 1.0
C      1  0.4738880000000  0.4671900000000  0.5467490000000 1.0
END
