TITL C-65695-5518-8 0.0507343202609649 125000 -301.924124686875 0 0 46 (C1) n - 1
REM
REM in /rds/project/t2_vol4/rds-t2-cs072/BORA/CARBON/from-Arr/AIRSS/Generating-Clusters/GAP-ML-2020/Only-C1/SD-CG/HFTN-CG
REM
REM
REM
REM
REM
REM ./C.cell (11c1c37f851c82e70ff6c80c92926a4b)
REM AIRSS Version 0.9.1 bugfix July 2018 build 013d7b7c2542+ Fri, 06 Jul 2018 19:26:36 +0100
REM compiler GCC version 9.3.0
REM options -cpp -mtune=generic -march=x86-64 -g -O0
REM seed -482523024 1263058406 1327372284 1209187200 -846963543 2062829014 1736590865 1537475470 665954830 -484638363 -1050781964 1573492973 -2031462607 1445024810 -420653935 -1502892571 -1506803571 1527752027 -979684765 -1350667386 462071399 -17262742 1335914953 1352206659 1835755292 1922293256 -1472127262 1021969309 1605643072 -336573711 1954709693 263221745 -715795939
REM
CELL 1.54180   50.00000   50.00000   50.00000   90.00000   90.00000   90.00000
LATT -1
SFAC C  
C      1  0.4420060000000  0.4835930000000  0.4775070000000 1.0
C      1  0.5469050000000  0.4707640000000  0.5418790000000 1.0
C      1  0.4667770000000  0.5103290000000  0.5016900000000 1.0
C      1  0.4703800000000  0.4867040000000  0.5421040000000 1.0
C      1  0.5225890000000  0.4782610000000  0.5572400000000 1.0
C      1  0.4421570000000  0.5122850000000  0.4857350000000 1.0
C      1  0.5080080000000  0.4573830000000  0.5435000000000 1.0
C      1  0.5030800000000  0.5152100000000  0.4740720000000 1.0
C      1  0.5512700000000  0.4837360000000  0.4469350000000 1.0
C      1  0.4746680000000  0.5113050000000  0.5576000000000 1.0
C      1  0.5278680000000  0.4702110000000  0.4305370000000 1.0
C      1  0.5258350000000  0.5494570000000  0.5239240000000 1.0
C      1  0.5209210000000  0.5016610000000  0.5125540000000 1.0
C      1  0.5222090000000  0.4435850000000  0.4338910000000 1.0
C      1  0.5218070000000  0.5701960000000  0.5054320000000 1.0
C      1  0.5004140000000  0.5193510000000  0.5513080000000 1.0
C      1  0.5336320000000  0.4429360000000  0.5031430000000 1.0
C      1  0.4799300000000  0.5360350000000  0.5054450000000 1.0
C      1  0.5465240000000  0.4965610000000  0.5288700000000 1.0
C      1  0.5028840000000  0.4787200000000  0.5031660000000 1.0
C      1  0.4684030000000  0.4797390000000  0.4663540000000 1.0
C      1  0.4913160000000  0.5442870000000  0.4785340000000 1.0
C      1  0.4856460000000  0.4662830000000  0.5265500000000 1.0
C      1  0.4540540000000  0.5265930000000  0.5448520000000 1.0
C      1  0.5015720000000  0.4859720000000  0.4296780000000 1.0
C      1  0.4347090000000  0.5372600000000  0.4912550000000 1.0
C      1  0.5065650000000  0.5672720000000  0.4851490000000 1.0
C      1  0.5210330000000  0.4613940000000  0.4845020000000 1.0
C      1  0.4462460000000  0.5513450000000  0.5383110000000 1.0
C      1  0.4511020000000  0.5503260000000  0.5108950000000 1.0
C      1  0.5292300000000  0.5087890000000  0.4850960000000 1.0
C      1  0.5381460000000  0.4853940000000  0.4727080000000 1.0
C      1  0.5752710000000  0.4905630000000  0.4373050000000 1.0
C      1  0.5462020000000  0.5176380000000  0.5483610000000 1.0
C      1  0.4528620000000  0.5031760000000  0.5269460000000 1.0
C      1  0.5467770000000  0.5436530000000  0.5413620000000 1.0
C      1  0.5324520000000  0.4491230000000  0.5287110000000 1.0
C      1  0.5054170000000  0.5270020000000  0.5230380000000 1.0
C      1  0.4593210000000  0.4537890000000  0.5169320000000 1.0
C      1  0.5007630000000  0.5133660000000  0.4332470000000 1.0
C      1  0.4855230000000  0.4682010000000  0.4477430000000 1.0
C      1  0.4949110000000  0.5315050000000  0.4508090000000 1.0
C      1  0.4464820000000  0.4678890000000  0.5000760000000 1.0
C      1  0.4853300000000  0.4946690000000  0.4858050000000 1.0
C      1  0.5228180000000  0.5062390000000  0.5621150000000 1.0
C      1  0.5079880000000  0.4502470000000  0.4571330000000 1.0
END
