TITL C-65701-5544-5 -0.0525224780949388 125000 -569.408244531198 0 0 81 (C1) n - 1
REM
REM in /rds/project/t2_vol4/rds-t2-cs072/BORA/CARBON/from-Arr/AIRSS/Generating-Clusters/GAP-ML-2020/Only-C1/SD-CG/HFTN-CG
REM
REM
REM
REM
REM
REM ./C.cell (11c1c37f851c82e70ff6c80c92926a4b)
REM AIRSS Version 0.9.1 bugfix July 2018 build 013d7b7c2542+ Fri, 06 Jul 2018 19:26:36 +0100
REM compiler GCC version 9.3.0
REM options -cpp -mtune=generic -march=x86-64 -g -O0
REM seed 1146163978 1284231193 -1910946407 -1050703958 -1467133423 1489260876 425425130 -1651898306 -1121030213 -840460409 -396580949 370586126 1050255732 -434251169 2107067324 1071922618 1705764797 1494656665 -623751424 -1745333221 -802202801 -1221488194 555469053 974098356 -1217383745 -411716481 -1516369910 -1527806187 -1360458504 2040425161 -1362500652 1819945078 -1320278293
REM
CELL 1.54180   50.00000   50.00000   50.00000   90.00000   90.00000   90.00000
LATT -1
SFAC C  
C      1  0.5098150000000  0.5048670000000  0.5696300000000 1.0
C      1  0.4478760000000  0.4845340000000  0.4452570000000 1.0
C      1  0.4221340000000  0.5049560000000  0.4736030000000 1.0
C      1  0.4499920000000  0.4659190000000  0.5486310000000 1.0
C      1  0.5030740000000  0.5492590000000  0.5536220000000 1.0
C      1  0.4905370000000  0.4349380000000  0.5331870000000 1.0
C      1  0.5376420000000  0.5893880000000  0.4967810000000 1.0
C      1  0.4741240000000  0.5450060000000  0.5560890000000 1.0
C      1  0.4282600000000  0.4699130000000  0.5131390000000 1.0
C      1  0.4745110000000  0.5766540000000  0.4956240000000 1.0
C      1  0.4957120000000  0.4778800000000  0.4546840000000 1.0
C      1  0.5236300000000  0.5230670000000  0.4714830000000 1.0
C      1  0.4830260000000  0.5761020000000  0.5230390000000 1.0
C      1  0.5288810000000  0.4841520000000  0.5703150000000 1.0
C      1  0.5749610000000  0.4737730000000  0.4841200000000 1.0
C      1  0.5482420000000  0.4714230000000  0.4716150000000 1.0
C      1  0.4911360000000  0.5287000000000  0.4309790000000 1.0
C      1  0.4517060000000  0.5431980000000  0.4541680000000 1.0
C      1  0.5378800000000  0.4423500000000  0.4767460000000 1.0
C      1  0.4956110000000  0.5678470000000  0.4780240000000 1.0
C      1  0.5455000000000  0.4834950000000  0.4452220000000 1.0
C      1  0.5818570000000  0.4676740000000  0.5283090000000 1.0
C      1  0.4973380000000  0.5042330000000  0.5171100000000 1.0
C      1  0.4943100000000  0.4519830000000  0.5560600000000 1.0
C      1  0.4352080000000  0.5515640000000  0.4758660000000 1.0
C      1  0.5438430000000  0.4448880000000  0.5495570000000 1.0
C      1  0.5655720000000  0.4629990000000  0.5509130000000 1.0
C      1  0.5485440000000  0.5347640000000  0.4838170000000 1.0
C      1  0.4296150000000  0.5060260000000  0.4459460000000 1.0
C      1  0.4684740000000  0.4363210000000  0.5149280000000 1.0
C      1  0.4475360000000  0.5680680000000  0.4950120000000 1.0
C      1  0.4327440000000  0.4861060000000  0.5377070000000 1.0
C      1  0.5318660000000  0.5682640000000  0.5167670000000 1.0
C      1  0.5821630000000  0.5200560000000  0.4494110000000 1.0
C      1  0.5821100000000  0.4964320000000  0.5229370000000 1.0
C      1  0.4409830000000  0.5582110000000  0.5215780000000 1.0
C      1  0.4841550000000  0.4830820000000  0.5031760000000 1.0
C      1  0.5548410000000  0.4359460000000  0.5010190000000 1.0
C      1  0.5213230000000  0.4574760000000  0.5627110000000 1.0
C      1  0.4972850000000  0.5372260000000  0.4793020000000 1.0
C      1  0.5186660000000  0.5825420000000  0.4809040000000 1.0
C      1  0.4810970000000  0.4987470000000  0.5680420000000 1.0
C      1  0.5083210000000  0.5687650000000  0.5333710000000 1.0
C      1  0.4234420000000  0.5284770000000  0.4896290000000 1.0
C      1  0.4430070000000  0.5280070000000  0.4316490000000 1.0
C      1  0.4428920000000  0.4621800000000  0.4634380000000 1.0
C      1  0.5187810000000  0.4910560000000  0.4392790000000 1.0
C      1  0.5130080000000  0.4307530000000  0.5170770000000 1.0
C      1  0.4718090000000  0.4965820000000  0.4602730000000 1.0
C      1  0.5166340000000  0.5184940000000  0.4401660000000 1.0
C      1  0.4683800000000  0.5257700000000  0.4169620000000 1.0
C      1  0.5406340000000  0.5227990000000  0.5331320000000 1.0
C      1  0.4333420000000  0.4797560000000  0.4863500000000 1.0
C      1  0.4627120000000  0.5192360000000  0.5590510000000 1.0
C      1  0.4625090000000  0.5635960000000  0.5384450000000 1.0
C      1  0.4391830000000  0.5129990000000  0.5420940000000 1.0
C      1  0.5084680000000  0.4414230000000  0.4905810000000 1.0
C      1  0.5093510000000  0.4350050000000  0.4391180000000 1.0
C      1  0.5397530000000  0.4313260000000  0.5247610000000 1.0
C      1  0.4614680000000  0.4942480000000  0.4888700000000 1.0
C      1  0.4742960000000  0.4714290000000  0.5617160000000 1.0
C      1  0.5642540000000  0.5079320000000  0.5428900000000 1.0
C      1  0.5279410000000  0.4923910000000  0.4879090000000 1.0
C      1  0.4652400000000  0.4454150000000  0.4649150000000 1.0
C      1  0.4873610000000  0.4509150000000  0.4454370000000 1.0
C      1  0.5252690000000  0.4989090000000  0.5165210000000 1.0
C      1  0.4595120000000  0.5201350000000  0.5016700000000 1.0
C      1  0.5650500000000  0.5021190000000  0.4427190000000 1.0
C      1  0.5046840000000  0.4735740000000  0.4840100000000 1.0
C      1  0.5765490000000  0.4539710000000  0.5041870000000 1.0
C      1  0.5562400000000  0.4878940000000  0.5617210000000 1.0
C      1  0.4459500000000  0.4497410000000  0.5245150000000 1.0
C      1  0.4866760000000  0.5287820000000  0.5064860000000 1.0
C      1  0.4344400000000  0.5303060000000  0.5183300000000 1.0
C      1  0.5329200000000  0.4287880000000  0.4490580000000 1.0
C      1  0.4780000000000  0.4362060000000  0.4880610000000 1.0
C      1  0.5733500000000  0.5215000000000  0.4771660000000 1.0
C      1  0.4778110000000  0.5278130000000  0.4582000000000 1.0
C      1  0.5204980000000  0.5281990000000  0.5567890000000 1.0
C      1  0.5824510000000  0.4998670000000  0.4942540000000 1.0
C      1  0.5440370000000  0.5436140000000  0.5121710000000 1.0
END
