TITL C-65683-5426-7 -0.048310188191204 125000 -343.264335561472 0 0 51 (C1) n - 1
REM
REM in /rds/project/t2_vol4/rds-t2-cs072/BORA/CARBON/from-Arr/AIRSS/Generating-Clusters/GAP-ML-2020/Only-C1/SD-CG/HFTN-CG
REM
REM
REM
REM
REM
REM ./C.cell (11c1c37f851c82e70ff6c80c92926a4b)
REM AIRSS Version 0.9.1 bugfix July 2018 build 013d7b7c2542+ Fri, 06 Jul 2018 19:26:36 +0100
REM compiler GCC version 9.3.0
REM options -cpp -mtune=generic -march=x86-64 -g -O0
REM seed -1941672910 -1367538874 1336983679 56339957 1721970299 -1321743076 -921150512 1618991221 1117979855 -1039627862 -947516320 1203771598 1119999901 -380396819 -1081480360 522073974 -1202620933 -111336104 -1799500926 506560789 1850695922 -1784461944 1815186342 -920270217 1274747821 -1292984982 -1868879265 593775109 -325949265 -967239176 -194935909 860843659 760573205
REM
CELL 1.54180   50.00000   50.00000   50.00000   90.00000   90.00000   90.00000
LATT -1
SFAC C  
C      1  0.5283600000000  0.4816640000000  0.4905530000000 1.0
C      1  0.5304660000000  0.4897290000000  0.4618270000000 1.0
C      1  0.5721150000000  0.5184780000000  0.5127390000000 1.0
C      1  0.4565390000000  0.4910480000000  0.5379970000000 1.0
C      1  0.5497010000000  0.5328770000000  0.4614490000000 1.0
C      1  0.4603030000000  0.5385860000000  0.5171790000000 1.0
C      1  0.4820600000000  0.4917340000000  0.4943560000000 1.0
C      1  0.4972320000000  0.5138900000000  0.4886650000000 1.0
C      1  0.5483410000000  0.4882840000000  0.5354790000000 1.0
C      1  0.4831470000000  0.5446240000000  0.5329070000000 1.0
C      1  0.4692240000000  0.4691510000000  0.4519500000000 1.0
C      1  0.5316220000000  0.5448220000000  0.5381000000000 1.0
C      1  0.5082750000000  0.5664210000000  0.4980590000000 1.0
C      1  0.5678420000000  0.4986090000000  0.4927560000000 1.0
C      1  0.4933060000000  0.4577390000000  0.4658430000000 1.0
C      1  0.5050020000000  0.4784900000000  0.5419450000000 1.0
C      1  0.4723740000000  0.4441240000000  0.5228820000000 1.0
C      1  0.4314790000000  0.5064780000000  0.4989250000000 1.0
C      1  0.4578160000000  0.4383460000000  0.4988760000000 1.0
C      1  0.5279070000000  0.4409750000000  0.5251710000000 1.0
C      1  0.4463700000000  0.4841320000000  0.4603520000000 1.0
C      1  0.5002140000000  0.4545970000000  0.5206800000000 1.0
C      1  0.5325100000000  0.4691750000000  0.5554140000000 1.0
C      1  0.5237050000000  0.5409840000000  0.4595480000000 1.0
C      1  0.5120960000000  0.4701960000000  0.4468780000000 1.0
C      1  0.4374950000000  0.5262510000000  0.4793750000000 1.0
C      1  0.4755220000000  0.5493940000000  0.4672660000000 1.0
C      1  0.4525560000000  0.4651120000000  0.5285910000000 1.0
C      1  0.5092340000000  0.5564730000000  0.5229870000000 1.0
C      1  0.4898530000000  0.5236640000000  0.5511420000000 1.0
C      1  0.4561270000000  0.5456210000000  0.4889930000000 1.0
C      1  0.4817590000000  0.4961480000000  0.5498860000000 1.0
C      1  0.5566240000000  0.5066780000000  0.4669680000000 1.0
C      1  0.5356830000000  0.4426700000000  0.5519200000000 1.0
C      1  0.4882570000000  0.4832090000000  0.4350010000000 1.0
C      1  0.5493190000000  0.4470840000000  0.5084580000000 1.0
C      1  0.4455980000000  0.5134740000000  0.5227540000000 1.0
C      1  0.5007860000000  0.4674810000000  0.4933370000000 1.0
C      1  0.5222240000000  0.5017440000000  0.5313020000000 1.0
C      1  0.5034850000000  0.5576250000000  0.4729610000000 1.0
C      1  0.5666250000000  0.5100080000000  0.5393600000000 1.0
C      1  0.4339690000000  0.4807310000000  0.4865470000000 1.0
C      1  0.5223570000000  0.5091980000000  0.5025610000000 1.0
C      1  0.5179210000000  0.5233560000000  0.5502520000000 1.0
C      1  0.4691620000000  0.5285750000000  0.4472730000000 1.0
C      1  0.5526480000000  0.4754650000000  0.5064280000000 1.0
C      1  0.5575870000000  0.5355840000000  0.5309230000000 1.0
C      1  0.4462970000000  0.5135810000000  0.4555330000000 1.0
C      1  0.5115560000000  0.5147270000000  0.4574450000000 1.0
C      1  0.4393820000000  0.4594430000000  0.5031020000000 1.0
C      1  0.4899690000000  0.5115500000000  0.4391040000000 1.0
END
