TITL C-65685-6560-6 0.179857969674361 125000 -807.6758156735 0 0 116 (C1) n - 1
REM
REM in /rds/project/t2_vol4/rds-t2-cs072/BORA/CARBON/from-Arr/AIRSS/Generating-Clusters/GAP-ML-2020/Only-C1/SD-CG/HFTN-CG
REM
REM
REM
REM
REM
REM ./C.cell (11c1c37f851c82e70ff6c80c92926a4b)
REM AIRSS Version 0.9.1 bugfix July 2018 build 013d7b7c2542+ Fri, 06 Jul 2018 19:26:36 +0100
REM compiler GCC version 9.3.0
REM options -cpp -mtune=generic -march=x86-64 -g -O0
REM seed -1103077531 543137791 73560186 400252324 1949628837 -861078903 858866515 -554773497 781837946 -168785697 1263642867 -428633158 114326387 -1602097078 -880377404 200748683 780953652 1550018717 1973782420 -1920880400 730273148 -2024389477 -1409064584 -1897908066 1101388067 -833260590 -1516568680 -138452882 -590471191 1012711668 -1852892666 -605893415 1523872824
REM
CELL 1.54180   50.00000   50.00000   50.00000   90.00000   90.00000   90.00000
LATT -1
SFAC C  
C      1  0.4178270000000  0.5156780000000  0.5292690000000 1.0
C      1  0.5933520000000  0.4588820000000  0.5011000000000 1.0
C      1  0.4886720000000  0.4349290000000  0.4474870000000 1.0
C      1  0.4798360000000  0.4268140000000  0.5268590000000 1.0
C      1  0.5145860000000  0.4324030000000  0.4347790000000 1.0
C      1  0.5095110000000  0.5708130000000  0.4802370000000 1.0
C      1  0.4352220000000  0.5195600000000  0.5515690000000 1.0
C      1  0.4584600000000  0.4777720000000  0.5068540000000 1.0
C      1  0.5364780000000  0.4709680000000  0.4438530000000 1.0
C      1  0.4182360000000  0.4577960000000  0.4844010000000 1.0
C      1  0.4745270000000  0.4564650000000  0.4895060000000 1.0
C      1  0.4621600000000  0.5848180000000  0.4873760000000 1.0
C      1  0.4910000000000  0.4625100000000  0.4661970000000 1.0
C      1  0.5738280000000  0.4819410000000  0.5415140000000 1.0
C      1  0.5703490000000  0.4478030000000  0.5110960000000 1.0
C      1  0.5430380000000  0.5232080000000  0.4862540000000 1.0
C      1  0.4394980000000  0.5350870000000  0.4340580000000 1.0
C      1  0.4536930000000  0.5568930000000  0.4506360000000 1.0
C      1  0.5411770000000  0.5011840000000  0.5052400000000 1.0
C      1  0.4786370000000  0.5104490000000  0.4519180000000 1.0
C      1  0.5213290000000  0.4571020000000  0.4222510000000 1.0
C      1  0.4947470000000  0.5605510000000  0.5725420000000 1.0
C      1  0.5015520000000  0.5254990000000  0.6018150000000 1.0
C      1  0.5102170000000  0.4780670000000  0.5909350000000 1.0
C      1  0.5039580000000  0.5035420000000  0.4685090000000 1.0
C      1  0.5642440000000  0.5230570000000  0.5462360000000 1.0
C      1  0.5565260000000  0.4513890000000  0.4567910000000 1.0
C      1  0.4905180000000  0.4356910000000  0.5514650000000 1.0
C      1  0.4757560000000  0.5220270000000  0.5913440000000 1.0
C      1  0.5292870000000  0.5725400000000  0.5045200000000 1.0
C      1  0.4523500000000  0.5208060000000  0.4146650000000 1.0
C      1  0.5029830000000  0.5023840000000  0.4093840000000 1.0
C      1  0.5540920000000  0.4862440000000  0.4229050000000 1.0
C      1  0.5881380000000  0.5277320000000  0.4837290000000 1.0
C      1  0.4744360000000  0.5024910000000  0.4215610000000 1.0
C      1  0.5553750000000  0.5728530000000  0.4947350000000 1.0
C      1  0.4373030000000  0.4426510000000  0.5304070000000 1.0
C      1  0.5024820000000  0.4730080000000  0.4089070000000 1.0
C      1  0.5051410000000  0.4204740000000  0.4870640000000 1.0
C      1  0.4777910000000  0.5765440000000  0.4443540000000 1.0
C      1  0.5245470000000  0.5584090000000  0.5327080000000 1.0
C      1  0.4928240000000  0.5441030000000  0.4818250000000 1.0
C      1  0.5835280000000  0.5160380000000  0.4574680000000 1.0
C      1  0.4536010000000  0.5033140000000  0.4660910000000 1.0
C      1  0.4100580000000  0.4887870000000  0.5200580000000 1.0
C      1  0.5446980000000  0.5082570000000  0.6023040000000 1.0
C      1  0.5239580000000  0.5177060000000  0.4136530000000 1.0
C      1  0.5519640000000  0.5553000000000  0.4475420000000 1.0
C      1  0.5176030000000  0.4438100000000  0.5443490000000 1.0
C      1  0.4702950000000  0.5447190000000  0.5749560000000 1.0
C      1  0.5638020000000  0.4561660000000  0.5388440000000 1.0
C      1  0.5473710000000  0.5457370000000  0.5509380000000 1.0
C      1  0.5140620000000  0.5081830000000  0.5197640000000 1.0
C      1  0.5191050000000  0.5290260000000  0.4715140000000 1.0
C      1  0.5500650000000  0.4478990000000  0.4880270000000 1.0
C      1  0.4284510000000  0.4656330000000  0.5120090000000 1.0
C      1  0.5642530000000  0.5300240000000  0.4400530000000 1.0
C      1  0.5803310000000  0.4648970000000  0.4443310000000 1.0
C      1  0.4010580000000  0.4786060000000  0.4753110000000 1.0
C      1  0.3945500000000  0.5184290000000  0.4878440000000 1.0
C      1  0.5410680000000  0.4508670000000  0.5573230000000 1.0
C      1  0.4799160000000  0.5719340000000  0.5303590000000 1.0
C      1  0.4795800000000  0.5399140000000  0.4558710000000 1.0
C      1  0.5016620000000  0.5732540000000  0.5486300000000 1.0
C      1  0.4050930000000  0.5058660000000  0.4625670000000 1.0
C      1  0.5910550000000  0.5070810000000  0.5023920000000 1.0
C      1  0.5559600000000  0.4887200000000  0.5854630000000 1.0
C      1  0.5685550000000  0.5043060000000  0.5217100000000 1.0
C      1  0.4586300000000  0.5042460000000  0.4937320000000 1.0
C      1  0.5322900000000  0.4719300000000  0.4952960000000 1.0
C      1  0.5067110000000  0.5332570000000  0.5326300000000 1.0
C      1  0.4348770000000  0.4399850000000  0.4684840000000 1.0
C      1  0.5375140000000  0.4281450000000  0.4519260000000 1.0
C      1  0.4305320000000  0.4725190000000  0.5649130000000 1.0
C      1  0.5658160000000  0.5439500000000  0.4907210000000 1.0
C      1  0.4416400000000  0.5671960000000  0.4765950000000 1.0
C      1  0.5542920000000  0.5335540000000  0.6001560000000 1.0
C      1  0.5768040000000  0.4715680000000  0.4172730000000 1.0
C      1  0.4731500000000  0.4819410000000  0.5310930000000 1.0
C      1  0.4113710000000  0.5343940000000  0.5058750000000 1.0
C      1  0.5315850000000  0.4245670000000  0.4791620000000 1.0
C      1  0.4233480000000  0.5555770000000  0.4935070000000 1.0
C      1  0.4825760000000  0.4728670000000  0.5840890000000 1.0
C      1  0.4451120000000  0.4511370000000  0.5571220000000 1.0
C      1  0.5895090000000  0.4876020000000  0.4606000000000 1.0
C      1  0.4754590000000  0.4711030000000  0.4169660000000 1.0
C      1  0.4751800000000  0.5280640000000  0.5011330000000 1.0
C      1  0.4978890000000  0.5576170000000  0.4390170000000 1.0
C      1  0.4662930000000  0.4474980000000  0.4312530000000 1.0
C      1  0.4954710000000  0.4402200000000  0.5063370000000 1.0
C      1  0.4578390000000  0.4304920000000  0.4850490000000 1.0
C      1  0.5966870000000  0.4825370000000  0.4881610000000 1.0
C      1  0.5002070000000  0.4847810000000  0.5283100000000 1.0
C      1  0.5167630000000  0.5023000000000  0.6055400000000 1.0
C      1  0.4302940000000  0.5141050000000  0.4528690000000 1.0
C      1  0.4661440000000  0.5874000000000  0.5142090000000 1.0
C      1  0.4537810000000  0.4253600000000  0.5157870000000 1.0
C      1  0.4652270000000  0.4963280000000  0.5850670000000 1.0
C      1  0.5361230000000  0.4684970000000  0.5798180000000 1.0
C      1  0.4419780000000  0.4423920000000  0.4421280000000 1.0
C      1  0.5163100000000  0.4771770000000  0.4684830000000 1.0
C      1  0.4727080000000  0.4501520000000  0.5684410000000 1.0
C      1  0.3916620000000  0.4924470000000  0.4989460000000 1.0
C      1  0.5690010000000  0.4998270000000  0.5630460000000 1.0
C      1  0.5229680000000  0.5562830000000  0.4532620000000 1.0
C      1  0.4569020000000  0.5383880000000  0.5510400000000 1.0
C      1  0.4847540000000  0.5865140000000  0.4700240000000 1.0
C      1  0.5137300000000  0.5489080000000  0.5890810000000 1.0
C      1  0.4406450000000  0.4970740000000  0.5694640000000 1.0
C      1  0.5408450000000  0.5467790000000  0.5797460000000 1.0
C      1  0.5498130000000  0.5143170000000  0.4213050000000 1.0
C      1  0.5642880000000  0.5655710000000  0.4705790000000 1.0
C      1  0.5138660000000  0.4599330000000  0.5182070000000 1.0
C      1  0.4770840000000  0.5407310000000  0.5284410000000 1.0
C      1  0.4819060000000  0.4175510000000  0.4703920000000 1.0
C      1  0.4951020000000  0.5076090000000  0.4964990000000 1.0
END
