TITL C-65684-5536-10 0.174971084288483 125000 -625.371963006092 0 0 91 (C1) n - 1
REM
REM in /rds/project/t2_vol4/rds-t2-cs072/BORA/CARBON/from-Arr/AIRSS/Generating-Clusters/GAP-ML-2020/Only-C1/SD-CG/HFTN-CG
REM
REM
REM
REM
REM
REM ./C.cell (11c1c37f851c82e70ff6c80c92926a4b)
REM AIRSS Version 0.9.1 bugfix July 2018 build 013d7b7c2542+ Fri, 06 Jul 2018 19:26:36 +0100
REM compiler GCC version 9.3.0
REM options -cpp -mtune=generic -march=x86-64 -g -O0
REM seed -1589511989 -1395060838 -40771340 -738837689 -253197239 -1197596195 -274959891 12097440 223579368 -1847057984 -117805581 1043333488 1682342553 307160257 -1454248941 -677550848 -56395582 863670479 -659285613 -2058364719 -799725926 -1104865231 -563794221 -574917907 754811761 1140762264 71185745 935612278 -147539925 -1858899646 45705908 -686348093 -1585861706
REM
CELL 1.54180   50.00000   50.00000   50.00000   90.00000   90.00000   90.00000
LATT -1
SFAC C  
C      1  0.5551630000000  0.5304050000000  0.5392510000000 1.0
C      1  0.5525060000000  0.4415700000000  0.4956860000000 1.0
C      1  0.4557120000000  0.5070190000000  0.5595240000000 1.0
C      1  0.4880400000000  0.5136050000000  0.5184630000000 1.0
C      1  0.4896060000000  0.4705430000000  0.4152490000000 1.0
C      1  0.5614180000000  0.4967540000000  0.5012240000000 1.0
C      1  0.4932840000000  0.4775910000000  0.5554820000000 1.0
C      1  0.4720970000000  0.5799490000000  0.5181850000000 1.0
C      1  0.4802260000000  0.5699690000000  0.5437040000000 1.0
C      1  0.4252450000000  0.5391610000000  0.5016960000000 1.0
C      1  0.4741500000000  0.4237090000000  0.4955150000000 1.0
C      1  0.5415010000000  0.5150340000000  0.5174300000000 1.0
C      1  0.5164810000000  0.4038300000000  0.5055010000000 1.0
C      1  0.5171270000000  0.5098830000000  0.4778670000000 1.0
C      1  0.5362120000000  0.5614440000000  0.4820430000000 1.0
C      1  0.4609560000000  0.5556590000000  0.5584790000000 1.0
C      1  0.5773090000000  0.4471900000000  0.5038870000000 1.0
C      1  0.5110410000000  0.5026300000000  0.5581580000000 1.0
C      1  0.4355650000000  0.5503660000000  0.5463380000000 1.0
C      1  0.5006650000000  0.5404240000000  0.5142720000000 1.0
C      1  0.5387960000000  0.4537610000000  0.5548960000000 1.0
C      1  0.4785960000000  0.4959860000000  0.4094520000000 1.0
C      1  0.5013430000000  0.5528530000000  0.4534310000000 1.0
C      1  0.4989740000000  0.5145090000000  0.4060720000000 1.0
C      1  0.4657130000000  0.4414390000000  0.5464330000000 1.0
C      1  0.4339240000000  0.4944910000000  0.4417300000000 1.0
C      1  0.5548700000000  0.5581000000000  0.5308820000000 1.0
C      1  0.4911780000000  0.5673600000000  0.4988040000000 1.0
C      1  0.4690690000000  0.4624180000000  0.5674570000000 1.0
C      1  0.5798700000000  0.5163470000000  0.4913480000000 1.0
C      1  0.4881100000000  0.4444040000000  0.4803040000000 1.0
C      1  0.5431010000000  0.4530640000000  0.5834540000000 1.0
C      1  0.4994410000000  0.5302900000000  0.5613270000000 1.0
C      1  0.5569440000000  0.5154200000000  0.5630860000000 1.0
C      1  0.4920970000000  0.4927360000000  0.4833730000000 1.0
C      1  0.4711490000000  0.5109910000000  0.4935080000000 1.0
C      1  0.4233100000000  0.5123900000000  0.4620960000000 1.0
C      1  0.5675350000000  0.4891550000000  0.5645880000000 1.0
C      1  0.4573570000000  0.5034730000000  0.4283080000000 1.0
C      1  0.4819360000000  0.5573230000000  0.4725300000000 1.0
C      1  0.5199130000000  0.5761290000000  0.5017220000000 1.0
C      1  0.5719040000000  0.4721210000000  0.5168060000000 1.0
C      1  0.4342180000000  0.5220530000000  0.5442540000000 1.0
C      1  0.5201690000000  0.5180130000000  0.4254040000000 1.0
C      1  0.4448590000000  0.5843660000000  0.5142540000000 1.0
C      1  0.4642420000000  0.5325100000000  0.4720770000000 1.0
C      1  0.4504930000000  0.4486810000000  0.5228010000000 1.0
C      1  0.4797380000000  0.4455670000000  0.4283780000000 1.0
C      1  0.5166940000000  0.5000460000000  0.5259060000000 1.0
C      1  0.5164170000000  0.4413900000000  0.4729880000000 1.0
C      1  0.5028380000000  0.5239070000000  0.4494730000000 1.0
C      1  0.5011160000000  0.4281850000000  0.4267040000000 1.0
C      1  0.4489250000000  0.4365650000000  0.4967960000000 1.0
C      1  0.5313480000000  0.4211460000000  0.4905630000000 1.0
C      1  0.5649620000000  0.5594170000000  0.4862820000000 1.0
C      1  0.4340130000000  0.5352290000000  0.4744290000000 1.0
C      1  0.5461470000000  0.4794170000000  0.5849330000000 1.0
C      1  0.4447210000000  0.4960160000000  0.5025990000000 1.0
C      1  0.4244300000000  0.4907630000000  0.4810850000000 1.0
C      1  0.5110300000000  0.4733580000000  0.4365950000000 1.0
C      1  0.5741910000000  0.5346380000000  0.4728310000000 1.0
C      1  0.5522360000000  0.4963270000000  0.4503600000000 1.0
C      1  0.4719900000000  0.4547070000000  0.4570580000000 1.0
C      1  0.5611350000000  0.5242090000000  0.4494720000000 1.0
C      1  0.4737520000000  0.4929620000000  0.5375150000000 1.0
C      1  0.4752370000000  0.5124170000000  0.4495570000000 1.0
C      1  0.5333450000000  0.5038200000000  0.5772920000000 1.0
C      1  0.4286760000000  0.4710380000000  0.4604200000000 1.0
C      1  0.5426470000000  0.4893930000000  0.4779190000000 1.0
C      1  0.5729380000000  0.5659780000000  0.5114870000000 1.0
C      1  0.4611160000000  0.4754880000000  0.5170990000000 1.0
C      1  0.5050660000000  0.5538330000000  0.5415180000000 1.0
C      1  0.5284760000000  0.5596690000000  0.4542170000000 1.0
C      1  0.4921470000000  0.4137580000000  0.5157180000000 1.0
C      1  0.5322180000000  0.4636310000000  0.4889260000000 1.0
C      1  0.5254830000000  0.5312140000000  0.4976980000000 1.0
C      1  0.5405520000000  0.5392430000000  0.4374960000000 1.0
C      1  0.5142480000000  0.4710770000000  0.5146490000000 1.0
C      1  0.5166520000000  0.4440230000000  0.4433280000000 1.0
C      1  0.5285120000000  0.5690180000000  0.5286460000000 1.0
C      1  0.4870470000000  0.4830030000000  0.4556280000000 1.0
C      1  0.5622830000000  0.4698630000000  0.5438950000000 1.0
C      1  0.4883690000000  0.4690540000000  0.5006880000000 1.0
C      1  0.5110530000000  0.4560550000000  0.5415130000000 1.0
C      1  0.4725440000000  0.5313070000000  0.5675810000000 1.0
C      1  0.4537610000000  0.4827740000000  0.5758660000000 1.0
C      1  0.4286310000000  0.5156280000000  0.5176060000000 1.0
C      1  0.5324460000000  0.4917200000000  0.4311130000000 1.0
C      1  0.4910550000000  0.4329120000000  0.5377190000000 1.0
C      1  0.4461730000000  0.4511870000000  0.4703740000000 1.0
C      1  0.4302260000000  0.5619300000000  0.5197250000000 1.0
END
