TITL C-65706-5433-2 -0.0668390272726717 125000 -284.264802861776 0 0 43 (C1) n - 1
REM
REM in /rds/project/t2_vol4/rds-t2-cs072/BORA/CARBON/from-Arr/AIRSS/Generating-Clusters/GAP-ML-2020/Only-C1/SD-CG/HFTN-CG
REM
REM
REM
REM
REM
REM ./C.cell (11c1c37f851c82e70ff6c80c92926a4b)
REM AIRSS Version 0.9.1 bugfix July 2018 build 013d7b7c2542+ Fri, 06 Jul 2018 19:26:36 +0100
REM compiler GCC version 9.3.0
REM options -cpp -mtune=generic -march=x86-64 -g -O0
REM seed -1564964572 1983992799 740356405 -2113355372 1614228329 1042851341 362911231 -722757329 -1886512776 -1285987767 -1682125581 2121842444 819142170 1654442960 100143392 999185982 1092675241 -1514353559 1217463150 398215778 1779594340 1350021003 1936998882 2064506480 688902280 526402464 -1546289244 599749810 -66325404 -1286039187 1525675306 865453250 -1368355625
REM
CELL 1.54180   50.00000   50.00000   50.00000   90.00000   90.00000   90.00000
LATT -1
SFAC C  
C      1  0.4831580000000  0.5036150000000  0.4966670000000 1.0
C      1  0.5040960000000  0.4866410000000  0.4849350000000 1.0
C      1  0.4748700000000  0.5333530000000  0.5426550000000 1.0
C      1  0.4489990000000  0.4998840000000  0.5241440000000 1.0
C      1  0.5384490000000  0.5126250000000  0.4583270000000 1.0
C      1  0.4391360000000  0.4573000000000  0.4689650000000 1.0
C      1  0.5336850000000  0.5283860000000  0.5451300000000 1.0
C      1  0.4822250000000  0.4639360000000  0.5319660000000 1.0
C      1  0.5471520000000  0.5266370000000  0.4806090000000 1.0
C      1  0.5223010000000  0.4982320000000  0.5080240000000 1.0
C      1  0.4634880000000  0.5064410000000  0.5463890000000 1.0
C      1  0.5548410000000  0.5108830000000  0.5055380000000 1.0
C      1  0.5067860000000  0.4995600000000  0.5582900000000 1.0
C      1  0.4695480000000  0.5521920000000  0.4545880000000 1.0
C      1  0.5347620000000  0.4599810000000  0.5303440000000 1.0
C      1  0.4488530000000  0.5230670000000  0.5051130000000 1.0
C      1  0.4711610000000  0.5240900000000  0.4563790000000 1.0
C      1  0.5357530000000  0.5477390000000  0.4990550000000 1.0
C      1  0.4764160000000  0.4790750000000  0.4394350000000 1.0
C      1  0.4566620000000  0.4608260000000  0.4482010000000 1.0
C      1  0.4840280000000  0.4858450000000  0.5508920000000 1.0
C      1  0.5501540000000  0.4814300000000  0.5426640000000 1.0
C      1  0.4616800000000  0.5131800000000  0.4808700000000 1.0
C      1  0.5520270000000  0.4636940000000  0.5053310000000 1.0
C      1  0.5033090000000  0.5271380000000  0.5450880000000 1.0
C      1  0.5474120000000  0.5338970000000  0.5225110000000 1.0
C      1  0.4938770000000  0.4578830000000  0.4780960000000 1.0
C      1  0.4567180000000  0.4722030000000  0.5159460000000 1.0
C      1  0.5082400000000  0.5471890000000  0.5031020000000 1.0
C      1  0.5649120000000  0.4867230000000  0.5168250000000 1.0
C      1  0.4650460000000  0.5432240000000  0.5173300000000 1.0
C      1  0.4442580000000  0.4630070000000  0.4935470000000 1.0
C      1  0.5375540000000  0.4594780000000  0.4828430000000 1.0
C      1  0.5182470000000  0.5015380000000  0.4430670000000 1.0
C      1  0.4882510000000  0.5043200000000  0.4418820000000 1.0
C      1  0.5084420000000  0.4523140000000  0.5229030000000 1.0
C      1  0.4864880000000  0.4556370000000  0.4516820000000 1.0
C      1  0.5022330000000  0.5193640000000  0.5133360000000 1.0
C      1  0.5350160000000  0.5005720000000  0.5543800000000 1.0
C      1  0.4751540000000  0.5672400000000  0.4747120000000 1.0
C      1  0.5135230000000  0.4470530000000  0.4939720000000 1.0
C      1  0.4833920000000  0.5592190000000  0.4997400000000 1.0
C      1  0.5276940000000  0.4833870000000  0.4645280000000 1.0
END
