TITL C-65704-5533-3 -0.264273603310371 125000 -683.910586367515 0 0 100 (C1) n - 1
REM
REM in /rds/project/t2_vol4/rds-t2-cs072/BORA/CARBON/from-Arr/AIRSS/Generating-Clusters/GAP-ML-2020/Only-C1/SD-CG/HFTN-CG
REM
REM
REM
REM
REM
REM ./C.cell (11c1c37f851c82e70ff6c80c92926a4b)
REM AIRSS Version 0.9.1 bugfix July 2018 build 013d7b7c2542+ Fri, 06 Jul 2018 19:26:36 +0100
REM compiler GCC version 9.3.0
REM options -cpp -mtune=generic -march=x86-64 -g -O0
REM seed 741355219 1952003476 325629508 -619388890 -1669796424 -1260135040 2044127242 799285284 -835050465 1422880799 876581291 1083753112 92835849 -309735714 -773376947 -366025102 383390250 1661706592 -159576757 -2008748399 1114575158 1413637077 1169718309 -1775722505 -1686785942 -166079079 626620959 381260892 392799948 1729640115 -946125492 310822233 1207442962
REM
CELL 1.54180   50.00000   50.00000   50.00000   90.00000   90.00000   90.00000
LATT -1
SFAC C  
C      1  0.4499410000000  0.4546110000000  0.4739980000000 1.0
C      1  0.5387270000000  0.5241880000000  0.4422690000000 1.0
C      1  0.4788030000000  0.5593630000000  0.4544650000000 1.0
C      1  0.4515780000000  0.5083930000000  0.5587690000000 1.0
C      1  0.4378580000000  0.4519590000000  0.4992050000000 1.0
C      1  0.5408880000000  0.4499050000000  0.4519300000000 1.0
C      1  0.5487010000000  0.5312600000000  0.4699300000000 1.0
C      1  0.4415440000000  0.5361570000000  0.4588790000000 1.0
C      1  0.4882440000000  0.5668340000000  0.5525550000000 1.0
C      1  0.4692210000000  0.4207190000000  0.5228290000000 1.0
C      1  0.5284240000000  0.5480750000000  0.4277340000000 1.0
C      1  0.4945360000000  0.5389740000000  0.4715020000000 1.0
C      1  0.5792380000000  0.4840850000000  0.5068000000000 1.0
C      1  0.5169610000000  0.4553740000000  0.5102510000000 1.0
C      1  0.5216990000000  0.5622260000000  0.5159660000000 1.0
C      1  0.4602250000000  0.5341500000000  0.5699150000000 1.0
C      1  0.5670630000000  0.4834030000000  0.5357080000000 1.0
C      1  0.5347620000000  0.5686300000000  0.4458040000000 1.0
C      1  0.4273540000000  0.4706160000000  0.5393080000000 1.0
C      1  0.4795000000000  0.5166190000000  0.4885060000000 1.0
C      1  0.5769190000000  0.4782240000000  0.4587540000000 1.0
C      1  0.4957020000000  0.4207880000000  0.5227940000000 1.0
C      1  0.5682530000000  0.5529660000000  0.5162670000000 1.0
C      1  0.4781500000000  0.4796090000000  0.4402950000000 1.0
C      1  0.5426000000000  0.4971840000000  0.4290180000000 1.0
C      1  0.5078250000000  0.5606590000000  0.4875860000000 1.0
C      1  0.4149070000000  0.5240060000000  0.5047860000000 1.0
C      1  0.5374280000000  0.5612080000000  0.4734000000000 1.0
C      1  0.4974180000000  0.5095030000000  0.4081380000000 1.0
C      1  0.5503260000000  0.4887760000000  0.5093370000000 1.0
C      1  0.5483860000000  0.5657490000000  0.5028870000000 1.0
C      1  0.4530000000000  0.5079220000000  0.4782480000000 1.0
C      1  0.4855170000000  0.5309890000000  0.5824030000000 1.0
C      1  0.5773040000000  0.5278100000000  0.5241100000000 1.0
C      1  0.5859800000000  0.5032910000000  0.4594250000000 1.0
C      1  0.5043990000000  0.4934470000000  0.4487120000000 1.0
C      1  0.4392330000000  0.5615470000000  0.5372100000000 1.0
C      1  0.5071630000000  0.5232020000000  0.4490070000000 1.0
C      1  0.4306930000000  0.4962090000000  0.4420990000000 1.0
C      1  0.4662120000000  0.4886900000000  0.5737220000000 1.0
C      1  0.4601200000000  0.5584370000000  0.5556920000000 1.0
C      1  0.4584620000000  0.5743850000000  0.4923460000000 1.0
C      1  0.4986920000000  0.4306740000000  0.4720030000000 1.0
C      1  0.4974960000000  0.5765000000000  0.5271650000000 1.0
C      1  0.5471580000000  0.4182530000000  0.5232180000000 1.0
C      1  0.4256010000000  0.4748350000000  0.5117410000000 1.0
C      1  0.4473260000000  0.5085890000000  0.4218750000000 1.0
C      1  0.5239650000000  0.5380090000000  0.5319880000000 1.0
C      1  0.5349280000000  0.4447340000000  0.5336650000000 1.0
C      1  0.5777420000000  0.5223320000000  0.4762220000000 1.0
C      1  0.5545040000000  0.4736010000000  0.4412120000000 1.0
C      1  0.4163210000000  0.5183100000000  0.4577910000000 1.0
C      1  0.5686050000000  0.5107510000000  0.5465350000000 1.0
C      1  0.4721560000000  0.4779010000000  0.5306530000000 1.0
C      1  0.4960280000000  0.4772000000000  0.5146950000000 1.0
C      1  0.4014820000000  0.5204330000000  0.4800680000000 1.0
C      1  0.4726260000000  0.4969120000000  0.4168700000000 1.0
C      1  0.4698460000000  0.4350880000000  0.4640350000000 1.0
C      1  0.5304860000000  0.5406320000000  0.5604660000000 1.0
C      1  0.5046870000000  0.5498500000000  0.5704270000000 1.0
C      1  0.5171140000000  0.4926120000000  0.4196480000000 1.0
C      1  0.4221210000000  0.5481160000000  0.5184600000000 1.0
C      1  0.5522710000000  0.4628720000000  0.5493150000000 1.0
C      1  0.4885380000000  0.4511560000000  0.4351990000000 1.0
C      1  0.5328970000000  0.5116380000000  0.5147680000000 1.0
C      1  0.4972060000000  0.5223030000000  0.5342180000000 1.0
C      1  0.5146920000000  0.4627100000000  0.5805640000000 1.0
C      1  0.5179590000000  0.4905970000000  0.4760640000000 1.0
C      1  0.5132830000000  0.4426560000000  0.4506730000000 1.0
C      1  0.5489420000000  0.5191270000000  0.5666910000000 1.0
C      1  0.4354900000000  0.5023590000000  0.5055070000000 1.0
C      1  0.4966020000000  0.4471450000000  0.5660900000000 1.0
C      1  0.4520190000000  0.5345290000000  0.4318800000000 1.0
C      1  0.4762420000000  0.5487860000000  0.4285810000000 1.0
C      1  0.5118660000000  0.4282880000000  0.5470260000000 1.0
C      1  0.4856330000000  0.5768920000000  0.5010310000000 1.0
C      1  0.4928710000000  0.4903210000000  0.4891190000000 1.0
C      1  0.5758100000000  0.4643550000000  0.4832700000000 1.0
C      1  0.4516050000000  0.4814680000000  0.4588000000000 1.0
C      1  0.5108780000000  0.4278680000000  0.4976800000000 1.0
C      1  0.5861680000000  0.5117380000000  0.5018410000000 1.0
C      1  0.5390000000000  0.4973230000000  0.5820320000000 1.0
C      1  0.4561320000000  0.5041600000000  0.5287190000000 1.0
C      1  0.5351410000000  0.4699150000000  0.4921830000000 1.0
C      1  0.4692030000000  0.4307770000000  0.4362490000000 1.0
C      1  0.4475890000000  0.4360870000000  0.5219840000000 1.0
C      1  0.4752800000000  0.5234530000000  0.5169090000000 1.0
C      1  0.5515520000000  0.4469870000000  0.4799570000000 1.0
C      1  0.5423550000000  0.4697730000000  0.5738960000000 1.0
C      1  0.5294910000000  0.5154290000000  0.4867780000000 1.0
C      1  0.4709600000000  0.4630340000000  0.5582630000000 1.0
C      1  0.4546010000000  0.5624760000000  0.4673660000000 1.0
C      1  0.5097060000000  0.4976390000000  0.5288290000000 1.0
C      1  0.5117500000000  0.4898830000000  0.5898700000000 1.0
C      1  0.5341000000000  0.4074230000000  0.5452610000000 1.0
C      1  0.5005420000000  0.5354760000000  0.4207260000000 1.0
C      1  0.5410550000000  0.4226920000000  0.4957240000000 1.0
C      1  0.4375600000000  0.5705830000000  0.5112830000000 1.0
C      1  0.4454130000000  0.4520460000000  0.5470060000000 1.0
C      1  0.4874490000000  0.5025650000000  0.5873510000000 1.0
END
