TITL C-65687-5545-8 -313.832289327829 125000 -872.376570739308 0 0 126 (C1) n - 1
REM
REM in /rds/project/t2_vol4/rds-t2-cs072/BORA/CARBON/from-Arr/AIRSS/Generating-Clusters/GAP-ML-2020/Only-C1/SD-CG/HFTN-CG
REM
REM
REM
REM
REM
REM ./C.cell (11c1c37f851c82e70ff6c80c92926a4b)
REM AIRSS Version 0.9.1 bugfix July 2018 build 013d7b7c2542+ Fri, 06 Jul 2018 19:26:36 +0100
REM compiler GCC version 9.3.0
REM options -cpp -mtune=generic -march=x86-64 -g -O0
REM seed 1991968305 -318341002 -205294753 1331237629 1469902173 -777696546 -374298551 277094798 353298059 -1442868568 1696660470 2123289552 850316533 445417819 1793306443 218145438 200584776 -65032644 401710749 2065726615 -318417337 -168880259 -1198389094 -984829152 1330593774 -2010725365 -1704344704 789082835 -949389381 2058969075 589363229 -78640384 -1851319141
REM
CELL 1.54180   50.00000   50.00000   50.00000   90.00000   90.00000   90.00000
LATT -1
SFAC C  
C      1  0.5215540000000  0.4488390000000  0.4221130000000 1.0
C      1  0.4503830000000  0.4369460000000  0.4714470000000 1.0
C      1  0.4769890000000  0.5271140000000  0.4642120000000 1.0
C      1  0.5804950000000  0.5383270000000  0.5309810000000 1.0
C      1  0.5622870000000  0.5770690000000  0.4958780000000 1.0
C      1  0.5896580000000  0.5090760000000  0.4823230000000 1.0
C      1  0.5164060000000  0.6001110000000  0.4993170000000 1.0
C      1  0.4557230000000  0.4737570000000  0.4201720000000 1.0
C      1  0.4673330000000  0.5516510000000  0.4980670000000 1.0
C      1  0.4520460000000  0.5889880000000  0.5185290000000 1.0
C      1  0.5289590000000  0.4674600000000  0.5782620000000 1.0
C      1  0.5120160000000  0.5752560000000  0.4440170000000 1.0
C      1  0.5196820000000  0.5075830000000  0.5481320000000 1.0
C      1  0.4049330000000  0.4871190000000  0.4725630000000 1.0
C      1  0.5226950000000  0.5483210000000  0.5764760000000 1.0
C      1  0.4613680000000  0.4543390000000  0.5194220000000 1.0
C      1  0.5604690000000  0.4123750000000  0.4970530000000 1.0
C      1  0.5341540000000  0.5431000000000  0.5096830000000 1.0
C      1  0.4743050000000  0.4506140000000  0.4204690000000 1.0
C      1  0.4420880000000  0.5698750000000  0.4997340000000 1.0
C      1  0.5409370000000  0.4864460000000  0.5574740000000 1.0
C      1  0.5835740000000  0.5371140000000  0.4837040000000 1.0
C      1  0.4179890000000  0.4923720000000  0.4476850000000 1.0
C      1  0.4462910000000  0.4825300000000  0.5572900000000 1.0
C      1  0.5148210000000  0.4193190000000  0.5031300000000 1.0
C      1  0.4984100000000  0.4076030000000  0.5413420000000 1.0
C      1  0.4986690000000  0.4597750000000  0.4102880000000 1.0
C      1  0.5651310000000  0.5050940000000  0.5598260000000 1.0
C      1  0.4520730000000  0.5317220000000  0.4808420000000 1.0
C      1  0.5675800000000  0.4258660000000  0.5227450000000 1.0
C      1  0.4766950000000  0.5425740000000  0.5242500000000 1.0
C      1  0.4651330000000  0.4260640000000  0.5274010000000 1.0
C      1  0.5298720000000  0.4158770000000  0.4585610000000 1.0
C      1  0.5039120000000  0.5787020000000  0.5381840000000 1.0
C      1  0.4864660000000  0.5787940000000  0.4593320000000 1.0
C      1  0.5089560000000  0.4812870000000  0.5932380000000 1.0
C      1  0.4212820000000  0.5523440000000  0.5105200000000 1.0
C      1  0.4745260000000  0.4175220000000  0.5534900000000 1.0
C      1  0.5430540000000  0.4719750000000  0.5303970000000 1.0
C      1  0.5398550000000  0.5876850000000  0.5102300000000 1.0
C      1  0.5133450000000  0.4766290000000  0.4300860000000 1.0
C      1  0.4567830000000  0.5161510000000  0.5878040000000 1.0
C      1  0.4880190000000  0.5416160000000  0.4158860000000 1.0
C      1  0.5179770000000  0.5018580000000  0.4168130000000 1.0
C      1  0.4794550000000  0.4985110000000  0.4650660000000 1.0
C      1  0.4869370000000  0.4116430000000  0.5124710000000 1.0
C      1  0.5506690000000  0.4961890000000  0.5124990000000 1.0
C      1  0.4319260000000  0.4705990000000  0.4353460000000 1.0
C      1  0.5532270000000  0.4278780000000  0.4744460000000 1.0
C      1  0.4823040000000  0.5618530000000  0.5481520000000 1.0
C      1  0.4468110000000  0.5240960000000  0.4248580000000 1.0
C      1  0.4763610000000  0.4789890000000  0.5581310000000 1.0
C      1  0.5423910000000  0.5544730000000  0.5566990000000 1.0
C      1  0.4526840000000  0.5714460000000  0.5415840000000 1.0
C      1  0.4308580000000  0.5236470000000  0.5464120000000 1.0
C      1  0.5975240000000  0.5157500000000  0.5289330000000 1.0
C      1  0.4980900000000  0.6006130000000  0.5222180000000 1.0
C      1  0.4667410000000  0.4574450000000  0.4887210000000 1.0
C      1  0.4308040000000  0.5505920000000  0.5374340000000 1.0
C      1  0.5122210000000  0.4966050000000  0.5038420000000 1.0
C      1  0.5285070000000  0.5148770000000  0.5198620000000 1.0
C      1  0.4909400000000  0.5987040000000  0.4824580000000 1.0
C      1  0.5461820000000  0.4126570000000  0.5375360000000 1.0
C      1  0.5655800000000  0.4547620000000  0.5173190000000 1.0
C      1  0.5234810000000  0.4965380000000  0.4758200000000 1.0
C      1  0.5275460000000  0.5250640000000  0.4665620000000 1.0
C      1  0.5276410000000  0.5310920000000  0.4378080000000 1.0
C      1  0.4841140000000  0.4945390000000  0.5107950000000 1.0
C      1  0.4638780000000  0.5019530000000  0.4147740000000 1.0
C      1  0.5127730000000  0.4038580000000  0.4769650000000 1.0
C      1  0.4904450000000  0.5136240000000  0.4106490000000 1.0
C      1  0.4743080000000  0.6019910000000  0.5066000000000 1.0
C      1  0.5984690000000  0.4972530000000  0.5063240000000 1.0
C      1  0.5187390000000  0.4492790000000  0.4966590000000 1.0
C      1  0.4857590000000  0.4691380000000  0.5298860000000 1.0
C      1  0.4627580000000  0.5693700000000  0.4446960000000 1.0
C      1  0.5234560000000  0.4192680000000  0.5529660000000 1.0
C      1  0.5609420000000  0.5742720000000  0.4670910000000 1.0
C      1  0.4919570000000  0.4392900000000  0.5830760000000 1.0
C      1  0.4837820000000  0.4286930000000  0.4391220000000 1.0
C      1  0.5335720000000  0.5723050000000  0.4619600000000 1.0
C      1  0.5105010000000  0.5523700000000  0.4281030000000 1.0
C      1  0.5193380000000  0.4396560000000  0.5733920000000 1.0
C      1  0.4309490000000  0.4462210000000  0.4498590000000 1.0
C      1  0.4431340000000  0.5072760000000  0.4963600000000 1.0
C      1  0.5685650000000  0.5490430000000  0.5060630000000 1.0
C      1  0.5505590000000  0.4839430000000  0.4811920000000 1.0
C      1  0.4135570000000  0.4778330000000  0.5122780000000 1.0
C      1  0.4203400000000  0.4409850000000  0.4743600000000 1.0
C      1  0.4383950000000  0.5082650000000  0.5697440000000 1.0
C      1  0.4096800000000  0.5340530000000  0.4920140000000 1.0
C      1  0.4750130000000  0.5146320000000  0.5300230000000 1.0
C      1  0.5493360000000  0.4545500000000  0.4881010000000 1.0
C      1  0.5680790000000  0.5101840000000  0.4382730000000 1.0
C      1  0.5284820000000  0.5261550000000  0.5925740000000 1.0
C      1  0.5818450000000  0.5347750000000  0.4382440000000 1.0
C      1  0.5206720000000  0.5480670000000  0.4824940000000 1.0
C      1  0.4378610000000  0.4760450000000  0.5300390000000 1.0
C      1  0.4852090000000  0.4037880000000  0.4819570000000 1.0
C      1  0.4649610000000  0.4880340000000  0.4875640000000 1.0
C      1  0.4699790000000  0.4177170000000  0.4623160000000 1.0
C      1  0.4897880000000  0.5068020000000  0.5548330000000 1.0
C      1  0.4116750000000  0.5041980000000  0.4950110000000 1.0
C      1  0.5633530000000  0.5345690000000  0.5536960000000 1.0
C      1  0.4458900000000  0.5064190000000  0.5267450000000 1.0
C      1  0.4968150000000  0.4565970000000  0.4779110000000 1.0
C      1  0.4256490000000  0.5368580000000  0.4669570000000 1.0
C      1  0.5723030000000  0.4958710000000  0.4637920000000 1.0
C      1  0.4726860000000  0.4198120000000  0.5804060000000 1.0
C      1  0.4619280000000  0.5491430000000  0.4261650000000 1.0
C      1  0.5029490000000  0.4808430000000  0.4602970000000 1.0
C      1  0.5790130000000  0.5515790000000  0.4597670000000 1.0
C      1  0.5437630000000  0.5137140000000  0.4229000000000 1.0
C      1  0.5378750000000  0.4023690000000  0.5112160000000 1.0
C      1  0.4260660000000  0.5194300000000  0.4438730000000 1.0
C      1  0.5077650000000  0.5092860000000  0.5963930000000 1.0
C      1  0.5868350000000  0.4945860000000  0.5452260000000 1.0
C      1  0.4943810000000  0.5489840000000  0.5719560000000 1.0
C      1  0.4841470000000  0.5224880000000  0.5816660000000 1.0
C      1  0.5138370000000  0.4270520000000  0.4378970000000 1.0
C      1  0.5302250000000  0.5673850000000  0.5317920000000 1.0
C      1  0.4904390000000  0.5513550000000  0.4781180000000 1.0
C      1  0.5871900000000  0.4757650000000  0.5224860000000 1.0
C      1  0.5148930000000  0.4676200000000  0.5186560000000 1.0
C      1  0.4860830000000  0.4674120000000  0.5839160000000 1.0
C      1  0.4092730000000  0.4625710000000  0.4882690000000 1.0
END
