TITL C-65692-5434-4 -0.0485535203385245 125000 -358.593542187164 0 0 52 (C1) n - 1
REM
REM in /rds/project/t2_vol4/rds-t2-cs072/BORA/CARBON/from-Arr/AIRSS/Generating-Clusters/GAP-ML-2020/Only-C1/SD-CG/HFTN-CG
REM
REM
REM
REM
REM
REM ./C.cell (11c1c37f851c82e70ff6c80c92926a4b)
REM AIRSS Version 0.9.1 bugfix July 2018 build 013d7b7c2542+ Fri, 06 Jul 2018 19:26:36 +0100
REM compiler GCC version 9.3.0
REM options -cpp -mtune=generic -march=x86-64 -g -O0
REM seed -1162793074 -1554643216 733353252 1357281465 -852456243 1631802021 -1421687265 1265385187 -1471826374 624353473 1397327858 1868230093 -863752238 1725483732 -872306145 -477816680 -138431382 468059241 -424591719 -946962576 -754668171 -625670671 -184535954 -1313881712 399447696 1390424986 -866078062 -1329323909 -1288914179 32604330 1098729023 -654819403 -936442850
REM
CELL 1.54180   50.00000   50.00000   50.00000   90.00000   90.00000   90.00000
LATT -1
SFAC C  
C      1  0.4868910000000  0.4664070000000  0.4733040000000 1.0
C      1  0.4548570000000  0.4833020000000  0.5347440000000 1.0
C      1  0.4492170000000  0.5315370000000  0.4796320000000 1.0
C      1  0.4955000000000  0.4966130000000  0.4305440000000 1.0
C      1  0.4930300000000  0.4907700000000  0.4843580000000 1.0
C      1  0.4520860000000  0.4672190000000  0.5097740000000 1.0
C      1  0.4626890000000  0.5539780000000  0.4862480000000 1.0
C      1  0.5079360000000  0.5332730000000  0.4424170000000 1.0
C      1  0.5385350000000  0.4578620000000  0.4671120000000 1.0
C      1  0.5446690000000  0.5073180000000  0.4593070000000 1.0
C      1  0.5449480000000  0.4859340000000  0.5487270000000 1.0
C      1  0.5565500000000  0.4806750000000  0.5032370000000 1.0
C      1  0.5524720000000  0.4830970000000  0.4740410000000 1.0
C      1  0.5261600000000  0.4450810000000  0.4915080000000 1.0
C      1  0.4790300000000  0.5656230000000  0.5045230000000 1.0
C      1  0.4677140000000  0.4197330000000  0.5222560000000 1.0
C      1  0.4671700000000  0.4680160000000  0.4519970000000 1.0
C      1  0.5269940000000  0.4530930000000  0.4425570000000 1.0
C      1  0.5156860000000  0.4572690000000  0.5582320000000 1.0
C      1  0.5199350000000  0.4856300000000  0.5651180000000 1.0
C      1  0.5302430000000  0.5613230000000  0.5108960000000 1.0
C      1  0.4740300000000  0.5587820000000  0.5324140000000 1.0
C      1  0.5385440000000  0.4578950000000  0.5406230000000 1.0
C      1  0.4716930000000  0.4432420000000  0.5053950000000 1.0
C      1  0.4742640000000  0.4774580000000  0.5550600000000 1.0
C      1  0.5025950000000  0.5033090000000  0.5029990000000 1.0
C      1  0.5092200000000  0.5458780000000  0.5544290000000 1.0
C      1  0.4814870000000  0.5203820000000  0.4392930000000 1.0
C      1  0.4778820000000  0.4309500000000  0.5426240000000 1.0
C      1  0.4559260000000  0.5160720000000  0.4549360000000 1.0
C      1  0.5226320000000  0.5076770000000  0.4392460000000 1.0
C      1  0.5521720000000  0.5281290000000  0.5235650000000 1.0
C      1  0.5570010000000  0.5000390000000  0.5262210000000 1.0
C      1  0.4930360000000  0.4977080000000  0.5643540000000 1.0
C      1  0.5322680000000  0.5463930000000  0.5362750000000 1.0
C      1  0.4401370000000  0.5122330000000  0.5008170000000 1.0
C      1  0.4489110000000  0.4883750000000  0.4606490000000 1.0
C      1  0.4405320000000  0.4856510000000  0.4894280000000 1.0
C      1  0.5235420000000  0.5506660000000  0.4589100000000 1.0
C      1  0.4859120000000  0.4704800000000  0.4300910000000 1.0
C      1  0.5495720000000  0.5430610000000  0.4981090000000 1.0
C      1  0.4878700000000  0.5244930000000  0.5592300000000 1.0
C      1  0.5429620000000  0.4559600000000  0.5125480000000 1.0
C      1  0.5448200000000  0.5345590000000  0.4708530000000 1.0
C      1  0.4961530000000  0.4448390000000  0.4891690000000 1.0
C      1  0.5074240000000  0.5718410000000  0.4968670000000 1.0
C      1  0.4876820000000  0.4518260000000  0.5567270000000 1.0
C      1  0.5075670000000  0.4518420000000  0.4258950000000 1.0
C      1  0.5145730000000  0.5739260000000  0.4702270000000 1.0
C      1  0.4493650000000  0.5114420000000  0.5290410000000 1.0
C      1  0.4930190000000  0.5691810000000  0.5505740000000 1.0
C      1  0.4648940000000  0.5319550000000  0.5428980000000 1.0
END
