TITL C-65692-5434-5 -0.142408541774201 125000 -428.310534978406 0 0 63 (C1) n - 1
REM
REM in /rds/project/t2_vol4/rds-t2-cs072/BORA/CARBON/from-Arr/AIRSS/Generating-Clusters/GAP-ML-2020/Only-C1/SD-CG/HFTN-CG
REM
REM
REM
REM
REM
REM ./C.cell (11c1c37f851c82e70ff6c80c92926a4b)
REM AIRSS Version 0.9.1 bugfix July 2018 build 013d7b7c2542+ Fri, 06 Jul 2018 19:26:36 +0100
REM compiler GCC version 9.3.0
REM options -cpp -mtune=generic -march=x86-64 -g -O0
REM seed -1751223209 1592387580 1774645060 1258525399 2088495377 -545416723 1027137983 1679458292 -1223891062 1957521668 835884836 757943072 -1824358334 9191863 2134455583 654974331 -1883561312 -440938716 1845530125 357972436 -602713863 1597478896 1008102205 1526063576 -823950029 1727856457 1703013808 1803719058 -1982891099 545910878 348060962 353455304 787464821
REM
CELL 1.54180   50.00000   50.00000   50.00000   90.00000   90.00000   90.00000
LATT -1
SFAC C  
C      1  0.4757990000000  0.5030590000000  0.5406870000000 1.0
C      1  0.4589120000000  0.5507570000000  0.5325870000000 1.0
C      1  0.4219510000000  0.5184070000000  0.5107200000000 1.0
C      1  0.4701970000000  0.4888720000000  0.4305210000000 1.0
C      1  0.4559570000000  0.4586820000000  0.4878600000000 1.0
C      1  0.5126860000000  0.5045990000000  0.4174360000000 1.0
C      1  0.5482020000000  0.4620410000000  0.5533770000000 1.0
C      1  0.5095090000000  0.4744700000000  0.4955210000000 1.0
C      1  0.4962650000000  0.5060750000000  0.4661620000000 1.0
C      1  0.5265880000000  0.4813240000000  0.5170490000000 1.0
C      1  0.5193060000000  0.4974120000000  0.5675510000000 1.0
C      1  0.5399090000000  0.5300540000000  0.4751940000000 1.0
C      1  0.5288900000000  0.5228950000000  0.4312070000000 1.0
C      1  0.4493430000000  0.4950280000000  0.4506040000000 1.0
C      1  0.4978320000000  0.5718090000000  0.5127820000000 1.0
C      1  0.5171250000000  0.4789240000000  0.4279330000000 1.0
C      1  0.5495550000000  0.5404270000000  0.5451410000000 1.0
C      1  0.5528690000000  0.4696860000000  0.5064340000000 1.0
C      1  0.5674680000000  0.4631620000000  0.5319480000000 1.0
C      1  0.5122490000000  0.5448060000000  0.4401600000000 1.0
C      1  0.4848170000000  0.5118200000000  0.4194440000000 1.0
C      1  0.4755420000000  0.4406500000000  0.4749880000000 1.0
C      1  0.5394650000000  0.4468450000000  0.4926050000000 1.0
C      1  0.5129630000000  0.5645250000000  0.5367720000000 1.0
C      1  0.4853350000000  0.4195940000000  0.4897360000000 1.0
C      1  0.4665140000000  0.5312360000000  0.4995530000000 1.0
C      1  0.4757570000000  0.4423390000000  0.5584650000000 1.0
C      1  0.4766830000000  0.4415860000000  0.5298070000000 1.0
C      1  0.4821060000000  0.4632510000000  0.5717170000000 1.0
C      1  0.5260590000000  0.4565040000000  0.5352380000000 1.0
C      1  0.4753610000000  0.5330870000000  0.5487700000000 1.0
C      1  0.5240380000000  0.4361640000000  0.5147220000000 1.0
C      1  0.4606980000000  0.4608040000000  0.5163980000000 1.0
C      1  0.4912560000000  0.4673800000000  0.4344940000000 1.0
C      1  0.5237830000000  0.5217200000000  0.5502690000000 1.0
C      1  0.4282300000000  0.4927350000000  0.5214230000000 1.0
C      1  0.4422500000000  0.5371230000000  0.5132780000000 1.0
C      1  0.5426810000000  0.5099510000000  0.4530420000000 1.0
C      1  0.5639820000000  0.5288340000000  0.5211740000000 1.0
C      1  0.4537980000000  0.4849160000000  0.5300290000000 1.0
C      1  0.5208550000000  0.5115680000000  0.5207970000000 1.0
C      1  0.4250460000000  0.4942630000000  0.4938210000000 1.0
C      1  0.4886140000000  0.5125580000000  0.5131940000000 1.0
C      1  0.5789480000000  0.4827030000000  0.5159910000000 1.0
C      1  0.4415580000000  0.4801740000000  0.4751180000000 1.0
C      1  0.5392120000000  0.4784970000000  0.5732620000000 1.0
C      1  0.4920050000000  0.4886080000000  0.5617300000000 1.0
C      1  0.5201360000000  0.5512120000000  0.4670480000000 1.0
C      1  0.4996430000000  0.5618080000000  0.4846080000000 1.0
C      1  0.4915760000000  0.4958520000000  0.4901570000000 1.0
C      1  0.4744720000000  0.5499300000000  0.4783190000000 1.0
C      1  0.4958250000000  0.4515730000000  0.4573540000000 1.0
C      1  0.5020820000000  0.5416530000000  0.5517400000000 1.0
C      1  0.4718850000000  0.5734460000000  0.5234070000000 1.0
C      1  0.5413340000000  0.5255530000000  0.5034860000000 1.0
C      1  0.4468820000000  0.5219200000000  0.4552190000000 1.0
C      1  0.4652790000000  0.5423140000000  0.4521110000000 1.0
C      1  0.5405730000000  0.5658590000000  0.5440190000000 1.0
C      1  0.5834030000000  0.5099050000000  0.5180280000000 1.0
C      1  0.4846220000000  0.5386160000000  0.4317420000000 1.0
C      1  0.4968660000000  0.4277410000000  0.5130960000000 1.0
C      1  0.5226810000000  0.4604630000000  0.4717560000000 1.0
C      1  0.5345760000000  0.4802360000000  0.4512000000000 1.0
END
