TITL C-65702-5440-4 40.4842485279246 125000 -299.287022238582 0 0 45 (C1) n - 1
REM
REM in /rds/project/t2_vol4/rds-t2-cs072/BORA/CARBON/from-Arr/AIRSS/Generating-Clusters/GAP-ML-2020/Only-C1/SD-CG/HFTN-CG
REM
REM
REM
REM
REM
REM ./C.cell (11c1c37f851c82e70ff6c80c92926a4b)
REM AIRSS Version 0.9.1 bugfix July 2018 build 013d7b7c2542+ Fri, 06 Jul 2018 19:26:36 +0100
REM compiler GCC version 9.3.0
REM options -cpp -mtune=generic -march=x86-64 -g -O0
REM seed 1765195098 1501029685 -455183986 -1736584615 63193547 7581226 1213942674 -117091537 -399222073 -1850372251 -768940369 -1113771231 1128802880 -1586256191 -573024604 753126499 -1705693317 -331172274 302369852 1373281824 -1777837442 -1058144711 1391967124 -1715871214 2099131850 309890757 874606795 -1068094045 1181136327 -1925597214 1995892627 -2003533379 1508920322
REM
CELL 1.54180   50.00000   50.00000   50.00000   90.00000   90.00000   90.00000
LATT -1
SFAC C  
C      1  0.5446620000000  0.4715490000000  0.5176890000000 1.0
C      1  0.4717540000000  0.4874240000000  0.5576550000000 1.0
C      1  0.5016290000000  0.5593930000000  0.4903390000000 1.0
C      1  0.4901330000000  0.5122390000000  0.4919410000000 1.0
C      1  0.4720370000000  0.5230410000000  0.4690060000000 1.0
C      1  0.4890030000000  0.4432950000000  0.5182410000000 1.0
C      1  0.4333960000000  0.5336370000000  0.4933330000000 1.0
C      1  0.4886060000000  0.5192220000000  0.4463580000000 1.0
C      1  0.5199100000000  0.5501740000000  0.4696990000000 1.0
C      1  0.4798800000000  0.5403920000000  0.4939530000000 1.0
C      1  0.5005160000000  0.5520150000000  0.5516950000000 1.0
C      1  0.4515580000000  0.4874730000000  0.5147730000000 1.0
C      1  0.5307450000000  0.5057310000000  0.4590930000000 1.0
C      1  0.5388110000000  0.5201900000000  0.5307560000000 1.0
C      1  0.5402760000000  0.5482190000000  0.4904860000000 1.0
C      1  0.4455470000000  0.5141170000000  0.4775080000000 1.0
C      1  0.5205220000000  0.4790620000000  0.5004590000000 1.0
C      1  0.5186950000000  0.5064220000000  0.4905000000000 1.0
C      1  0.4590360000000  0.4676580000000  0.4703050000000 1.0
C      1  0.5225090000000  0.5444880000000  0.5346630000000 1.0
C      1  0.5033890000000  0.4410740000000  0.4792560000000 1.0
C      1  0.5649930000000  0.5025530000000  0.4900170000000 1.0
C      1  0.4780560000000  0.4922570000000  0.5074740000000 1.0
C      1  0.5686420000000  0.4801220000000  0.5042230000000 1.0
C      1  0.4572170000000  0.5025870000000  0.5386180000000 1.0
C      1  0.5228870000000  0.5598550000000  0.5103330000000 1.0
C      1  0.5354580000000  0.4426940000000  0.5191220000000 1.0
C      1  0.4962570000000  0.4776860000000  0.5497150000000 1.0
C      1  0.4455990000000  0.4873980000000  0.4873590000000 1.0
C      1  0.5445120000000  0.5217770000000  0.5019730000000 1.0
C      1  0.4550990000000  0.5394280000000  0.5092650000000 1.0
C      1  0.4664640000000  0.4330070000000  0.5053520000000 1.0
C      1  0.4573100000000  0.5319020000000  0.5374590000000 1.0
C      1  0.4907590000000  0.4900080000000  0.4415730000000 1.0
C      1  0.4690620000000  0.4751870000000  0.4465820000000 1.0
C      1  0.4962590000000  0.4734080000000  0.5182900000000 1.0
C      1  0.5150310000000  0.5296170000000  0.4517720000000 1.0
C      1  0.5385990000000  0.4936420000000  0.5414120000000 1.0
C      1  0.5154550000000  0.4814580000000  0.4523470000000 1.0
C      1  0.5583990000000  0.5051410000000  0.4632220000000 1.0
C      1  0.4739230000000  0.4454950000000  0.4818370000000 1.0
C      1  0.4754340000000  0.5479150000000  0.5535210000000 1.0
C      1  0.5214900000000  0.4825650000000  0.5593640000000 1.0
C      1  0.5169140000000  0.4644070000000  0.4748640000000 1.0
C      1  0.5135710000000  0.4330720000000  0.5065960000000 1.0
END
