TITL C-65706-5433-8 0.00012671155209647 125000 -529.816738850775 0 0 77 (C1) n - 1
REM
REM in /rds/project/t2_vol4/rds-t2-cs072/BORA/CARBON/from-Arr/AIRSS/Generating-Clusters/GAP-ML-2020/Only-C1/SD-CG/HFTN-CG
REM
REM
REM
REM
REM
REM ./C.cell (11c1c37f851c82e70ff6c80c92926a4b)
REM AIRSS Version 0.9.1 bugfix July 2018 build 013d7b7c2542+ Fri, 06 Jul 2018 19:26:36 +0100
REM compiler GCC version 9.3.0
REM options -cpp -mtune=generic -march=x86-64 -g -O0
REM seed -2143270287 -713581878 -1834603520 1310069534 675585968 -800175709 1658216801 284247877 433089493 512710295 1351429150 2009725967 1208463494 742364681 582469696 1189861252 750268450 -1455612096 1938437141 1143410513 1408163510 68258267 1837539879 2094833460 -34947297 427663645 528694061 -1507746989 1133322788 -982529119 -1850385784 -921853702 -2135224900
REM
CELL 1.54180   50.00000   50.00000   50.00000   90.00000   90.00000   90.00000
LATT -1
SFAC C  
C      1  0.5381820000000  0.4497650000000  0.4992210000000 1.0
C      1  0.4583050000000  0.4511140000000  0.4826290000000 1.0
C      1  0.5491890000000  0.4640830000000  0.5213600000000 1.0
C      1  0.4235240000000  0.4807720000000  0.5110670000000 1.0
C      1  0.4520820000000  0.4820390000000  0.4435480000000 1.0
C      1  0.5364220000000  0.4893230000000  0.5627090000000 1.0
C      1  0.5170980000000  0.4937130000000  0.4796120000000 1.0
C      1  0.5237830000000  0.4876420000000  0.4326310000000 1.0
C      1  0.4894820000000  0.4959430000000  0.4690330000000 1.0
C      1  0.4566720000000  0.5394040000000  0.5243710000000 1.0
C      1  0.5159760000000  0.4170910000000  0.5280370000000 1.0
C      1  0.4658090000000  0.4839410000000  0.5676050000000 1.0
C      1  0.5129060000000  0.4966550000000  0.5084950000000 1.0
C      1  0.5094460000000  0.4981160000000  0.5707850000000 1.0
C      1  0.5579820000000  0.5219660000000  0.4830070000000 1.0
C      1  0.5485570000000  0.5478350000000  0.5494150000000 1.0
C      1  0.4457470000000  0.5258630000000  0.4634580000000 1.0
C      1  0.4719460000000  0.4788910000000  0.5262690000000 1.0
C      1  0.4934670000000  0.4748030000000  0.5695960000000 1.0
C      1  0.5310390000000  0.5187980000000  0.4692170000000 1.0
C      1  0.5663920000000  0.4867880000000  0.5134820000000 1.0
C      1  0.5350160000000  0.4652590000000  0.5478110000000 1.0
C      1  0.5545790000000  0.5323250000000  0.5718840000000 1.0
C      1  0.4472820000000  0.5556180000000  0.5007480000000 1.0
C      1  0.4978740000000  0.4758430000000  0.4285430000000 1.0
C      1  0.4613120000000  0.4952770000000  0.5032110000000 1.0
C      1  0.4703740000000  0.4298220000000  0.5352650000000 1.0
C      1  0.4353740000000  0.5474430000000  0.4770970000000 1.0
C      1  0.4891190000000  0.4538400000000  0.4441610000000 1.0
C      1  0.5689660000000  0.4962580000000  0.4866570000000 1.0
C      1  0.4537770000000  0.4537640000000  0.5321810000000 1.0
C      1  0.4997070000000  0.5323580000000  0.4355610000000 1.0
C      1  0.5150780000000  0.5395620000000  0.4823490000000 1.0
C      1  0.5491790000000  0.5555140000000  0.4468130000000 1.0
C      1  0.4771630000000  0.4758210000000  0.4873420000000 1.0
C      1  0.5030970000000  0.5233240000000  0.5077180000000 1.0
C      1  0.5289550000000  0.4629700000000  0.4727760000000 1.0
C      1  0.5683640000000  0.5079410000000  0.5325850000000 1.0
C      1  0.5437130000000  0.4745420000000  0.4498730000000 1.0
C      1  0.5409630000000  0.5698460000000  0.4658180000000 1.0
C      1  0.4738330000000  0.5218930000000  0.5029610000000 1.0
C      1  0.4367590000000  0.4986360000000  0.4614360000000 1.0
C      1  0.5208300000000  0.4279810000000  0.5039470000000 1.0
C      1  0.4736830000000  0.4929650000000  0.4261680000000 1.0
C      1  0.4800340000000  0.5188320000000  0.4229090000000 1.0
C      1  0.5077130000000  0.4446660000000  0.4633140000000 1.0
C      1  0.4751680000000  0.5227700000000  0.4725160000000 1.0
C      1  0.5004460000000  0.4274400000000  0.4836400000000 1.0
C      1  0.4449980000000  0.5189090000000  0.5436000000000 1.0
C      1  0.4983540000000  0.4310520000000  0.5439790000000 1.0
C      1  0.4617080000000  0.4574130000000  0.4537070000000 1.0
C      1  0.4374780000000  0.4553830000000  0.5071630000000 1.0
C      1  0.4885880000000  0.5729380000000  0.5167070000000 1.0
C      1  0.4956690000000  0.4726280000000  0.5116980000000 1.0
C      1  0.4676420000000  0.4133010000000  0.5132980000000 1.0
C      1  0.4706620000000  0.5722260000000  0.4949090000000 1.0
C      1  0.5581830000000  0.5063450000000  0.5597080000000 1.0
C      1  0.4341760000000  0.4958580000000  0.4898040000000 1.0
C      1  0.5558890000000  0.5422300000000  0.5020190000000 1.0
C      1  0.4436190000000  0.4727650000000  0.5527890000000 1.0
C      1  0.5702270000000  0.5106550000000  0.4405800000000 1.0
C      1  0.4730720000000  0.4267440000000  0.4904770000000 1.0
C      1  0.4653830000000  0.5121390000000  0.5634440000000 1.0
C      1  0.5523610000000  0.5301190000000  0.4324010000000 1.0
C      1  0.5636730000000  0.5357220000000  0.5269490000000 1.0
C      1  0.5252640000000  0.5174030000000  0.4386100000000 1.0
C      1  0.4811370000000  0.5692000000000  0.4704590000000 1.0
C      1  0.5228760000000  0.5589500000000  0.5430380000000 1.0
C      1  0.4926490000000  0.5449280000000  0.4625440000000 1.0
C      1  0.4926460000000  0.5222870000000  0.5664230000000 1.0
C      1  0.5665810000000  0.4892840000000  0.4574870000000 1.0
C      1  0.5174330000000  0.5710150000000  0.5173130000000 1.0
C      1  0.4298060000000  0.4932650000000  0.5382650000000 1.0
C      1  0.5092010000000  0.4541630000000  0.5563850000000 1.0
C      1  0.4979610000000  0.5479930000000  0.5544000000000 1.0
C      1  0.4770970000000  0.5574980000000  0.5370980000000 1.0
C      1  0.5333040000000  0.5605320000000  0.4939150000000 1.0
END
