TITL C-65690-5493-8 -69.4126851964822 125000 -660.964973463011 0 0 96 (C1) n - 1
REM
REM in /rds/project/t2_vol4/rds-t2-cs072/BORA/CARBON/from-Arr/AIRSS/Generating-Clusters/GAP-ML-2020/Only-C1/SD-CG/HFTN-CG
REM
REM
REM
REM
REM
REM ./C.cell (11c1c37f851c82e70ff6c80c92926a4b)
REM AIRSS Version 0.9.1 bugfix July 2018 build 013d7b7c2542+ Fri, 06 Jul 2018 19:26:36 +0100
REM compiler GCC version 9.3.0
REM options -cpp -mtune=generic -march=x86-64 -g -O0
REM seed -1542449708 211030876 -835195200 -110929281 1723829856 -76554596 1428834579 1193352567 944054607 -84570145 398727764 104300787 -553638664 -2096495327 112712522 -888036660 1396126919 -288848865 -155325990 -724524561 1125844440 502283354 1323607291 367849014 -1446389783 1514837936 -77787626 -226933778 1470794355 -455750423 876373445 -1610911736 1223997469
REM
CELL 1.54180   50.00000   50.00000   50.00000   90.00000   90.00000   90.00000
LATT -1
SFAC C  
C      1  0.5306740000000  0.4630890000000  0.4317410000000 1.0
C      1  0.4958190000000  0.5831480000000  0.5209370000000 1.0
C      1  0.4888870000000  0.4387730000000  0.4425830000000 1.0
C      1  0.5844150000000  0.4861810000000  0.4664660000000 1.0
C      1  0.4701960000000  0.4801160000000  0.4802290000000 1.0
C      1  0.5071590000000  0.5033910000000  0.4185270000000 1.0
C      1  0.4822750000000  0.5034900000000  0.4922890000000 1.0
C      1  0.5365110000000  0.5626320000000  0.5503830000000 1.0
C      1  0.5089470000000  0.4199430000000  0.4803180000000 1.0
C      1  0.5109070000000  0.5315520000000  0.4230150000000 1.0
C      1  0.5340990000000  0.4461080000000  0.5078920000000 1.0
C      1  0.5340160000000  0.5447380000000  0.4354540000000 1.0
C      1  0.5180000000000  0.4401150000000  0.4399860000000 1.0
C      1  0.4257560000000  0.5072470000000  0.4332360000000 1.0
C      1  0.4354810000000  0.5391000000000  0.5116800000000 1.0
C      1  0.4336580000000  0.5541740000000  0.4875980000000 1.0
C      1  0.4873520000000  0.4306830000000  0.5241860000000 1.0
C      1  0.4596260000000  0.4278110000000  0.4824330000000 1.0
C      1  0.5470800000000  0.4542830000000  0.5335540000000 1.0
C      1  0.5127200000000  0.4947690000000  0.5035130000000 1.0
C      1  0.4269850000000  0.4602280000000  0.4940210000000 1.0
C      1  0.5491750000000  0.5021630000000  0.5447820000000 1.0
C      1  0.5286270000000  0.4738800000000  0.5785670000000 1.0
C      1  0.5015050000000  0.5227270000000  0.5908220000000 1.0
C      1  0.4862930000000  0.4985620000000  0.5897960000000 1.0
C      1  0.5259250000000  0.5134580000000  0.4860910000000 1.0
C      1  0.4706860000000  0.5223090000000  0.5364320000000 1.0
C      1  0.5520120000000  0.5297670000000  0.4875550000000 1.0
C      1  0.4838570000000  0.4574810000000  0.5673810000000 1.0
C      1  0.5739720000000  0.4675920000000  0.4868340000000 1.0
C      1  0.4931090000000  0.4834600000000  0.4601850000000 1.0
C      1  0.4910280000000  0.4604320000000  0.5210590000000 1.0
C      1  0.5019280000000  0.5856190000000  0.4930200000000 1.0
C      1  0.5397790000000  0.5539940000000  0.5020170000000 1.0
C      1  0.5006740000000  0.4739680000000  0.5862210000000 1.0
C      1  0.4578840000000  0.4690480000000  0.5649320000000 1.0
C      1  0.4316910000000  0.4840020000000  0.4454140000000 1.0
C      1  0.4817370000000  0.5735460000000  0.4744190000000 1.0
C      1  0.4719160000000  0.4612570000000  0.4347170000000 1.0
C      1  0.4427850000000  0.4538940000000  0.5174650000000 1.0
C      1  0.4884480000000  0.5433800000000  0.4339010000000 1.0
C      1  0.4239330000000  0.4881970000000  0.4927990000000 1.0
C      1  0.5736020000000  0.4847690000000  0.5093530000000 1.0
C      1  0.5555750000000  0.5018070000000  0.4272890000000 1.0
C      1  0.5635560000000  0.5252540000000  0.5309430000000 1.0
C      1  0.5124770000000  0.4233440000000  0.5078540000000 1.0
C      1  0.4310670000000  0.4968730000000  0.5406860000000 1.0
C      1  0.5305980000000  0.5482660000000  0.5744120000000 1.0
C      1  0.5213570000000  0.4949090000000  0.4646980000000 1.0
C      1  0.5304320000000  0.4306960000000  0.4646960000000 1.0
C      1  0.5663940000000  0.4827820000000  0.4457410000000 1.0
C      1  0.4730270000000  0.5694420000000  0.5367960000000 1.0
C      1  0.4769450000000  0.5251070000000  0.4738250000000 1.0
C      1  0.5310020000000  0.4884790000000  0.4182410000000 1.0
C      1  0.4609230000000  0.4950330000000  0.5766350000000 1.0
C      1  0.5165730000000  0.4288400000000  0.5610010000000 1.0
C      1  0.4831680000000  0.4930620000000  0.4344760000000 1.0
C      1  0.4663580000000  0.4727030000000  0.5124840000000 1.0
C      1  0.4628150000000  0.5026320000000  0.5155420000000 1.0
C      1  0.4907780000000  0.5670360000000  0.5600300000000 1.0
C      1  0.4604530000000  0.4297100000000  0.5106030000000 1.0
C      1  0.4962840000000  0.5647610000000  0.4507910000000 1.0
C      1  0.5489870000000  0.4498010000000  0.4807470000000 1.0
C      1  0.5420170000000  0.4723270000000  0.4585170000000 1.0
C      1  0.5240200000000  0.5647260000000  0.4552810000000 1.0
C      1  0.5010410000000  0.5254770000000  0.5321800000000 1.0
C      1  0.4389460000000  0.4690370000000  0.5432860000000 1.0
C      1  0.5017120000000  0.5504530000000  0.5801160000000 1.0
C      1  0.4451650000000  0.4587860000000  0.4454970000000 1.0
C      1  0.5732660000000  0.5141560000000  0.5046880000000 1.0
C      1  0.4563970000000  0.5471440000000  0.5299770000000 1.0
C      1  0.5152360000000  0.4999930000000  0.5335240000000 1.0
C      1  0.5102310000000  0.5382440000000  0.5039350000000 1.0
C      1  0.5115640000000  0.4661050000000  0.5020890000000 1.0
C      1  0.5128700000000  0.5778060000000  0.5438330000000 1.0
C      1  0.5611160000000  0.4780550000000  0.5328970000000 1.0
C      1  0.5571470000000  0.5283270000000  0.4374080000000 1.0
C      1  0.4495710000000  0.5115630000000  0.5571100000000 1.0
C      1  0.4421880000000  0.4899530000000  0.4717980000000 1.0
C      1  0.4835730000000  0.4235220000000  0.4666910000000 1.0
C      1  0.4892320000000  0.5462790000000  0.4851780000000 1.0
C      1  0.4372620000000  0.5511560000000  0.4591930000000 1.0
C      1  0.5691070000000  0.5309260000000  0.4632530000000 1.0
C      1  0.4704220000000  0.5221190000000  0.4437510000000 1.0
C      1  0.4907250000000  0.4305780000000  0.5541940000000 1.0
C      1  0.5278080000000  0.5742030000000  0.4830100000000 1.0
C      1  0.5419990000000  0.4983480000000  0.5735680000000 1.0
C      1  0.5518020000000  0.5520980000000  0.5290350000000 1.0
C      1  0.5306610000000  0.5213250000000  0.5851740000000 1.0
C      1  0.4407940000000  0.5294280000000  0.4397710000000 1.0
C      1  0.4324200000000  0.5080790000000  0.5134930000000 1.0
C      1  0.4400270000000  0.4454300000000  0.4715190000000 1.0
C      1  0.5042980000000  0.4718380000000  0.5442280000000 1.0
C      1  0.5291540000000  0.4538870000000  0.5558560000000 1.0
C      1  0.5863290000000  0.5126840000000  0.4762240000000 1.0
C      1  0.4520020000000  0.5703360000000  0.4724310000000 1.0
END
