TITL C-65708-5580-4 6.32383537663155 125000 -405.049676787398 0 0 58 (C1) n - 1
REM
REM in /rds/project/t2_vol4/rds-t2-cs072/BORA/CARBON/from-Arr/AIRSS/Generating-Clusters/GAP-ML-2020/Only-C1/SD-CG/HFTN-CG
REM
REM
REM
REM
REM
REM ./C.cell (11c1c37f851c82e70ff6c80c92926a4b)
REM AIRSS Version 0.9.1 bugfix July 2018 build 013d7b7c2542+ Fri, 06 Jul 2018 19:26:36 +0100
REM compiler GCC version 9.3.0
REM options -cpp -mtune=generic -march=x86-64 -g -O0
REM seed -166326910 -1857634202 -1755765102 1154709357 -1225029429 -1237859913 1276043388 -790622303 57331141 -241176843 -1423764559 -1256461531 -1298402664 359637134 1396458807 -1809774255 1242896636 1122446747 598429975 1886455832 832363314 1587600944 -1171931505 -86190932 811948671 1404773299 -1720751037 -1889319010 2102445487 1607391726 1360342608 -1101930902 -1065025303
REM
CELL 1.54180   50.00000   50.00000   50.00000   90.00000   90.00000   90.00000
LATT -1
SFAC C  
C      1  0.5407690000000  0.5139920000000  0.5525380000000 1.0
C      1  0.5561560000000  0.5217340000000  0.5301700000000 1.0
C      1  0.4611420000000  0.4557380000000  0.5612370000000 1.0
C      1  0.5153200000000  0.5236370000000  0.5581860000000 1.0
C      1  0.5083690000000  0.5038540000000  0.5160320000000 1.0
C      1  0.5051120000000  0.4539860000000  0.5401010000000 1.0
C      1  0.5577470000000  0.4744110000000  0.5358900000000 1.0
C      1  0.4474720000000  0.4908810000000  0.5506350000000 1.0
C      1  0.4865460000000  0.5462350000000  0.4503270000000 1.0
C      1  0.4639350000000  0.4556200000000  0.5142010000000 1.0
C      1  0.4993090000000  0.4615060000000  0.4476860000000 1.0
C      1  0.4770200000000  0.4494990000000  0.5393820000000 1.0
C      1  0.5633880000000  0.5072680000000  0.4752210000000 1.0
C      1  0.5613460000000  0.4623890000000  0.4919640000000 1.0
C      1  0.4279240000000  0.4921130000000  0.4992700000000 1.0
C      1  0.4515030000000  0.4824630000000  0.4575680000000 1.0
C      1  0.5213060000000  0.4456780000000  0.5174310000000 1.0
C      1  0.4870950000000  0.5061590000000  0.4997020000000 1.0
C      1  0.4634850000000  0.5058410000000  0.5157010000000 1.0
C      1  0.4764010000000  0.4681100000000  0.4660680000000 1.0
C      1  0.4755610000000  0.5403550000000  0.5450430000000 1.0
C      1  0.4615550000000  0.5339080000000  0.4570570000000 1.0
C      1  0.4968910000000  0.5014770000000  0.5596760000000 1.0
C      1  0.4987120000000  0.5590290000000  0.4970330000000 1.0
C      1  0.4936340000000  0.4962850000000  0.4737720000000 1.0
C      1  0.5280340000000  0.4918210000000  0.5035040000000 1.0
C      1  0.4700430000000  0.5565480000000  0.5008090000000 1.0
C      1  0.4392880000000  0.5217590000000  0.5032360000000 1.0
C      1  0.4610520000000  0.5069480000000  0.4438440000000 1.0
C      1  0.4792640000000  0.4520350000000  0.4906040000000 1.0
C      1  0.4581900000000  0.5538320000000  0.5272580000000 1.0
C      1  0.5500470000000  0.5323440000000  0.4829700000000 1.0
C      1  0.5258260000000  0.5255040000000  0.4387850000000 1.0
C      1  0.5127050000000  0.4770210000000  0.5560660000000 1.0
C      1  0.5728550000000  0.4896810000000  0.4953790000000 1.0
C      1  0.5437740000000  0.5394050000000  0.5108320000000 1.0
C      1  0.4469000000000  0.4804510000000  0.5194970000000 1.0
C      1  0.4537490000000  0.5398510000000  0.4832150000000 1.0
C      1  0.5494540000000  0.4540530000000  0.5166530000000 1.0
C      1  0.5062740000000  0.5537980000000  0.4702530000000 1.0
C      1  0.4333170000000  0.5396500000000  0.5244530000000 1.0
C      1  0.5397560000000  0.4851770000000  0.5542560000000 1.0
C      1  0.5055660000000  0.4837910000000  0.4308970000000 1.0
C      1  0.5070230000000  0.4439360000000  0.4921280000000 1.0
C      1  0.5175810000000  0.5518140000000  0.5179750000000 1.0
C      1  0.4290540000000  0.4813890000000  0.4741190000000 1.0
C      1  0.5037990000000  0.5444720000000  0.5427370000000 1.0
C      1  0.5701830000000  0.4973630000000  0.5221970000000 1.0
C      1  0.5314560000000  0.4975840000000  0.4352750000000 1.0
C      1  0.5198130000000  0.4537460000000  0.4677490000000 1.0
C      1  0.4991160000000  0.5294020000000  0.4313420000000 1.0
C      1  0.4704500000000  0.5100650000000  0.5477740000000 1.0
C      1  0.5482880000000  0.4605620000000  0.4671560000000 1.0
C      1  0.5311730000000  0.5404610000000  0.4633370000000 1.0
C      1  0.4851800000000  0.5043790000000  0.4277750000000 1.0
C      1  0.4442080000000  0.4723910000000  0.5721080000000 1.0
C      1  0.5213790000000  0.4875870000000  0.4767070000000 1.0
C      1  0.5475030000000  0.4890140000000  0.4572170000000 1.0
END
