TITL C-65681-5571-5 -404.839860959115 125000 -678.325044244032 0 0 97 (C1) n - 1
REM
REM in /rds/project/t2_vol4/rds-t2-cs072/BORA/CARBON/from-Arr/AIRSS/Generating-Clusters/GAP-ML-2020/Only-C1/SD-CG/HFTN-CG
REM
REM
REM
REM
REM
REM ./C.cell (11c1c37f851c82e70ff6c80c92926a4b)
REM AIRSS Version 0.9.1 bugfix July 2018 build 013d7b7c2542+ Fri, 06 Jul 2018 19:26:36 +0100
REM compiler GCC version 9.3.0
REM options -cpp -mtune=generic -march=x86-64 -g -O0
REM seed -583101531 -569964194 924252379 -19838468 1020740307 1748341025 -1007444613 1864788391 -447135394 -1742877205 -609613603 -981675444 1668334791 -308441198 -1592679681 691011414 -1680396090 -2095649598 1440490736 -2073174773 1207965742 1427020180 939480536 1088315248 -1234456739 -693831353 -1910890534 -1596708741 1320517296 462809369 -240239087 2021804119 2073620049
REM
CELL 1.54180   50.00000   50.00000   50.00000   90.00000   90.00000   90.00000
LATT -1
SFAC C  
C      1  0.4391980000000  0.5141050000000  0.5474240000000 1.0
C      1  0.5465340000000  0.4257660000000  0.4819830000000 1.0
C      1  0.5551920000000  0.5318540000000  0.4663070000000 1.0
C      1  0.5090080000000  0.4959340000000  0.5390350000000 1.0
C      1  0.4913280000000  0.4219870000000  0.4643930000000 1.0
C      1  0.4830390000000  0.4565690000000  0.5762790000000 1.0
C      1  0.4792140000000  0.5240400000000  0.5162270000000 1.0
C      1  0.4614820000000  0.5230530000000  0.4323910000000 1.0
C      1  0.4410590000000  0.5569730000000  0.5269900000000 1.0
C      1  0.5320400000000  0.5074630000000  0.5791270000000 1.0
C      1  0.5499100000000  0.4645590000000  0.5623250000000 1.0
C      1  0.5250300000000  0.5415280000000  0.5298150000000 1.0
C      1  0.5739770000000  0.5196020000000  0.5111410000000 1.0
C      1  0.5162950000000  0.5510220000000  0.5559180000000 1.0
C      1  0.4209020000000  0.4891040000000  0.5077110000000 1.0
C      1  0.5564770000000  0.4766560000000  0.4520340000000 1.0
C      1  0.5118540000000  0.4909240000000  0.5916350000000 1.0
C      1  0.5070060000000  0.4409160000000  0.4239600000000 1.0
C      1  0.4264500000000  0.4665620000000  0.4672130000000 1.0
C      1  0.4608370000000  0.4933680000000  0.5489000000000 1.0
C      1  0.4989080000000  0.4192160000000  0.4931360000000 1.0
C      1  0.4839740000000  0.4802750000000  0.4278720000000 1.0
C      1  0.5753000000000  0.5107200000000  0.4829720000000 1.0
C      1  0.4647040000000  0.5765640000000  0.4828340000000 1.0
C      1  0.5124520000000  0.4670940000000  0.4693140000000 1.0
C      1  0.4234550000000  0.5382200000000  0.5130080000000 1.0
C      1  0.5422480000000  0.5489920000000  0.4418710000000 1.0
C      1  0.4350540000000  0.5321090000000  0.4888010000000 1.0
C      1  0.5289440000000  0.4888870000000  0.4537410000000 1.0
C      1  0.4831400000000  0.5619290000000  0.4408390000000 1.0
C      1  0.5319180000000  0.5811650000000  0.5031340000000 1.0
C      1  0.5312180000000  0.5363260000000  0.4213160000000 1.0
C      1  0.5009640000000  0.4725980000000  0.5263680000000 1.0
C      1  0.4688100000000  0.4370970000000  0.4512470000000 1.0
C      1  0.4483830000000  0.5423480000000  0.5509260000000 1.0
C      1  0.5135220000000  0.4762530000000  0.4992540000000 1.0
C      1  0.4791150000000  0.5021930000000  0.4737090000000 1.0
C      1  0.5121000000000  0.4899520000000  0.4258530000000 1.0
C      1  0.5264870000000  0.4602600000000  0.4208770000000 1.0
C      1  0.4291770000000  0.4618990000000  0.5140860000000 1.0
C      1  0.4409240000000  0.4518900000000  0.4898150000000 1.0
C      1  0.4783370000000  0.4306210000000  0.5083800000000 1.0
C      1  0.4219120000000  0.5123440000000  0.5251540000000 1.0
C      1  0.4694080000000  0.4821030000000  0.5754860000000 1.0
C      1  0.5662550000000  0.5469230000000  0.5093700000000 1.0
C      1  0.4676250000000  0.4976120000000  0.4429450000000 1.0
C      1  0.5093210000000  0.4633380000000  0.5865450000000 1.0
C      1  0.5046740000000  0.5888840000000  0.5044100000000 1.0
C      1  0.4864670000000  0.4351730000000  0.5565150000000 1.0
C      1  0.4843750000000  0.5098150000000  0.5392430000000 1.0
C      1  0.4672370000000  0.4313970000000  0.5350530000000 1.0
C      1  0.5395570000000  0.4293610000000  0.4542430000000 1.0
C      1  0.4695240000000  0.4579400000000  0.4980690000000 1.0
C      1  0.5616030000000  0.5544220000000  0.4826100000000 1.0
C      1  0.5523080000000  0.4931790000000  0.5627830000000 1.0
C      1  0.5162720000000  0.5319840000000  0.5761490000000 1.0
C      1  0.5026760000000  0.5450620000000  0.4839960000000 1.0
C      1  0.5296530000000  0.5121350000000  0.4723770000000 1.0
C      1  0.5442090000000  0.5609260000000  0.5201620000000 1.0
C      1  0.5671350000000  0.4724090000000  0.5221790000000 1.0
C      1  0.4877570000000  0.5292490000000  0.5822180000000 1.0
C      1  0.4889710000000  0.4757280000000  0.4823770000000 1.0
C      1  0.5439830000000  0.5765960000000  0.4785180000000 1.0
C      1  0.4871530000000  0.5738180000000  0.5236470000000 1.0
C      1  0.5677610000000  0.4403850000000  0.4889140000000 1.0
C      1  0.4597000000000  0.5732430000000  0.5116990000000 1.0
C      1  0.4723170000000  0.5487070000000  0.5659980000000 1.0
C      1  0.4912970000000  0.5649450000000  0.5522360000000 1.0
C      1  0.5605850000000  0.5000530000000  0.5327510000000 1.0
C      1  0.5284050000000  0.4494340000000  0.5724040000000 1.0
C      1  0.5482350000000  0.4530630000000  0.4385640000000 1.0
C      1  0.4816000000000  0.4518430000000  0.4294850000000 1.0
C      1  0.5132790000000  0.4231920000000  0.4460610000000 1.0
C      1  0.5028850000000  0.5215850000000  0.4715660000000 1.0
C      1  0.5305300000000  0.5729400000000  0.4539970000000 1.0
C      1  0.5737340000000  0.4843350000000  0.4734950000000 1.0
C      1  0.4215910000000  0.4930400000000  0.4779000000000 1.0
C      1  0.4906680000000  0.5886950000000  0.4790640000000 1.0
C      1  0.5268710000000  0.4212010000000  0.5028870000000 1.0
C      1  0.4466090000000  0.4509120000000  0.5348700000000 1.0
C      1  0.5546240000000  0.4517280000000  0.5368980000000 1.0
C      1  0.5157120000000  0.4323120000000  0.5527260000000 1.0
C      1  0.5745710000000  0.4655210000000  0.4955850000000 1.0
C      1  0.4624200000000  0.5138610000000  0.4956290000000 1.0
C      1  0.5315940000000  0.5111350000000  0.5256810000000 1.0
C      1  0.5023320000000  0.5794930000000  0.4538300000000 1.0
C      1  0.4853440000000  0.5018760000000  0.5892600000000 1.0
C      1  0.5095810000000  0.5203470000000  0.4178800000000 1.0
C      1  0.5334190000000  0.4309890000000  0.5298750000000 1.0
C      1  0.4249260000000  0.5200200000000  0.4661560000000 1.0
C      1  0.4424660000000  0.4451990000000  0.4605680000000 1.0
C      1  0.4437740000000  0.5368780000000  0.4503750000000 1.0
C      1  0.5290620000000  0.5000640000000  0.4985900000000 1.0
C      1  0.4989950000000  0.5444020000000  0.5117690000000 1.0
C      1  0.4849040000000  0.5374660000000  0.4247640000000 1.0
C      1  0.4666320000000  0.4711300000000  0.5268230000000 1.0
C      1  0.4595370000000  0.5610150000000  0.4574890000000 1.0
END
