TITL C-66139-5857-7 -0.0518177913667841 125000 -415.93597908608 0 0 63 (C1) n - 1
REM
REM in /rds/project/t2_vol4/rds-t2-cs072/BORA/CARBON/from-Arr/AIRSS/Generating-Clusters/GAP-ML-2020/Only-C1/SD-CG/HFTN-CG
REM
REM
REM
REM
REM
REM ./C.cell (11c1c37f851c82e70ff6c80c92926a4b)
REM AIRSS Version 0.9.1 bugfix July 2018 build 013d7b7c2542+ Fri, 06 Jul 2018 19:26:36 +0100
REM compiler GCC version 9.3.0
REM options -cpp -mtune=generic -march=x86-64 -g -O0
REM seed -1640355485 969264896 -1141264768 1298818654 -97509907 50426872 1559509194 -655359702 721432756 -229586630 -1941370745 -1637903285 -2130728714 1890200104 579019735 -457721776 -853584688 1135551444 1937668596 160972816 462143773 -1529740514 -923702450 1297107786 -1319675823 -1640205733 -1842290786 -1877196313 -825149766 -923810592 2068263247 1362332259 1016262563
REM
CELL 1.54180   50.00000   50.00000   50.00000   90.00000   90.00000   90.00000
LATT -1
SFAC C  
C      1  0.5257120000000  0.5429300000000  0.4708750000000 1.0
C      1  0.4544590000000  0.5015010000000  0.4844120000000 1.0
C      1  0.5385860000000  0.4833140000000  0.5214580000000 1.0
C      1  0.4895770000000  0.4393230000000  0.4644900000000 1.0
C      1  0.4640900000000  0.5424320000000  0.5281380000000 1.0
C      1  0.4465520000000  0.5053440000000  0.5512190000000 1.0
C      1  0.5423070000000  0.4906250000000  0.5494590000000 1.0
C      1  0.4998600000000  0.4796830000000  0.4967910000000 1.0
C      1  0.4418750000000  0.5244380000000  0.5300400000000 1.0
C      1  0.5471090000000  0.5187110000000  0.5474130000000 1.0
C      1  0.5312530000000  0.4626980000000  0.5534750000000 1.0
C      1  0.5354950000000  0.4466250000000  0.4843250000000 1.0
C      1  0.4880250000000  0.5136480000000  0.5655690000000 1.0
C      1  0.4995980000000  0.5720810000000  0.5244530000000 1.0
C      1  0.5419970000000  0.5300730000000  0.4473900000000 1.0
C      1  0.4516470000000  0.4275160000000  0.4976130000000 1.0
C      1  0.5104700000000  0.5222320000000  0.5163830000000 1.0
C      1  0.4721350000000  0.4773010000000  0.4855240000000 1.0
C      1  0.4584570000000  0.4539960000000  0.5361760000000 1.0
C      1  0.5260630000000  0.5634660000000  0.4936740000000 1.0
C      1  0.5248790000000  0.5132380000000  0.4317090000000 1.0
C      1  0.5364010000000  0.4529800000000  0.5263350000000 1.0
C      1  0.5493040000000  0.4352940000000  0.5078100000000 1.0
C      1  0.5263820000000  0.5611270000000  0.5231170000000 1.0
C      1  0.4411970000000  0.4393180000000  0.5184550000000 1.0
C      1  0.4823930000000  0.5647850000000  0.4734790000000 1.0
C      1  0.5448760000000  0.4755660000000  0.4772870000000 1.0
C      1  0.5317850000000  0.4571860000000  0.4398230000000 1.0
C      1  0.4462430000000  0.5115600000000  0.4559330000000 1.0
C      1  0.4998570000000  0.5476880000000  0.4576440000000 1.0
C      1  0.4900920000000  0.4877000000000  0.5480380000000 1.0
C      1  0.5190770000000  0.4938880000000  0.4775700000000 1.0
C      1  0.5270120000000  0.5208870000000  0.4907940000000 1.0
C      1  0.5765970000000  0.5076820000000  0.5075270000000 1.0
C      1  0.4854190000000  0.4427520000000  0.5385330000000 1.0
C      1  0.4824410000000  0.4836390000000  0.4417780000000 1.0
C      1  0.4780740000000  0.4274980000000  0.4895810000000 1.0
C      1  0.5065900000000  0.4990400000000  0.4494380000000 1.0
C      1  0.5591850000000  0.4859340000000  0.5009280000000 1.0
C      1  0.5027840000000  0.4611000000000  0.5536530000000 1.0
C      1  0.4941900000000  0.4315890000000  0.5125140000000 1.0
C      1  0.4922480000000  0.5251930000000  0.4424850000000 1.0
C      1  0.4597290000000  0.5483620000000  0.4771840000000 1.0
C      1  0.5508000000000  0.4766010000000  0.4482900000000 1.0
C      1  0.4335300000000  0.5164940000000  0.5039830000000 1.0
C      1  0.5558710000000  0.5246110000000  0.4988690000000 1.0
C      1  0.4368010000000  0.5381490000000  0.4650120000000 1.0
C      1  0.5002250000000  0.5377330000000  0.5572010000000 1.0
C      1  0.4827390000000  0.5272780000000  0.5131360000000 1.0
C      1  0.4729380000000  0.5234930000000  0.4881100000000 1.0
C      1  0.4834110000000  0.5570060000000  0.5430550000000 1.0
C      1  0.5242640000000  0.5357860000000  0.5409950000000 1.0
C      1  0.5503210000000  0.5048710000000  0.4404580000000 1.0
C      1  0.4982360000000  0.5741850000000  0.4953190000000 1.0
C      1  0.4188500000000  0.5310310000000  0.4867430000000 1.0
C      1  0.4756880000000  0.4633120000000  0.4594710000000 1.0
C      1  0.5065270000000  0.4938890000000  0.5215830000000 1.0
C      1  0.5130100000000  0.4517160000000  0.5047190000000 1.0
C      1  0.5188470000000  0.4411300000000  0.4593260000000 1.0
C      1  0.4616340000000  0.5164880000000  0.5725000000000 1.0
C      1  0.4682620000000  0.5084230000000  0.4388250000000 1.0
C      1  0.5649010000000  0.5252960000000  0.5259620000000 1.0
C      1  0.4611230000000  0.4805650000000  0.5459540000000 1.0
END
