TITL C-66582-2699-1 -0.0481593428604311 125000 -894.641705642308 0 0 130 (C1) n - 1
REM
REM in /rds/project/t2_vol4/rds-t2-cs072/BORA/CARBON/from-Arr/AIRSS/Generating-Clusters/GAP-ML-2020/Only-C1/SD-CG/HFTN-CG
REM
REM
REM
REM
REM
REM ./C.cell (11c1c37f851c82e70ff6c80c92926a4b)
REM AIRSS Version 0.9.1 bugfix July 2018 build 013d7b7c2542+ Fri, 06 Jul 2018 19:26:36 +0100
REM compiler GCC version 9.3.0
REM options -cpp -mtune=generic -march=x86-64 -g -O0
REM seed -322820646 1318839339 1494646452 -601241156 950865982 1839082487 -2020459841 -1350389842 -1474166779 -348303558 -1281341537 2088130525 -1603039741 -1743954272 701630788 153595627 -1240492703 266597063 -1071943068 -1141070891 1215672640 -733795723 -1418841199 -1454356701 118624843 -1241805758 -1099267979 -81451990 925982298 -316407462 -1176545538 200697654 -732206885
REM
CELL 1.54180   50.00000   50.00000   50.00000   90.00000   90.00000   90.00000
LATT -1
SFAC C  
C      1  0.4881090000000  0.5522500000000  0.4170770000000 1.0
C      1  0.5130340000000  0.4632500000000  0.5003240000000 1.0
C      1  0.4340240000000  0.5124380000000  0.5666670000000 1.0
C      1  0.4757890000000  0.4952170000000  0.4932190000000 1.0
C      1  0.5998280000000  0.5044900000000  0.5294840000000 1.0
C      1  0.5009740000000  0.4426760000000  0.4841330000000 1.0
C      1  0.5437410000000  0.4668030000000  0.5892160000000 1.0
C      1  0.5057760000000  0.4905910000000  0.4940260000000 1.0
C      1  0.4846840000000  0.5038010000000  0.4113160000000 1.0
C      1  0.5006110000000  0.4501950000000  0.4549070000000 1.0
C      1  0.5622810000000  0.4391920000000  0.4564420000000 1.0
C      1  0.5221410000000  0.5365340000000  0.4775600000000 1.0
C      1  0.4062490000000  0.5145560000000  0.5195170000000 1.0
C      1  0.4926750000000  0.5443870000000  0.4862740000000 1.0
C      1  0.5215920000000  0.4930760000000  0.4649390000000 1.0
C      1  0.4807700000000  0.5204400000000  0.4513590000000 1.0
C      1  0.5159400000000  0.4776510000000  0.5886700000000 1.0
C      1  0.4742330000000  0.4931990000000  0.5875600000000 1.0
C      1  0.5593670000000  0.4656450000000  0.5500990000000 1.0
C      1  0.4456540000000  0.5333720000000  0.4855500000000 1.0
C      1  0.5093150000000  0.4602940000000  0.5297450000000 1.0
C      1  0.4293410000000  0.5401600000000  0.5561740000000 1.0
C      1  0.5131030000000  0.5617770000000  0.4270480000000 1.0
C      1  0.4906810000000  0.5497480000000  0.5144790000000 1.0
C      1  0.5412060000000  0.4631690000000  0.4914360000000 1.0
C      1  0.5476610000000  0.4916770000000  0.4819140000000 1.0
C      1  0.5567290000000  0.5283970000000  0.5450190000000 1.0
C      1  0.5235870000000  0.5352400000000  0.4297060000000 1.0
C      1  0.4554830000000  0.4015250000000  0.4725460000000 1.0
C      1  0.5817300000000  0.4565390000000  0.5323770000000 1.0
C      1  0.5307620000000  0.5870060000000  0.5217960000000 1.0
C      1  0.5416580000000  0.5634350000000  0.4773170000000 1.0
C      1  0.5093810000000  0.5780170000000  0.4502560000000 1.0
C      1  0.4695270000000  0.4939380000000  0.4377070000000 1.0
C      1  0.4739290000000  0.5778430000000  0.5199010000000 1.0
C      1  0.4930040000000  0.5442230000000  0.5756270000000 1.0
C      1  0.4706380000000  0.5754470000000  0.5501320000000 1.0
C      1  0.4723570000000  0.5218940000000  0.4791620000000 1.0
C      1  0.5494800000000  0.4339890000000  0.4809500000000 1.0
C      1  0.5443630000000  0.5204650000000  0.4936270000000 1.0
C      1  0.5091680000000  0.5285260000000  0.5928800000000 1.0
C      1  0.5228450000000  0.5691730000000  0.5477200000000 1.0
C      1  0.5194500000000  0.5506100000000  0.5232110000000 1.0
C      1  0.4723800000000  0.4694320000000  0.5672230000000 1.0
C      1  0.4091690000000  0.4890920000000  0.5324380000000 1.0
C      1  0.4948430000000  0.4555910000000  0.5826950000000 1.0
C      1  0.4238350000000  0.4471800000000  0.5095920000000 1.0
C      1  0.5317460000000  0.4182290000000  0.5151790000000 1.0
C      1  0.4112920000000  0.4838940000000  0.4862890000000 1.0
C      1  0.5973740000000  0.4892210000000  0.4900600000000 1.0
C      1  0.4631630000000  0.4285310000000  0.5166520000000 1.0
C      1  0.4347800000000  0.5307240000000  0.4257620000000 1.0
C      1  0.5937970000000  0.4778170000000  0.5176680000000 1.0
C      1  0.5682920000000  0.4874270000000  0.4431120000000 1.0
C      1  0.5362400000000  0.5264210000000  0.5218140000000 1.0
C      1  0.4473790000000  0.5702020000000  0.5097580000000 1.0
C      1  0.4817930000000  0.5299200000000  0.4031860000000 1.0
C      1  0.5615130000000  0.5080790000000  0.4235470000000 1.0
C      1  0.5676040000000  0.5534430000000  0.4657150000000 1.0
C      1  0.4440970000000  0.5515820000000  0.4402720000000 1.0
C      1  0.5615790000000  0.4840120000000  0.5747870000000 1.0
C      1  0.5716560000000  0.5297430000000  0.4819980000000 1.0
C      1  0.5005820000000  0.5039210000000  0.5467490000000 1.0
C      1  0.5233930000000  0.4929390000000  0.5628330000000 1.0
C      1  0.5020740000000  0.3976510000000  0.4822290000000 1.0
C      1  0.5421560000000  0.5509570000000  0.5609850000000 1.0
C      1  0.4369630000000  0.5779170000000  0.4836570000000 1.0
C      1  0.4392120000000  0.4896510000000  0.4452070000000 1.0
C      1  0.4271370000000  0.4420210000000  0.4785870000000 1.0
C      1  0.4911610000000  0.4235520000000  0.4418160000000 1.0
C      1  0.5908370000000  0.5350040000000  0.5044640000000 1.0
C      1  0.5025420000000  0.4295760000000  0.5859050000000 1.0
C      1  0.5001030000000  0.5010370000000  0.5968020000000 1.0
C      1  0.5796120000000  0.5306890000000  0.4246640000000 1.0
C      1  0.5242800000000  0.4668650000000  0.4450490000000 1.0
C      1  0.4345240000000  0.4189280000000  0.4671390000000 1.0
C      1  0.5257120000000  0.5871570000000  0.4718790000000 1.0
C      1  0.5128070000000  0.4286760000000  0.5358500000000 1.0
C      1  0.4594380000000  0.4016730000000  0.5012910000000 1.0
C      1  0.4637650000000  0.4700180000000  0.4792060000000 1.0
C      1  0.5323710000000  0.4769640000000  0.5383330000000 1.0
C      1  0.4471110000000  0.6004310000000  0.4720820000000 1.0
C      1  0.5414100000000  0.5656000000000  0.5070700000000 1.0
C      1  0.5755150000000  0.4975850000000  0.4711260000000 1.0
C      1  0.4958320000000  0.4251070000000  0.4149520000000 1.0
C      1  0.5126550000000  0.4955070000000  0.4068580000000 1.0
C      1  0.4852190000000  0.4795650000000  0.5399190000000 1.0
C      1  0.4186280000000  0.5270780000000  0.4706510000000 1.0
C      1  0.5592830000000  0.4226240000000  0.5076520000000 1.0
C      1  0.5805890000000  0.5507610000000  0.4407030000000 1.0
C      1  0.5805540000000  0.4305180000000  0.5224170000000 1.0
C      1  0.5341240000000  0.5142090000000  0.4133940000000 1.0
C      1  0.4094930000000  0.4707340000000  0.5110920000000 1.0
C      1  0.4421200000000  0.4439580000000  0.5316590000000 1.0
C      1  0.4703840000000  0.5298050000000  0.5273520000000 1.0
C      1  0.5127000000000  0.5208110000000  0.4537920000000 1.0
C      1  0.4202210000000  0.5363810000000  0.5294910000000 1.0
C      1  0.5550530000000  0.4617680000000  0.4432770000000 1.0
C      1  0.4477730000000  0.5616670000000  0.5579780000000 1.0
C      1  0.4870920000000  0.5967120000000  0.5006770000000 1.0
C      1  0.4728750000000  0.4437090000000  0.4913430000000 1.0
C      1  0.5190940000000  0.5026810000000  0.5222100000000 1.0
C      1  0.4066540000000  0.5109710000000  0.4908320000000 1.0
C      1  0.4243360000000  0.5134850000000  0.4449380000000 1.0
C      1  0.5212170000000  0.4303240000000  0.5653330000000 1.0
C      1  0.4966550000000  0.5691460000000  0.5627870000000 1.0
C      1  0.4801280000000  0.5254240000000  0.5562600000000 1.0
C      1  0.5486950000000  0.5094870000000  0.5689650000000 1.0
C      1  0.4445730000000  0.4626280000000  0.5550380000000 1.0
C      1  0.4440520000000  0.5420300000000  0.5136420000000 1.0
C      1  0.4829210000000  0.4035350000000  0.4609120000000 1.0
C      1  0.4727240000000  0.5504620000000  0.4416520000000 1.0
C      1  0.4886790000000  0.4147930000000  0.5270370000000 1.0
C      1  0.5077840000000  0.4455420000000  0.4043510000000 1.0
C      1  0.5211380000000  0.4195990000000  0.4876250000000 1.0
C      1  0.4732690000000  0.5934730000000  0.4753760000000 1.0
C      1  0.4780100000000  0.4701200000000  0.4530380000000 1.0
C      1  0.5173420000000  0.4688800000000  0.4146360000000 1.0
C      1  0.4600690000000  0.5134260000000  0.5755690000000 1.0
C      1  0.4870460000000  0.3949400000000  0.5067210000000 1.0
C      1  0.5351850000000  0.5329430000000  0.5820600000000 1.0
C      1  0.4330370000000  0.4724590000000  0.4691720000000 1.0
C      1  0.5444930000000  0.4467900000000  0.5694810000000 1.0
C      1  0.4265820000000  0.4861210000000  0.5548540000000 1.0
C      1  0.4678940000000  0.4987700000000  0.5205310000000 1.0
C      1  0.5836140000000  0.5284800000000  0.5326970000000 1.0
C      1  0.6089040000000  0.5130260000000  0.5026780000000 1.0
C      1  0.4324850000000  0.5541280000000  0.4675170000000 1.0
C      1  0.4854290000000  0.5672400000000  0.4629670000000 1.0
C      1  0.5152910000000  0.5959730000000  0.4981710000000 1.0
END
