TITL C-66603-1454-5 -0.0975576532077477 125000 -293.828416117041 0 0 45 (C1) n - 1
REM
REM in /rds/project/t2_vol4/rds-t2-cs072/BORA/CARBON/from-Arr/AIRSS/Generating-Clusters/GAP-ML-2020/Only-C1/SD-CG/HFTN-CG
REM
REM
REM
REM
REM
REM ./C.cell (11c1c37f851c82e70ff6c80c92926a4b)
REM AIRSS Version 0.9.1 bugfix July 2018 build 013d7b7c2542+ Fri, 06 Jul 2018 19:26:36 +0100
REM compiler GCC version 9.3.0
REM options -cpp -mtune=generic -march=x86-64 -g -O0
REM seed 1122480651 -1872750208 2029358366 -1362898535 1644760902 1611636746 -251265050 -1278654438 800058202 865861659 787045698 1532785566 -1680297101 1170215457 -1712821485 -226465960 436338386 1737803975 -1547561445 1418063634 677490648 -1637498838 -1967698327 629924077 -1603804243 -57549198 -254554227 -443853218 -1214191479 -131601190 526106634 -878333072 -1073349213
REM
CELL 1.54180   50.00000   50.00000   50.00000   90.00000   90.00000   90.00000
LATT -1
SFAC C  
C      1  0.5305070000000  0.4890720000000  0.5421080000000 1.0
C      1  0.5498490000000  0.4828210000000  0.5218280000000 1.0
C      1  0.4447570000000  0.5364460000000  0.5113140000000 1.0
C      1  0.4969580000000  0.5509830000000  0.4446330000000 1.0
C      1  0.5092670000000  0.5489420000000  0.4709240000000 1.0
C      1  0.5447650000000  0.4585500000000  0.5085290000000 1.0
C      1  0.5144550000000  0.4372790000000  0.5224260000000 1.0
C      1  0.4909150000000  0.5333280000000  0.4886410000000 1.0
C      1  0.5330670000000  0.4582630000000  0.4814040000000 1.0
C      1  0.4319150000000  0.4857170000000  0.5094400000000 1.0
C      1  0.4914090000000  0.5070100000000  0.5488780000000 1.0
C      1  0.5022600000000  0.4446730000000  0.4782570000000 1.0
C      1  0.4534990000000  0.4786900000000  0.5507070000000 1.0
C      1  0.5030600000000  0.4843270000000  0.5362860000000 1.0
C      1  0.4720360000000  0.4967990000000  0.5011630000000 1.0
C      1  0.4916480000000  0.4767030000000  0.5101300000000 1.0
C      1  0.4942730000000  0.5273540000000  0.4357240000000 1.0
C      1  0.5083920000000  0.5286720000000  0.5399010000000 1.0
C      1  0.4937420000000  0.4885780000000  0.4626990000000 1.0
C      1  0.5322570000000  0.5289050000000  0.4701700000000 1.0
C      1  0.5520100000000  0.5120710000000  0.5188630000000 1.0
C      1  0.5116900000000  0.5242420000000  0.5082720000000 1.0
C      1  0.5065480000000  0.5029240000000  0.4413520000000 1.0
C      1  0.5348210000000  0.5093820000000  0.4500650000000 1.0
C      1  0.5530110000000  0.4882840000000  0.4462530000000 1.0
C      1  0.4821500000000  0.4599680000000  0.4644710000000 1.0
C      1  0.5476040000000  0.4667360000000  0.4588340000000 1.0
C      1  0.5399200000000  0.4362150000000  0.5262970000000 1.0
C      1  0.5354000000000  0.5170470000000  0.5424160000000 1.0
C      1  0.5396450000000  0.5302610000000  0.4987960000000 1.0
C      1  0.5196330000000  0.5704410000000  0.4884660000000 1.0
C      1  0.4485170000000  0.4675000000000  0.5272980000000 1.0
C      1  0.4734750000000  0.5432510000000  0.5112770000000 1.0
C      1  0.4706010000000  0.4528140000000  0.5097360000000 1.0
C      1  0.4645190000000  0.5156240000000  0.5223840000000 1.0
C      1  0.4954010000000  0.5533710000000  0.5294040000000 1.0
C      1  0.4295820000000  0.5145850000000  0.5138990000000 1.0
C      1  0.5082740000000  0.4741510000000  0.4856330000000 1.0
C      1  0.4934610000000  0.4346730000000  0.5051760000000 1.0
C      1  0.5139120000000  0.5688930000000  0.5149460000000 1.0
C      1  0.4802390000000  0.5095830000000  0.4772390000000 1.0
C      1  0.5391210000000  0.5590750000000  0.5054250000000 1.0
C      1  0.4638840000000  0.5045680000000  0.5496490000000 1.0
C      1  0.4478670000000  0.4827860000000  0.4872980000000 1.0
C      1  0.4596820000000  0.4584430000000  0.4813900000000 1.0
END
