TITL C-66584-1448-6 -0.0542052039359519 125000 -654.580114687457 0 0 95 (C1) n - 1
REM
REM in /rds/project/t2_vol4/rds-t2-cs072/BORA/CARBON/from-Arr/AIRSS/Generating-Clusters/GAP-ML-2020/Only-C1/SD-CG/HFTN-CG
REM
REM
REM
REM
REM
REM ./C.cell (11c1c37f851c82e70ff6c80c92926a4b)
REM AIRSS Version 0.9.1 bugfix July 2018 build 013d7b7c2542+ Fri, 06 Jul 2018 19:26:36 +0100
REM compiler GCC version 9.3.0
REM options -cpp -mtune=generic -march=x86-64 -g -O0
REM seed -234016779 1915023028 -346494755 -225658942 -1683279708 2141577008 1290864764 1421010637 1085626664 1608410287 2093580162 1969246904 408469337 -182769140 -1033301598 -2099930036 1510224182 -204412732 110033108 -308421934 -1471130307 1923067085 -98700256 -780673744 -1316786970 7421105 -2027645088 -154392943 1109691687 -946166230 1704028315 1461957880 487594448
REM
CELL 1.54180   50.00000   50.00000   50.00000   90.00000   90.00000   90.00000
LATT -1
SFAC C  
C      1  0.4581260000000  0.4758600000000  0.4380680000000 1.0
C      1  0.5298450000000  0.5575780000000  0.5616470000000 1.0
C      1  0.4603370000000  0.4487570000000  0.5284430000000 1.0
C      1  0.5408010000000  0.4396900000000  0.4660510000000 1.0
C      1  0.5550350000000  0.4541870000000  0.4455240000000 1.0
C      1  0.4950970000000  0.4362000000000  0.4417340000000 1.0
C      1  0.5306340000000  0.5062220000000  0.4829700000000 1.0
C      1  0.4907970000000  0.4359110000000  0.5667610000000 1.0
C      1  0.5649510000000  0.4657500000000  0.5356280000000 1.0
C      1  0.5266470000000  0.4890120000000  0.5416220000000 1.0
C      1  0.4783560000000  0.5549100000000  0.4465330000000 1.0
C      1  0.4738540000000  0.5002270000000  0.4313690000000 1.0
C      1  0.5140570000000  0.4234600000000  0.4613080000000 1.0
C      1  0.5740270000000  0.5245800000000  0.4609830000000 1.0
C      1  0.5250330000000  0.4711270000000  0.5671260000000 1.0
C      1  0.4743120000000  0.5796920000000  0.4917690000000 1.0
C      1  0.4488290000000  0.5331440000000  0.5371840000000 1.0
C      1  0.4690070000000  0.4509480000000  0.4505860000000 1.0
C      1  0.4743410000000  0.4254860000000  0.5165310000000 1.0
C      1  0.5455920000000  0.4477450000000  0.5201810000000 1.0
C      1  0.4804680000000  0.4988750000000  0.4775280000000 1.0
C      1  0.4171860000000  0.5258560000000  0.4904180000000 1.0
C      1  0.4623670000000  0.5677250000000  0.4683050000000 1.0
C      1  0.4535210000000  0.4386370000000  0.4734800000000 1.0
C      1  0.5469810000000  0.5771280000000  0.5515460000000 1.0
C      1  0.5563950000000  0.5584310000000  0.5041900000000 1.0
C      1  0.5221000000000  0.4958780000000  0.4573250000000 1.0
C      1  0.4754370000000  0.4776730000000  0.5214790000000 1.0
C      1  0.4791840000000  0.4907950000000  0.5478920000000 1.0
C      1  0.5540230000000  0.4452540000000  0.4914940000000 1.0
C      1  0.5743250000000  0.5350040000000  0.5080590000000 1.0
C      1  0.4273590000000  0.5518370000000  0.4996730000000 1.0
C      1  0.4904920000000  0.5750330000000  0.5362920000000 1.0
C      1  0.5437290000000  0.5581760000000  0.4786390000000 1.0
C      1  0.5126960000000  0.5753930000000  0.5173780000000 1.0
C      1  0.4252950000000  0.4786660000000  0.4751910000000 1.0
C      1  0.5095420000000  0.5175610000000  0.5726440000000 1.0
C      1  0.4264020000000  0.4995950000000  0.4962300000000 1.0
C      1  0.4882790000000  0.5389110000000  0.5718870000000 1.0
C      1  0.5692260000000  0.5119430000000  0.5258330000000 1.0
C      1  0.5672430000000  0.5009440000000  0.4474710000000 1.0
C      1  0.5117310000000  0.4565250000000  0.4339160000000 1.0
C      1  0.5136470000000  0.5433570000000  0.5078030000000 1.0
C      1  0.5730420000000  0.4850130000000  0.5162770000000 1.0
C      1  0.4365700000000  0.5571280000000  0.4729110000000 1.0
C      1  0.4355290000000  0.4594820000000  0.5159560000000 1.0
C      1  0.5006690000000  0.4278570000000  0.4861760000000 1.0
C      1  0.4561640000000  0.5028780000000  0.5617570000000 1.0
C      1  0.5050150000000  0.5397150000000  0.4528660000000 1.0
C      1  0.5035730000000  0.4226700000000  0.5159340000000 1.0
C      1  0.4553730000000  0.5214440000000  0.4273320000000 1.0
C      1  0.4264120000000  0.4868570000000  0.5225670000000 1.0
C      1  0.5413120000000  0.5739860000000  0.5245810000000 1.0
C      1  0.4688580000000  0.5244950000000  0.5143330000000 1.0
C      1  0.5406180000000  0.5057970000000  0.4341040000000 1.0
C      1  0.4339610000000  0.4546830000000  0.4876260000000 1.0
C      1  0.5044240000000  0.5022950000000  0.4969440000000 1.0
C      1  0.4803690000000  0.4800800000000  0.5768360000000 1.0
C      1  0.4323110000000  0.5142310000000  0.4434860000000 1.0
C      1  0.4665550000000  0.5741470000000  0.5193770000000 1.0
C      1  0.4977950000000  0.5222260000000  0.5179250000000 1.0
C      1  0.4652210000000  0.4387100000000  0.5559480000000 1.0
C      1  0.5239460000000  0.4326280000000  0.5332370000000 1.0
C      1  0.5294140000000  0.4744590000000  0.5171310000000 1.0
C      1  0.5874930000000  0.5274280000000  0.4844970000000 1.0
C      1  0.4640940000000  0.5467770000000  0.4243440000000 1.0
C      1  0.5703140000000  0.4746520000000  0.4580050000000 1.0
C      1  0.5531880000000  0.5442580000000  0.4563440000000 1.0
C      1  0.5356210000000  0.5292830000000  0.5660490000000 1.0
C      1  0.4617990000000  0.5008770000000  0.5004140000000 1.0
C      1  0.4339940000000  0.4861280000000  0.4492810000000 1.0
C      1  0.5375470000000  0.4864070000000  0.4133940000000 1.0
C      1  0.4628140000000  0.5305030000000  0.5633910000000 1.0
C      1  0.5023730000000  0.4751780000000  0.5075100000000 1.0
C      1  0.5482630000000  0.4889360000000  0.4994360000000 1.0
C      1  0.5001770000000  0.5618700000000  0.5602390000000 1.0
C      1  0.5020140000000  0.5791560000000  0.4907590000000 1.0
C      1  0.4710230000000  0.4229500000000  0.4887200000000 1.0
C      1  0.4427690000000  0.5575530000000  0.5225000000000 1.0
C      1  0.5373800000000  0.4607430000000  0.4223490000000 1.0
C      1  0.5145300000000  0.5542010000000  0.4792840000000 1.0
C      1  0.4946920000000  0.5093090000000  0.4527730000000 1.0
C      1  0.5324860000000  0.5346840000000  0.4403170000000 1.0
C      1  0.5067280000000  0.4891170000000  0.5828020000000 1.0
C      1  0.4803040000000  0.4699300000000  0.4705460000000 1.0
C      1  0.5672930000000  0.4701120000000  0.4864150000000 1.0
C      1  0.5035020000000  0.5072890000000  0.5440180000000 1.0
C      1  0.4247050000000  0.5323130000000  0.4631160000000 1.0
C      1  0.5164930000000  0.4439970000000  0.5583870000000 1.0
C      1  0.5528430000000  0.5096420000000  0.5506440000000 1.0
C      1  0.5524170000000  0.4810880000000  0.5579780000000 1.0
C      1  0.4727540000000  0.4531490000000  0.5795880000000 1.0
C      1  0.5017250000000  0.4586750000000  0.4834900000000 1.0
C      1  0.5192810000000  0.4670940000000  0.4616380000000 1.0
C      1  0.4349530000000  0.5062390000000  0.5417760000000 1.0
END
