TITL C-66144-5833-11 0.00258691696898928 125000 -135.370799437334 0 0 21 (C1) n - 1
REM
REM in /rds/project/t2_vol4/rds-t2-cs072/BORA/CARBON/from-Arr/AIRSS/Generating-Clusters/GAP-ML-2020/Only-C1/SD-CG/HFTN-CG
REM
REM
REM
REM
REM
REM ./C.cell (11c1c37f851c82e70ff6c80c92926a4b)
REM AIRSS Version 0.9.1 bugfix July 2018 build 013d7b7c2542+ Fri, 06 Jul 2018 19:26:36 +0100
REM compiler GCC version 9.3.0
REM options -cpp -mtune=generic -march=x86-64 -g -O0
REM seed 287422137 -1404327823 -246596515 232344405 -791190028 169682778 1015702863 1299922040 69490210 252856404 1392170446 1367661816 -2070330204 -1395303869 1042836904 418120453 -1431875781 -1187425993 124676651 -2073184676 -1017779842 1847193731 577455016 -444938390 141459847 -135597900 -600353989 -896381077 -109180707 752108270 -486340597 1118448587 1668071608
REM
CELL 1.54180   50.00000   50.00000   50.00000   90.00000   90.00000   90.00000
LATT -1
SFAC C  
C      1  0.5223270000000  0.4825800000000  0.4665210000000 1.0
C      1  0.4574550000000  0.4958550000000  0.5009430000000 1.0
C      1  0.5568800000000  0.5045460000000  0.5041360000000 1.0
C      1  0.4855850000000  0.5225500000000  0.4726820000000 1.0
C      1  0.5127230000000  0.4511950000000  0.5188300000000 1.0
C      1  0.4717680000000  0.4528190000000  0.5126100000000 1.0
C      1  0.4567480000000  0.5402900000000  0.5337110000000 1.0
C      1  0.4890260000000  0.4436420000000  0.5338720000000 1.0
C      1  0.5478320000000  0.4859350000000  0.5194240000000 1.0
C      1  0.4506470000000  0.5199840000000  0.5122020000000 1.0
C      1  0.4985700000000  0.5423110000000  0.4793580000000 1.0
C      1  0.4778170000000  0.4976130000000  0.4807770000000 1.0
C      1  0.4505410000000  0.5466370000000  0.5066900000000 1.0
C      1  0.5624100000000  0.5121340000000  0.4789590000000 1.0
C      1  0.4955640000000  0.4545940000000  0.4951590000000 1.0
C      1  0.5122230000000  0.5610420000000  0.4915770000000 1.0
C      1  0.4517570000000  0.4711480000000  0.5123880000000 1.0
C      1  0.5260960000000  0.5745410000000  0.5079210000000 1.0
C      1  0.5413930000000  0.4989460000000  0.4674650000000 1.0
C      1  0.4975660000000  0.4770010000000  0.4784780000000 1.0
C      1  0.5350720000000  0.4646380000000  0.5263000000000 1.0
END
