TITL C-66137-5893-7 0.0571422790661046 125000 -356.96513736579 0 0 53 (C1) n - 1
REM
REM in /rds/project/t2_vol4/rds-t2-cs072/BORA/CARBON/from-Arr/AIRSS/Generating-Clusters/GAP-ML-2020/Only-C1/SD-CG/HFTN-CG
REM
REM
REM
REM
REM
REM ./C.cell (11c1c37f851c82e70ff6c80c92926a4b)
REM AIRSS Version 0.9.1 bugfix July 2018 build 013d7b7c2542+ Fri, 06 Jul 2018 19:26:36 +0100
REM compiler GCC version 9.3.0
REM options -cpp -mtune=generic -march=x86-64 -g -O0
REM seed 945389002 -1618500994 -1964170059 2145420823 -1725344121 -1078303577 -788155765 -2038168227 1159868274 689216517 -1660267107 1164027591 -1552308390 1175220931 190485909 683488441 677289598 -261173772 1121590559 185650359 332801707 1556118085 1721090922 1884444642 1971803542 1697024853 -800292654 -643909357 -1046070182 1733725670 -333727682 -1634407070 183074849
REM
CELL 1.54180   50.00000   50.00000   50.00000   90.00000   90.00000   90.00000
LATT -1
SFAC C  
C      1  0.4996130000000  0.4764790000000  0.5495790000000 1.0
C      1  0.4591250000000  0.5293130000000  0.5301560000000 1.0
C      1  0.4569580000000  0.5241410000000  0.4566990000000 1.0
C      1  0.5502810000000  0.4514030000000  0.4703740000000 1.0
C      1  0.4794860000000  0.4363950000000  0.5300690000000 1.0
C      1  0.4739430000000  0.5573630000000  0.5289260000000 1.0
C      1  0.4327140000000  0.5183920000000  0.5218710000000 1.0
C      1  0.4593900000000  0.5340180000000  0.4857280000000 1.0
C      1  0.4386830000000  0.4889580000000  0.5206190000000 1.0
C      1  0.5168460000000  0.5032110000000  0.4979590000000 1.0
C      1  0.5495530000000  0.4612010000000  0.4971620000000 1.0
C      1  0.4553960000000  0.4404790000000  0.5154720000000 1.0
C      1  0.4986610000000  0.5033770000000  0.4465780000000 1.0
C      1  0.5224460000000  0.5208150000000  0.5555960000000 1.0
C      1  0.4697690000000  0.4724330000000  0.4571780000000 1.0
C      1  0.5127620000000  0.4770900000000  0.4559870000000 1.0
C      1  0.4283350000000  0.5250110000000  0.4679910000000 1.0
C      1  0.5561510000000  0.5257370000000  0.5213770000000 1.0
C      1  0.4874650000000  0.5496060000000  0.5526120000000 1.0
C      1  0.4763820000000  0.4611730000000  0.5443990000000 1.0
C      1  0.5425040000000  0.4749060000000  0.4541600000000 1.0
C      1  0.5373940000000  0.4272610000000  0.4720610000000 1.0
C      1  0.5222700000000  0.5597580000000  0.5238810000000 1.0
C      1  0.5229810000000  0.4679140000000  0.5346340000000 1.0
C      1  0.4960420000000  0.5662870000000  0.5107320000000 1.0
C      1  0.5214930000000  0.4566190000000  0.5056990000000 1.0
C      1  0.5451430000000  0.5109610000000  0.5431850000000 1.0
C      1  0.4744410000000  0.4722010000000  0.4872450000000 1.0
C      1  0.4991590000000  0.5640340000000  0.4838900000000 1.0
C      1  0.4609410000000  0.4907020000000  0.5030710000000 1.0
C      1  0.5432710000000  0.5479230000000  0.5090510000000 1.0
C      1  0.4710190000000  0.4987650000000  0.4475550000000 1.0
C      1  0.4705080000000  0.4436450000000  0.4926000000000 1.0
C      1  0.4728980000000  0.5172770000000  0.5055320000000 1.0
C      1  0.5011200000000  0.5191780000000  0.5110280000000 1.0
C      1  0.5007340000000  0.5327950000000  0.4487780000000 1.0
C      1  0.5577710000000  0.5179920000000  0.4753660000000 1.0
C      1  0.4909650000000  0.4347110000000  0.4747950000000 1.0
C      1  0.5611520000000  0.4816750000000  0.5109370000000 1.0
C      1  0.5154370000000  0.4312310000000  0.4881330000000 1.0
C      1  0.5652040000000  0.5080320000000  0.5016380000000 1.0
C      1  0.4745700000000  0.5422630000000  0.4414940000000 1.0
C      1  0.4765810000000  0.5233600000000  0.5544270000000 1.0
C      1  0.5416500000000  0.5422840000000  0.4805490000000 1.0
C      1  0.5152900000000  0.5480570000000  0.5491540000000 1.0
C      1  0.4984400000000  0.5043810000000  0.5573750000000 1.0
C      1  0.4495840000000  0.4659520000000  0.5317770000000 1.0
C      1  0.5555610000000  0.4986230000000  0.4564810000000 1.0
C      1  0.5162970000000  0.5491270000000  0.4679400000000 1.0
C      1  0.5062220000000  0.4779390000000  0.4882400000000 1.0
C      1  0.4924250000000  0.4553380000000  0.4520330000000 1.0
C      1  0.5462660000000  0.4834340000000  0.5358030000000 1.0
C      1  0.4307100000000  0.5287830000000  0.4944240000000 1.0
END
