TITL C-66157-5959-7 0.0237351557830913 125000 -545.958989394297 0 0 79 (C1) n - 1
REM
REM in /rds/project/t2_vol4/rds-t2-cs072/BORA/CARBON/from-Arr/AIRSS/Generating-Clusters/GAP-ML-2020/Only-C1/SD-CG/HFTN-CG
REM
REM
REM
REM
REM
REM ./C.cell (11c1c37f851c82e70ff6c80c92926a4b)
REM AIRSS Version 0.9.1 bugfix July 2018 build 013d7b7c2542+ Fri, 06 Jul 2018 19:26:36 +0100
REM compiler GCC version 9.3.0
REM options -cpp -mtune=generic -march=x86-64 -g -O0
REM seed 1935088393 1556987799 1649834399 -2119177041 -1095691066 -1139824694 656407590 -888330330 -2112400906 -532923962 1368615119 747191766 986250302 -1919545064 -556650366 -1465527815 2132001448 870653042 1004283434 968799677 1647046807 452343313 2003411674 -492861962 1211477906 1874114513 -1817972160 -675040931 578853477 -684948433 -322686768 382735957 1962523442
REM
CELL 1.54180   50.00000   50.00000   50.00000   90.00000   90.00000   90.00000
LATT -1
SFAC C  
C      1  0.5247520000000  0.4423640000000  0.4890090000000 1.0
C      1  0.5194630000000  0.4799030000000  0.5253200000000 1.0
C      1  0.5131490000000  0.5745990000000  0.4838690000000 1.0
C      1  0.4517240000000  0.5421660000000  0.4566000000000 1.0
C      1  0.4969020000000  0.5249810000000  0.5217030000000 1.0
C      1  0.5550650000000  0.4449490000000  0.4882870000000 1.0
C      1  0.4447590000000  0.5512530000000  0.5396250000000 1.0
C      1  0.4301690000000  0.5294730000000  0.4985880000000 1.0
C      1  0.5274450000000  0.4900180000000  0.4763150000000 1.0
C      1  0.4664220000000  0.4546050000000  0.4578290000000 1.0
C      1  0.4849840000000  0.4703540000000  0.4772000000000 1.0
C      1  0.4779740000000  0.5330850000000  0.5008300000000 1.0
C      1  0.5300190000000  0.5662460000000  0.5315910000000 1.0
C      1  0.5642560000000  0.4709060000000  0.5468850000000 1.0
C      1  0.5097510000000  0.4623860000000  0.4405180000000 1.0
C      1  0.4332600000000  0.4962970000000  0.4601450000000 1.0
C      1  0.4447120000000  0.5490550000000  0.4829060000000 1.0
C      1  0.5403010000000  0.5707590000000  0.4774820000000 1.0
C      1  0.5321280000000  0.4367710000000  0.5429560000000 1.0
C      1  0.5092510000000  0.4859490000000  0.4236050000000 1.0
C      1  0.5087820000000  0.5752990000000  0.5126240000000 1.0
C      1  0.4808810000000  0.5735760000000  0.5174900000000 1.0
C      1  0.4653720000000  0.5146310000000  0.4238710000000 1.0
C      1  0.4785750000000  0.4322040000000  0.4756290000000 1.0
C      1  0.4280240000000  0.4587170000000  0.4872570000000 1.0
C      1  0.4876050000000  0.4968940000000  0.5732070000000 1.0
C      1  0.4414810000000  0.4550680000000  0.5303850000000 1.0
C      1  0.4701220000000  0.5608360000000  0.5412860000000 1.0
C      1  0.5740280000000  0.5057070000000  0.4804320000000 1.0
C      1  0.4832610000000  0.5124210000000  0.4811800000000 1.0
C      1  0.5266790000000  0.4418480000000  0.5692050000000 1.0
C      1  0.5674640000000  0.4510250000000  0.5129830000000 1.0
C      1  0.4851200000000  0.4421710000000  0.5233860000000 1.0
C      1  0.5052940000000  0.4264960000000  0.4747810000000 1.0
C      1  0.4892740000000  0.5296370000000  0.4318300000000 1.0
C      1  0.4820130000000  0.4569040000000  0.4333490000000 1.0
C      1  0.5393150000000  0.4852910000000  0.5521330000000 1.0
C      1  0.5755880000000  0.4783020000000  0.5217000000000 1.0
C      1  0.5590120000000  0.4436660000000  0.5390550000000 1.0
C      1  0.4791340000000  0.4892920000000  0.4967990000000 1.0
C      1  0.5117720000000  0.5175360000000  0.4786180000000 1.0
C      1  0.4272960000000  0.4800320000000  0.5284410000000 1.0
C      1  0.4880760000000  0.5675790000000  0.4707220000000 1.0
C      1  0.4918780000000  0.4943970000000  0.5242210000000 1.0
C      1  0.5306090000000  0.5132490000000  0.4564420000000 1.0
C      1  0.5347090000000  0.4957730000000  0.5049340000000 1.0
C      1  0.5650450000000  0.5027500000000  0.5097940000000 1.0
C      1  0.4816390000000  0.4795360000000  0.4152990000000 1.0
C      1  0.5144950000000  0.4480990000000  0.5197100000000 1.0
C      1  0.5035660000000  0.4802010000000  0.5881850000000 1.0
C      1  0.4692460000000  0.5631360000000  0.4927480000000 1.0
C      1  0.5797720000000  0.4808810000000  0.4695360000000 1.0
C      1  0.4389660000000  0.4669700000000  0.4623970000000 1.0
C      1  0.5135410000000  0.5125990000000  0.4322770000000 1.0
C      1  0.5129940000000  0.4661560000000  0.4699420000000 1.0
C      1  0.4419300000000  0.4413940000000  0.5054060000000 1.0
C      1  0.5741890000000  0.4557750000000  0.4689330000000 1.0
C      1  0.5462500000000  0.5141220000000  0.5535580000000 1.0
C      1  0.5543580000000  0.5525750000000  0.5229250000000 1.0
C      1  0.4673500000000  0.4581410000000  0.5405460000000 1.0
C      1  0.4792560000000  0.5504750000000  0.4494150000000 1.0
C      1  0.4994990000000  0.5222870000000  0.5703830000000 1.0
C      1  0.4682950000000  0.4314080000000  0.5020960000000 1.0
C      1  0.5211690000000  0.5227440000000  0.5053220000000 1.0
C      1  0.5602420000000  0.5252100000000  0.5310490000000 1.0
C      1  0.4923410000000  0.5428130000000  0.5495120000000 1.0
C      1  0.5276600000000  0.5304930000000  0.5670590000000 1.0
C      1  0.4183370000000  0.4818460000000  0.5016560000000 1.0
C      1  0.5591910000000  0.5614380000000  0.4967130000000 1.0
C      1  0.4450570000000  0.5173770000000  0.4443660000000 1.0
C      1  0.4364720000000  0.5277620000000  0.5279150000000 1.0
C      1  0.4651400000000  0.4965090000000  0.4027260000000 1.0
C      1  0.4226280000000  0.5053120000000  0.4857820000000 1.0
C      1  0.5588800000000  0.5507700000000  0.4707730000000 1.0
C      1  0.5250550000000  0.4688510000000  0.5753770000000 1.0
C      1  0.4708220000000  0.4881660000000  0.5475210000000 1.0
C      1  0.5187990000000  0.5549640000000  0.5539390000000 1.0
C      1  0.5571400000000  0.5237270000000  0.4645590000000 1.0
C      1  0.4428250000000  0.5008410000000  0.5393610000000 1.0
END
