TITL C-66161-5791-2 -216.918705827976 125000 -701.02569876222 0 0 100 (C1) n - 1
REM
REM in /rds/project/t2_vol4/rds-t2-cs072/BORA/CARBON/from-Arr/AIRSS/Generating-Clusters/GAP-ML-2020/Only-C1/SD-CG/HFTN-CG
REM
REM
REM
REM
REM
REM ./C.cell (11c1c37f851c82e70ff6c80c92926a4b)
REM AIRSS Version 0.9.1 bugfix July 2018 build 013d7b7c2542+ Fri, 06 Jul 2018 19:26:36 +0100
REM compiler GCC version 9.3.0
REM options -cpp -mtune=generic -march=x86-64 -g -O0
REM seed -2073831142 1093663617 1761549302 -1655641235 -832910553 -916757183 505962234 -1879948025 399288383 1728950472 303197576 -886907350 183237509 707333294 -1694054650 -900902839 -1707617447 435293672 -1630226213 -1160288280 -195650249 -1831253121 -557977203 63874309 -1361176518 607162043 -755603460 -605074102 -1058402321 -1558318451 925158118 867506419 -374443993
REM
CELL 1.54180   50.00000   50.00000   50.00000   90.00000   90.00000   90.00000
LATT -1
SFAC C  
C      1  0.4338700000000  0.4672460000000  0.5207850000000 1.0
C      1  0.4738000000000  0.4995450000000  0.4270670000000 1.0
C      1  0.4497070000000  0.4789370000000  0.5408770000000 1.0
C      1  0.4720890000000  0.5797510000000  0.4944980000000 1.0
C      1  0.5062050000000  0.4832270000000  0.5831030000000 1.0
C      1  0.5687310000000  0.4710100000000  0.4568900000000 1.0
C      1  0.4952130000000  0.4406920000000  0.5629150000000 1.0
C      1  0.4922880000000  0.4590240000000  0.5170600000000 1.0
C      1  0.4464270000000  0.4611880000000  0.4403550000000 1.0
C      1  0.5214810000000  0.4505060000000  0.5547550000000 1.0
C      1  0.4954620000000  0.5710820000000  0.4543570000000 1.0
C      1  0.5593020000000  0.5446780000000  0.4561740000000 1.0
C      1  0.4303270000000  0.5507270000000  0.4772000000000 1.0
C      1  0.5294140000000  0.5320910000000  0.5146310000000 1.0
C      1  0.4677010000000  0.4702470000000  0.4250490000000 1.0
C      1  0.4825170000000  0.4187130000000  0.4885850000000 1.0
C      1  0.4997120000000  0.5561580000000  0.5778120000000 1.0
C      1  0.5507750000000  0.5673130000000  0.4725390000000 1.0
C      1  0.5359640000000  0.5320170000000  0.5666560000000 1.0
C      1  0.4484630000000  0.5622170000000  0.4586310000000 1.0
C      1  0.5210060000000  0.5056410000000  0.4810430000000 1.0
C      1  0.5486430000000  0.4994690000000  0.4279040000000 1.0
C      1  0.4725120000000  0.5110420000000  0.6003460000000 1.0
C      1  0.5835640000000  0.5361940000000  0.5142160000000 1.0
C      1  0.5754750000000  0.5219720000000  0.4631240000000 1.0
C      1  0.4335500000000  0.5555060000000  0.5059060000000 1.0
C      1  0.4919790000000  0.5216620000000  0.5462010000000 1.0
C      1  0.5116120000000  0.4752260000000  0.4178130000000 1.0
C      1  0.4259510000000  0.5311530000000  0.5195400000000 1.0
C      1  0.5007060000000  0.5102350000000  0.5982200000000 1.0
C      1  0.4668080000000  0.5378000000000  0.5469330000000 1.0
C      1  0.4923930000000  0.4561230000000  0.4259030000000 1.0
C      1  0.5533880000000  0.4870220000000  0.5624740000000 1.0
C      1  0.5282710000000  0.4226720000000  0.4818560000000 1.0
C      1  0.5208650000000  0.4531270000000  0.5256230000000 1.0
C      1  0.4774280000000  0.4275410000000  0.4621060000000 1.0
C      1  0.4929920000000  0.3959600000000  0.5374110000000 1.0
C      1  0.5382050000000  0.4727160000000  0.4245690000000 1.0
C      1  0.5031540000000  0.5024150000000  0.4194870000000 1.0
C      1  0.5781950000000  0.5629730000000  0.5116150000000 1.0
C      1  0.4834170000000  0.4217430000000  0.5422470000000 1.0
C      1  0.5202260000000  0.4777600000000  0.4779050000000 1.0
C      1  0.4733310000000  0.4340260000000  0.5147660000000 1.0
C      1  0.4869510000000  0.5485370000000  0.4405590000000 1.0
C      1  0.5382750000000  0.4779110000000  0.5198490000000 1.0
C      1  0.5219630000000  0.5697870000000  0.5400250000000 1.0
C      1  0.4705380000000  0.5790950000000  0.4672980000000 1.0
C      1  0.5464270000000  0.4650400000000  0.4942160000000 1.0
C      1  0.5587990000000  0.5156340000000  0.5608890000000 1.0
C      1  0.5313510000000  0.5774950000000  0.5144090000000 1.0
C      1  0.4995880000000  0.4357520000000  0.4445900000000 1.0
C      1  0.5342470000000  0.5423970000000  0.4424410000000 1.0
C      1  0.4800790000000  0.5329000000000  0.4882920000000 1.0
C      1  0.4971450000000  0.5707360000000  0.5528400000000 1.0
C      1  0.4742860000000  0.4871750000000  0.4802630000000 1.0
C      1  0.5073000000000  0.4052010000000  0.4926880000000 1.0
C      1  0.4743440000000  0.5621850000000  0.5342140000000 1.0
C      1  0.4168700000000  0.5118750000000  0.4993480000000 1.0
C      1  0.4885000000000  0.5562380000000  0.5041350000000 1.0
C      1  0.4299490000000  0.5080310000000  0.4501510000000 1.0
C      1  0.4881850000000  0.4582210000000  0.5823140000000 1.0
C      1  0.5727480000000  0.4709010000000  0.4846370000000 1.0
C      1  0.4207730000000  0.4684740000000  0.4772590000000 1.0
C      1  0.4923620000000  0.5042820000000  0.5217590000000 1.0
C      1  0.4362460000000  0.4442730000000  0.4815870000000 1.0
C      1  0.4946530000000  0.4698500000000  0.4888730000000 1.0
C      1  0.4734970000000  0.5088160000000  0.5001240000000 1.0
C      1  0.5217960000000  0.5630530000000  0.4661260000000 1.0
C      1  0.4411870000000  0.5248090000000  0.5433050000000 1.0
C      1  0.5219170000000  0.5049920000000  0.5105770000000 1.0
C      1  0.4532180000000  0.5738200000000  0.5152510000000 1.0
C      1  0.5371670000000  0.4391210000000  0.5025080000000 1.0
C      1  0.5825350000000  0.4927000000000  0.5271460000000 1.0
C      1  0.4518830000000  0.4392840000000  0.4583330000000 1.0
C      1  0.5564120000000  0.5752610000000  0.5009650000000 1.0
C      1  0.4420840000000  0.5006580000000  0.5578840000000 1.0
C      1  0.4872910000000  0.4949910000000  0.5620670000000 1.0
C      1  0.5061990000000  0.3898910000000  0.5157700000000 1.0
C      1  0.4968540000000  0.5229730000000  0.4663760000000 1.0
C      1  0.4212630000000  0.5236740000000  0.4731440000000 1.0
C      1  0.5145760000000  0.5345950000000  0.5870970000000 1.0
C      1  0.5170150000000  0.5573790000000  0.4976130000000 1.0
C      1  0.5273830000000  0.5188050000000  0.4272820000000 1.0
C      1  0.4513730000000  0.5184280000000  0.4338400000000 1.0
C      1  0.4453750000000  0.4437780000000  0.5084110000000 1.0
C      1  0.4820320000000  0.5010600000000  0.4558430000000 1.0
C      1  0.5271910000000  0.4345260000000  0.4546630000000 1.0
C      1  0.4588810000000  0.5448880000000  0.4388370000000 1.0
C      1  0.5216310000000  0.5394460000000  0.5420680000000 1.0
C      1  0.4180860000000  0.4830890000000  0.5013190000000 1.0
C      1  0.5857210000000  0.4918640000000  0.4989810000000 1.0
C      1  0.4796570000000  0.4802050000000  0.5362630000000 1.0
C      1  0.5852840000000  0.5185170000000  0.4901330000000 1.0
C      1  0.4619940000000  0.5004700000000  0.5780730000000 1.0
C      1  0.5304880000000  0.4725690000000  0.5707170000000 1.0
C      1  0.5786950000000  0.5185470000000  0.5379450000000 1.0
C      1  0.5621300000000  0.4769680000000  0.5377570000000 1.0
C      1  0.4277800000000  0.4797270000000  0.4523470000000 1.0
C      1  0.5695830000000  0.4984220000000  0.4470730000000 1.0
C      1  0.5471240000000  0.4543380000000  0.4443800000000 1.0
END
