TITL C-66156-5797-8 0.00802654386189833 125000 -448.037525657931 0 0 65 (C1) n - 1
REM
REM in /rds/project/t2_vol4/rds-t2-cs072/BORA/CARBON/from-Arr/AIRSS/Generating-Clusters/GAP-ML-2020/Only-C1/SD-CG/HFTN-CG
REM
REM
REM
REM
REM
REM ./C.cell (11c1c37f851c82e70ff6c80c92926a4b)
REM AIRSS Version 0.9.1 bugfix July 2018 build 013d7b7c2542+ Fri, 06 Jul 2018 19:26:36 +0100
REM compiler GCC version 9.3.0
REM options -cpp -mtune=generic -march=x86-64 -g -O0
REM seed 1882260872 318723814 1340702170 452996086 -1228399886 -1571493598 -665138440 2000073852 -173491346 2018553521 1917926564 276400124 -430686522 611074344 360626000 -220960427 -684828599 1974331979 -1042521499 1458876507 -1818280232 -53876352 -321349047 836804996 -775315414 751802726 148967844 193513779 930340819 2047367178 -2094882184 -1740714370 1126131362
REM
CELL 1.54180   50.00000   50.00000   50.00000   90.00000   90.00000   90.00000
LATT -1
SFAC C  
C      1  0.4863100000000  0.4573090000000  0.4444290000000 1.0
C      1  0.4955750000000  0.4480710000000  0.5473340000000 1.0
C      1  0.5053490000000  0.4771710000000  0.4878130000000 1.0
C      1  0.5293790000000  0.4877180000000  0.4396660000000 1.0
C      1  0.4824990000000  0.4356420000000  0.4997000000000 1.0
C      1  0.4876370000000  0.4865240000000  0.5099490000000 1.0
C      1  0.5179660000000  0.5174280000000  0.4989720000000 1.0
C      1  0.5487260000000  0.4745060000000  0.4549840000000 1.0
C      1  0.4849240000000  0.4707440000000  0.5615620000000 1.0
C      1  0.4255500000000  0.5004060000000  0.5262340000000 1.0
C      1  0.5642120000000  0.5046270000000  0.5407360000000 1.0
C      1  0.5079710000000  0.4442170000000  0.4849970000000 1.0
C      1  0.5028380000000  0.5634710000000  0.4922070000000 1.0
C      1  0.5375240000000  0.5637330000000  0.5208830000000 1.0
C      1  0.5113020000000  0.5296440000000  0.4279970000000 1.0
C      1  0.5054090000000  0.5174980000000  0.5703120000000 1.0
C      1  0.4581650000000  0.4748410000000  0.5510970000000 1.0
C      1  0.4926320000000  0.5578520000000  0.5200100000000 1.0
C      1  0.4774970000000  0.4393550000000  0.5275990000000 1.0
C      1  0.5016600000000  0.5210290000000  0.4750890000000 1.0
C      1  0.4634670000000  0.4599750000000  0.4626730000000 1.0
C      1  0.4632530000000  0.5241640000000  0.5491520000000 1.0
C      1  0.5239590000000  0.5358390000000  0.5568290000000 1.0
C      1  0.5342070000000  0.5167100000000  0.4388370000000 1.0
C      1  0.5069510000000  0.4875230000000  0.5698830000000 1.0
C      1  0.5364100000000  0.4397910000000  0.5221890000000 1.0
C      1  0.5628910000000  0.4872790000000  0.4919530000000 1.0
C      1  0.4602370000000  0.5412390000000  0.4761540000000 1.0
C      1  0.4397140000000  0.4572670000000  0.5069220000000 1.0
C      1  0.4883100000000  0.5484750000000  0.4708310000000 1.0
C      1  0.4919960000000  0.4951890000000  0.4656010000000 1.0
C      1  0.4978660000000  0.5117110000000  0.5184480000000 1.0
C      1  0.5540900000000  0.5431060000000  0.4808650000000 1.0
C      1  0.4913760000000  0.5468060000000  0.4407150000000 1.0
C      1  0.5561870000000  0.4840200000000  0.5563510000000 1.0
C      1  0.4633820000000  0.4960060000000  0.4982350000000 1.0
C      1  0.5588360000000  0.5473750000000  0.5270980000000 1.0
C      1  0.4204710000000  0.5022250000000  0.4845290000000 1.0
C      1  0.4899360000000  0.5091490000000  0.4241930000000 1.0
C      1  0.4591240000000  0.4459640000000  0.4866600000000 1.0
C      1  0.4457790000000  0.5003050000000  0.5459290000000 1.0
C      1  0.4231170000000  0.4803450000000  0.5047310000000 1.0
C      1  0.4618160000000  0.4886420000000  0.4691650000000 1.0
C      1  0.4548560000000  0.5286270000000  0.5014940000000 1.0
C      1  0.5045300000000  0.4420020000000  0.4568470000000 1.0
C      1  0.4699160000000  0.5280370000000  0.4335100000000 1.0
C      1  0.4263960000000  0.5211140000000  0.5054170000000 1.0
C      1  0.4532650000000  0.4538370000000  0.5319670000000 1.0
C      1  0.5152190000000  0.5567570000000  0.5378370000000 1.0
C      1  0.4997590000000  0.4844130000000  0.4381660000000 1.0
C      1  0.4737300000000  0.5353130000000  0.5231870000000 1.0
C      1  0.5301130000000  0.4919020000000  0.4947480000000 1.0
C      1  0.4500960000000  0.5272250000000  0.4535240000000 1.0
C      1  0.5238010000000  0.4500110000000  0.5441460000000 1.0
C      1  0.5544440000000  0.5238480000000  0.4587210000000 1.0
C      1  0.5515730000000  0.5299280000000  0.5483710000000 1.0
C      1  0.5364490000000  0.4421800000000  0.4954030000000 1.0
C      1  0.4794650000000  0.5268290000000  0.5705720000000 1.0
C      1  0.5687660000000  0.5336680000000  0.5042020000000 1.0
C      1  0.5322330000000  0.5616210000000  0.4929520000000 1.0
C      1  0.5311700000000  0.4738990000000  0.5599690000000 1.0
C      1  0.5532310000000  0.4604530000000  0.4805090000000 1.0
C      1  0.4368130000000  0.5035170000000  0.4620240000000 1.0
C      1  0.5727550000000  0.5060160000000  0.5122240000000 1.0
C      1  0.5649180000000  0.4979140000000  0.4646970000000 1.0
END
