TITL C-66715-9796-8 64.193292069646 125000 -518.739162512052 0 0 75 (C1) n - 1
REM
REM in /rds/project/t2_vol4/rds-t2-cs072/BORA/CARBON/from-Arr/AIRSS/Generating-Clusters/GAP-ML-2020/Only-C1/SD-CG/HFTN-CG
REM
REM
REM
REM
REM
REM ./C.cell (11c1c37f851c82e70ff6c80c92926a4b)
REM AIRSS Version 0.9.1 bugfix July 2018 build 013d7b7c2542+ Fri, 06 Jul 2018 19:26:36 +0100
REM compiler GCC version 9.3.0
REM options -cpp -mtune=generic -march=x86-64 -g -O0
REM seed 1821145482 -922423841 -776794104 1012951499 1449662153 -1241922658 1646869236 -1709201335 -309768920 31060667 -1241911375 -374080162 -1034473799 1904896697 1463398556 -1583302805 -1451357985 -1251665440 -140795296 142996119 -1528945654 544520835 -2025935898 -1837283405 2099891872 -686737188 248854288 -867378466 -2106355483 -42590590 1590453558 1898040676 507280530
REM
CELL 1.54180   50.00000   50.00000   50.00000   90.00000   90.00000   90.00000
LATT -1
SFAC C  
C      1  0.5345930000000  0.5583390000000  0.4875410000000 1.0
C      1  0.4626550000000  0.5051050000000  0.4256430000000 1.0
C      1  0.4925620000000  0.4671640000000  0.4371220000000 1.0
C      1  0.4720440000000  0.4403310000000  0.4739290000000 1.0
C      1  0.5449980000000  0.4596300000000  0.5417230000000 1.0
C      1  0.5720430000000  0.4605570000000  0.4869870000000 1.0
C      1  0.4693290000000  0.4589770000000  0.4524630000000 1.0
C      1  0.5265210000000  0.4623410000000  0.5191170000000 1.0
C      1  0.4985940000000  0.4515510000000  0.5229320000000 1.0
C      1  0.5067390000000  0.4600530000000  0.5703240000000 1.0
C      1  0.4298580000000  0.4851570000000  0.5293250000000 1.0
C      1  0.5790650000000  0.4715840000000  0.5115580000000 1.0
C      1  0.5423630000000  0.5074210000000  0.4376810000000 1.0
C      1  0.4984000000000  0.5533500000000  0.5349830000000 1.0
C      1  0.4548220000000  0.4496200000000  0.4947270000000 1.0
C      1  0.5440640000000  0.5497610000000  0.4602750000000 1.0
C      1  0.4997920000000  0.5164080000000  0.4162510000000 1.0
C      1  0.4705210000000  0.4624690000000  0.5166080000000 1.0
C      1  0.5414150000000  0.4786480000000  0.4473390000000 1.0
C      1  0.4358880000000  0.4680880000000  0.4838840000000 1.0
C      1  0.5683040000000  0.4759480000000  0.5353990000000 1.0
C      1  0.4868030000000  0.4896500000000  0.4209750000000 1.0
C      1  0.4577610000000  0.5126260000000  0.5091910000000 1.0
C      1  0.5613660000000  0.5065700000000  0.4785120000000 1.0
C      1  0.4618520000000  0.4812590000000  0.5623830000000 1.0
C      1  0.4960970000000  0.5100730000000  0.5743550000000 1.0
C      1  0.5325420000000  0.4707030000000  0.5646470000000 1.0
C      1  0.4474130000000  0.4771930000000  0.4593550000000 1.0
C      1  0.5197210000000  0.4373270000000  0.4666070000000 1.0
C      1  0.5188660000000  0.4601200000000  0.4481420000000 1.0
C      1  0.4460140000000  0.5455990000000  0.5346420000000 1.0
C      1  0.4759260000000  0.5307680000000  0.4238060000000 1.0
C      1  0.4976150000000  0.5592930000000  0.4575780000000 1.0
C      1  0.5681670000000  0.4322990000000  0.4804210000000 1.0
C      1  0.4477010000000  0.5045690000000  0.4492120000000 1.0
C      1  0.4739050000000  0.5261290000000  0.5671030000000 1.0
C      1  0.5088820000000  0.5152340000000  0.4730270000000 1.0
C      1  0.5606040000000  0.4796760000000  0.4688800000000 1.0
C      1  0.4928010000000  0.4954660000000  0.4798690000000 1.0
C      1  0.4924410000000  0.5725670000000  0.5096550000000 1.0
C      1  0.4292630000000  0.5133960000000  0.4959880000000 1.0
C      1  0.5584780000000  0.5220690000000  0.5280490000000 1.0
C      1  0.5623880000000  0.5019850000000  0.5473710000000 1.0
C      1  0.4529490000000  0.5081680000000  0.5619810000000 1.0
C      1  0.4407070000000  0.5571740000000  0.5079730000000 1.0
C      1  0.5445670000000  0.4265200000000  0.4734940000000 1.0
C      1  0.4718930000000  0.5463840000000  0.4472140000000 1.0
C      1  0.5484250000000  0.5647010000000  0.5119630000000 1.0
C      1  0.5059800000000  0.5694170000000  0.4839940000000 1.0
C      1  0.4390920000000  0.5152440000000  0.5379330000000 1.0
C      1  0.4985240000000  0.4240100000000  0.5102780000000 1.0
C      1  0.4507990000000  0.4689180000000  0.5392730000000 1.0
C      1  0.5471330000000  0.5478510000000  0.5342240000000 1.0
C      1  0.5232150000000  0.5299520000000  0.4948880000000 1.0
C      1  0.4992900000000  0.4388140000000  0.5513160000000 1.0
C      1  0.5551240000000  0.5236910000000  0.4570900000000 1.0
C      1  0.4963990000000  0.4281850000000  0.4817090000000 1.0
C      1  0.4779820000000  0.4912160000000  0.5059160000000 1.0
C      1  0.4882660000000  0.4814300000000  0.5735630000000 1.0
C      1  0.4983800000000  0.4153940000000  0.5366090000000 1.0
C      1  0.5011970000000  0.5302130000000  0.5145040000000 1.0
C      1  0.4226500000000  0.4862120000000  0.5017920000000 1.0
C      1  0.4722840000000  0.5476810000000  0.5488430000000 1.0
C      1  0.5219720000000  0.5508630000000  0.4430470000000 1.0
C      1  0.5230250000000  0.5259200000000  0.4268900000000 1.0
C      1  0.5008850000000  0.5013440000000  0.5203500000000 1.0
C      1  0.5455600000000  0.5107940000000  0.5030260000000 1.0
C      1  0.5234050000000  0.5449130000000  0.5512420000000 1.0
C      1  0.4668670000000  0.5631570000000  0.5023820000000 1.0
C      1  0.4482660000000  0.5328970000000  0.4605760000000 1.0
C      1  0.4316730000000  0.5389000000000  0.4850650000000 1.0
C      1  0.5250980000000  0.4890380000000  0.5120590000000 1.0
C      1  0.5406570000000  0.4988710000000  0.5657850000000 1.0
C      1  0.5214510000000  0.5206430000000  0.5676910000000 1.0
C      1  0.4751110000000  0.5344080000000  0.5017500000000 1.0
END
