TITL C-66717-9894-3 0.00814222215792777 125000 -357.32924645582 0 0 53 (C1) n - 1
REM
REM in /rds/project/t2_vol4/rds-t2-cs072/BORA/CARBON/from-Arr/AIRSS/Generating-Clusters/GAP-ML-2020/Only-C1/SD-CG/HFTN-CG
REM
REM
REM
REM
REM
REM ./C.cell (11c1c37f851c82e70ff6c80c92926a4b)
REM AIRSS Version 0.9.1 bugfix July 2018 build 013d7b7c2542+ Fri, 06 Jul 2018 19:26:36 +0100
REM compiler GCC version 9.3.0
REM options -cpp -mtune=generic -march=x86-64 -g -O0
REM seed -1399036321 1330442366 -1473365187 -246123192 1028517791 1418213233 681979179 -789483483 -347594191 17895269 293660064 -685913218 1477415697 1645667785 162320875 327185436 -822050575 -1761588322 144443494 -1634422564 925656390 1270178613 1899932941 -1809660305 -955659933 901378074 1993307164 16556856 1119121130 -1656399048 -91557462 852396325 -629271390
REM
CELL 1.54180   50.00000   50.00000   50.00000   90.00000   90.00000   90.00000
LATT -1
SFAC C  
C      1  0.5189240000000  0.4489460000000  0.5199860000000 1.0
C      1  0.4865740000000  0.4541610000000  0.5666820000000 1.0
C      1  0.4877140000000  0.4494020000000  0.4826570000000 1.0
C      1  0.4665630000000  0.5525750000000  0.4832750000000 1.0
C      1  0.5555960000000  0.4370440000000  0.4893520000000 1.0
C      1  0.4834250000000  0.5288670000000  0.5330090000000 1.0
C      1  0.5453530000000  0.4506190000000  0.5111450000000 1.0
C      1  0.4550610000000  0.5294400000000  0.5246310000000 1.0
C      1  0.5189570000000  0.4870080000000  0.5558160000000 1.0
C      1  0.4465990000000  0.4745650000000  0.4661630000000 1.0
C      1  0.4721210000000  0.4567550000000  0.5438920000000 1.0
C      1  0.4635180000000  0.5082420000000  0.5391340000000 1.0
C      1  0.4455840000000  0.5206200000000  0.4556840000000 1.0
C      1  0.5116130000000  0.5384920000000  0.5658140000000 1.0
C      1  0.4948020000000  0.4374530000000  0.5083010000000 1.0
C      1  0.5289530000000  0.4898850000000  0.4476070000000 1.0
C      1  0.5483420000000  0.4724490000000  0.4607770000000 1.0
C      1  0.4978120000000  0.4904400000000  0.5076490000000 1.0
C      1  0.4351350000000  0.5171020000000  0.4822440000000 1.0
C      1  0.4444190000000  0.4738500000000  0.5113410000000 1.0
C      1  0.5109810000000  0.5356910000000  0.4593440000000 1.0
C      1  0.5568410000000  0.5582880000000  0.5052200000000 1.0
C      1  0.4705910000000  0.4369720000000  0.5226560000000 1.0
C      1  0.4638220000000  0.5434120000000  0.4555000000000 1.0
C      1  0.4686780000000  0.4826350000000  0.5274350000000 1.0
C      1  0.5524020000000  0.5157430000000  0.4769340000000 1.0
C      1  0.4815820000000  0.4940530000000  0.4371080000000 1.0
C      1  0.5565720000000  0.5292970000000  0.5013260000000 1.0
C      1  0.5186070000000  0.4786610000000  0.5260800000000 1.0
C      1  0.4492820000000  0.4468100000000  0.5042370000000 1.0
C      1  0.4888010000000  0.5374680000000  0.4411800000000 1.0
C      1  0.5301380000000  0.5310190000000  0.5203640000000 1.0
C      1  0.4590280000000  0.4501650000000  0.4775060000000 1.0
C      1  0.5028820000000  0.5203210000000  0.5103140000000 1.0
C      1  0.5542980000000  0.4461450000000  0.4650780000000 1.0
C      1  0.5046620000000  0.5673550000000  0.5212830000000 1.0
C      1  0.5331530000000  0.5175160000000  0.4559880000000 1.0
C      1  0.4901770000000  0.5635840000000  0.4963850000000 1.0
C      1  0.5609320000000  0.5064490000000  0.5233310000000 1.0
C      1  0.5070260000000  0.4686750000000  0.5734160000000 1.0
C      1  0.4881120000000  0.5172120000000  0.4227880000000 1.0
C      1  0.4546470000000  0.4940920000000  0.4471960000000 1.0
C      1  0.5326000000000  0.5608540000000  0.5186140000000 1.0
C      1  0.4991740000000  0.4754680000000  0.4809640000000 1.0
C      1  0.5483640000000  0.4822280000000  0.5119390000000 1.0
C      1  0.5016310000000  0.5393140000000  0.4860660000000 1.0
C      1  0.4967580000000  0.5508520000000  0.5466780000000 1.0
C      1  0.5022300000000  0.4828240000000  0.4528360000000 1.0
C      1  0.5536420000000  0.4886860000000  0.4837350000000 1.0
C      1  0.5267070000000  0.5141970000000  0.5623850000000 1.0
C      1  0.4467700000000  0.5369100000000  0.4990620000000 1.0
C      1  0.5462870000000  0.5203530000000  0.5433820000000 1.0
C      1  0.4355580000000  0.4888380000000  0.4885110000000 1.0
END
