TITL C-66585-1442-1 151.608134904717 125000 -417.309893774381 0 0 61 (C1) n - 1
REM
REM in /rds/project/t2_vol4/rds-t2-cs072/BORA/CARBON/from-Arr/AIRSS/Generating-Clusters/GAP-ML-2020/Only-C1/SD-CG/HFTN-CG
REM
REM
REM
REM
REM
REM ./C.cell (11c1c37f851c82e70ff6c80c92926a4b)
REM AIRSS Version 0.9.1 bugfix July 2018 build 013d7b7c2542+ Fri, 06 Jul 2018 19:26:36 +0100
REM compiler GCC version 9.3.0
REM options -cpp -mtune=generic -march=x86-64 -g -O0
REM seed -1083099044 1353904566 1410172474 -1676290863 1735812929 329300934 -1605500709 -517469674 1636397160 -366056549 1394585480 -232420597 -251233741 -2029940654 -1288427045 1202863900 -311018546 387880260 1003051141 -1403482507 813237529 2041087581 1916437217 1585901851 939960875 -516474957 313865340 85254487 281312195 -403860118 -1389482224 1049871369 1040976051
REM
CELL 1.54180   50.00000   50.00000   50.00000   90.00000   90.00000   90.00000
LATT -1
SFAC C  
C      1  0.5267010000000  0.5573500000000  0.4915890000000 1.0
C      1  0.4316770000000  0.4915570000000  0.4801090000000 1.0
C      1  0.4370860000000  0.5355590000000  0.4894170000000 1.0
C      1  0.4550920000000  0.4546250000000  0.4959850000000 1.0
C      1  0.4747350000000  0.5198980000000  0.5436920000000 1.0
C      1  0.4907710000000  0.5187890000000  0.5203680000000 1.0
C      1  0.4699120000000  0.4303580000000  0.4816650000000 1.0
C      1  0.5264600000000  0.4657340000000  0.5221210000000 1.0
C      1  0.4805900000000  0.5732180000000  0.5381880000000 1.0
C      1  0.5312890000000  0.5254280000000  0.5616820000000 1.0
C      1  0.5295580000000  0.4920460000000  0.5381170000000 1.0
C      1  0.4720210000000  0.4752910000000  0.5643810000000 1.0
C      1  0.4904270000000  0.4924580000000  0.4832390000000 1.0
C      1  0.5766900000000  0.5153100000000  0.5094560000000 1.0
C      1  0.4771350000000  0.5387310000000  0.4516770000000 1.0
C      1  0.5024550000000  0.4325980000000  0.5471840000000 1.0
C      1  0.5040780000000  0.5673970000000  0.5474480000000 1.0
C      1  0.5766130000000  0.5100960000000  0.5378280000000 1.0
C      1  0.4849100000000  0.4549480000000  0.5468770000000 1.0
C      1  0.5195590000000  0.4973550000000  0.4897570000000 1.0
C      1  0.4623610000000  0.4660610000000  0.4527680000000 1.0
C      1  0.5126420000000  0.5037720000000  0.5612040000000 1.0
C      1  0.4891360000000  0.4148720000000  0.4924070000000 1.0
C      1  0.5536720000000  0.4859820000000  0.4528310000000 1.0
C      1  0.4775930000000  0.5130770000000  0.4971600000000 1.0
C      1  0.5516160000000  0.5482580000000  0.4805850000000 1.0
C      1  0.4611410000000  0.5587950000000  0.5229320000000 1.0
C      1  0.5527550000000  0.5319520000000  0.4578450000000 1.0
C      1  0.4508880000000  0.5339240000000  0.5339010000000 1.0
C      1  0.5253970000000  0.5490160000000  0.5452230000000 1.0
C      1  0.4547120000000  0.4646820000000  0.5457270000000 1.0
C      1  0.5532060000000  0.5082410000000  0.5496740000000 1.0
C      1  0.5199730000000  0.5119990000000  0.5158900000000 1.0
C      1  0.4843180000000  0.5014260000000  0.5634960000000 1.0
C      1  0.5609420000000  0.5385140000000  0.5060710000000 1.0
C      1  0.5691610000000  0.5089440000000  0.4608220000000 1.0
C      1  0.4336380000000  0.5215150000000  0.5144740000000 1.0
C      1  0.4559300000000  0.5572860000000  0.4936520000000 1.0
C      1  0.5347980000000  0.4696460000000  0.4931710000000 1.0
C      1  0.5219850000000  0.4469390000000  0.4791970000000 1.0
C      1  0.4310860000000  0.4932140000000  0.5086300000000 1.0
C      1  0.5129880000000  0.4276580000000  0.4986800000000 1.0
C      1  0.5056480000000  0.4795420000000  0.4442610000000 1.0
C      1  0.5060450000000  0.4525820000000  0.4555320000000 1.0
C      1  0.5281270000000  0.5238460000000  0.4447640000000 1.0
C      1  0.4760880000000  0.5572910000000  0.4739710000000 1.0
C      1  0.4620340000000  0.5155420000000  0.4503400000000 1.0
C      1  0.4966090000000  0.4681100000000  0.5226610000000 1.0
C      1  0.4396700000000  0.5162650000000  0.4682910000000 1.0
C      1  0.4788910000000  0.4438370000000  0.4577290000000 1.0
C      1  0.4835580000000  0.4682300000000  0.4981820000000 1.0
C      1  0.4424660000000  0.4671960000000  0.4726560000000 1.0
C      1  0.4433980000000  0.4687030000000  0.5203810000000 1.0
C      1  0.5055610000000  0.5582420000000  0.4732240000000 1.0
C      1  0.5288930000000  0.4949060000000  0.4412890000000 1.0
C      1  0.5332350000000  0.5408830000000  0.5177020000000 1.0
C      1  0.5774720000000  0.4985100000000  0.4859670000000 1.0
C      1  0.5060090000000  0.5403540000000  0.4496530000000 1.0
C      1  0.5197680000000  0.4363850000000  0.5260170000000 1.0
C      1  0.5605100000000  0.4750110000000  0.4794170000000 1.0
C      1  0.4783220000000  0.4900480000000  0.4508430000000 1.0
END
