TITL C-66154-5810-6 -0.0323519337052403 125000 -94.4461697359841 0 0 15 (C1) n - 1
REM
REM in /rds/project/t2_vol4/rds-t2-cs072/BORA/CARBON/from-Arr/AIRSS/Generating-Clusters/GAP-ML-2020/Only-C1/SD-CG/HFTN-CG
REM
REM
REM
REM
REM
REM ./C.cell (11c1c37f851c82e70ff6c80c92926a4b)
REM AIRSS Version 0.9.1 bugfix July 2018 build 013d7b7c2542+ Fri, 06 Jul 2018 19:26:36 +0100
REM compiler GCC version 9.3.0
REM options -cpp -mtune=generic -march=x86-64 -g -O0
REM seed 604172811 -630069311 1306156382 -1326038044 42417094 -617746763 2043242410 -1200366230 1371120133 1867768915 -571277612 408549085 1461126073 -54241039 -2114502493 218661059 -1098861684 1156339998 261078177 585895606 1713630788 -80010507 -888833435 -1234868602 -1829169184 -769533019 1078263765 -744485055 -731858916 807729676 1708581394 -1804110636 914931606
REM
CELL 1.54180   50.00000   50.00000   50.00000   90.00000   90.00000   90.00000
LATT -1
SFAC C  
C      1  0.5233170000000  0.5256390000000  0.5307020000000 1.0
C      1  0.5272750000000  0.4656900000000  0.4755490000000 1.0
C      1  0.5338050000000  0.5483690000000  0.5139140000000 1.0
C      1  0.5368810000000  0.5014510000000  0.5299480000000 1.0
C      1  0.4440340000000  0.4978710000000  0.5020500000000 1.0
C      1  0.4721670000000  0.5188660000000  0.5343120000000 1.0
C      1  0.4495490000000  0.5101440000000  0.5235370000000 1.0
C      1  0.5078280000000  0.4753340000000  0.4603360000000 1.0
C      1  0.4522260000000  0.4874360000000  0.4794330000000 1.0
C      1  0.4960490000000  0.4904710000000  0.4432560000000 1.0
C      1  0.5427740000000  0.4781670000000  0.5217500000000 1.0
C      1  0.4963000000000  0.5249100000000  0.5362420000000 1.0
C      1  0.5283580000000  0.5354500000000  0.4925260000000 1.0
C      1  0.4520010000000  0.4736020000000  0.4578450000000 1.0
C      1  0.5374360000000  0.4666000000000  0.4986010000000 1.0
END
