TITL C-66707-1135-3 -0.0168432897492217 125000 -300.856989043395 0 0 45 (C1) n - 1
REM
REM in /rds/project/t2_vol4/rds-t2-cs072/BORA/CARBON/from-Arr/AIRSS/Generating-Clusters/GAP-ML-2020/Only-C1/SD-CG/HFTN-CG
REM
REM
REM
REM
REM
REM ./C.cell (11c1c37f851c82e70ff6c80c92926a4b)
REM AIRSS Version 0.9.1 bugfix July 2018 build 013d7b7c2542+ Fri, 06 Jul 2018 19:26:36 +0100
REM compiler GCC version 9.3.0
REM options -cpp -mtune=generic -march=x86-64 -g -O0
REM seed -351887028 1862068872 -2105607049 -1521629873 -942584393 -914561628 -2123324562 325712781 1810363172 -623453140 1719205755 1000620095 -1921964158 -1935034807 140344812 -1641245694 -4287841 1420917914 -1641646883 -1810151428 -1422482005 -1928200494 -636531151 -1307610305 -690152294 603357810 -1973395283 -911736590 -2028123397 -2040612343 444926490 880317284 -1917084379
REM
CELL 1.54180   50.00000   50.00000   50.00000   90.00000   90.00000   90.00000
LATT -1
SFAC C  
C      1  0.5262510000000  0.4475460000000  0.5301910000000 1.0
C      1  0.4783230000000  0.4758780000000  0.5150070000000 1.0
C      1  0.5262730000000  0.5193310000000  0.5673120000000 1.0
C      1  0.4565840000000  0.5252390000000  0.4337780000000 1.0
C      1  0.5046480000000  0.5022450000000  0.4831510000000 1.0
C      1  0.4495110000000  0.5272580000000  0.4827860000000 1.0
C      1  0.5266200000000  0.5155690000000  0.4690960000000 1.0
C      1  0.4848420000000  0.5309560000000  0.5504490000000 1.0
C      1  0.5423090000000  0.4937270000000  0.4618370000000 1.0
C      1  0.4650380000000  0.4873950000000  0.5405510000000 1.0
C      1  0.4764270000000  0.5422610000000  0.5254170000000 1.0
C      1  0.4377400000000  0.4941840000000  0.5412690000000 1.0
C      1  0.5461310000000  0.5111860000000  0.5205830000000 1.0
C      1  0.4532920000000  0.5337900000000  0.5110030000000 1.0
C      1  0.4600380000000  0.5389450000000  0.4588660000000 1.0
C      1  0.5303080000000  0.5428510000000  0.4762460000000 1.0
C      1  0.5550950000000  0.4857870000000  0.5115210000000 1.0
C      1  0.5287900000000  0.4704910000000  0.4508210000000 1.0
C      1  0.4673060000000  0.5036870000000  0.4242190000000 1.0
C      1  0.4823510000000  0.4933000000000  0.4688560000000 1.0
C      1  0.5195290000000  0.5034610000000  0.5274050000000 1.0
C      1  0.5156750000000  0.4391310000000  0.4823470000000 1.0
C      1  0.4836620000000  0.5028250000000  0.5554500000000 1.0
C      1  0.5227540000000  0.5516020000000  0.5303960000000 1.0
C      1  0.5377400000000  0.4545900000000  0.4739000000000 1.0
C      1  0.4813180000000  0.4466050000000  0.5093330000000 1.0
C      1  0.5471310000000  0.5401260000000  0.5166160000000 1.0
C      1  0.5009520000000  0.4659290000000  0.4457790000000 1.0
C      1  0.5135600000000  0.4939740000000  0.5565860000000 1.0
C      1  0.5268690000000  0.4683870000000  0.5505600000000 1.0
C      1  0.5519350000000  0.4766600000000  0.4854150000000 1.0
C      1  0.4629290000000  0.4795640000000  0.4869940000000 1.0
C      1  0.4420300000000  0.4997110000000  0.4900920000000 1.0
C      1  0.4395530000000  0.5090500000000  0.5194920000000 1.0
C      1  0.5061540000000  0.4880020000000  0.5079460000000 1.0
C      1  0.5027890000000  0.5542860000000  0.4836470000000 1.0
C      1  0.5132670000000  0.5397400000000  0.5551340000000 1.0
C      1  0.5514390000000  0.5520980000000  0.4919270000000 1.0
C      1  0.4829870000000  0.4881840000000  0.4408130000000 1.0
C      1  0.5464310000000  0.4656090000000  0.5304740000000 1.0
C      1  0.4696990000000  0.4498510000000  0.4826660000000 1.0
C      1  0.4998660000000  0.5537260000000  0.5129710000000 1.0
C      1  0.4828430000000  0.5531990000000  0.4657130000000 1.0
C      1  0.4924370000000  0.4451080000000  0.4651290000000 1.0
C      1  0.5085730000000  0.4369540000000  0.5102580000000 1.0
END
