TITL C-66722-1409-8 -0.0369457890333784 125000 -123.684475201668 0 0 20 (C1) n - 1
REM
REM in /rds/project/t2_vol4/rds-t2-cs072/BORA/CARBON/from-Arr/AIRSS/Generating-Clusters/GAP-ML-2020/Only-C1/SD-CG/HFTN-CG
REM
REM
REM
REM
REM
REM ./C.cell (11c1c37f851c82e70ff6c80c92926a4b)
REM AIRSS Version 0.9.1 bugfix July 2018 build 013d7b7c2542+ Fri, 06 Jul 2018 19:26:36 +0100
REM compiler GCC version 9.3.0
REM options -cpp -mtune=generic -march=x86-64 -g -O0
REM seed 1859438654 961109326 -420462874 -1755568632 96479375 -1110139273 -1829332291 1937615676 -1983290943 192428608 -1246268902 1506438421 1916458148 -732670912 1470573108 1191978944 621832257 80830846 1410423202 1555529239 1286850559 -1291599167 -1734524033 -1570688431 -793261954 1972698858 -628750748 -576839282 -971872455 -1639227698 -174833662 -1481335935 -1804319596
REM
CELL 1.54180   50.00000   50.00000   50.00000   90.00000   90.00000   90.00000
LATT -1
SFAC C  
C      1  0.5384520000000  0.4627550000000  0.5211220000000 1.0
C      1  0.5364590000000  0.5531390000000  0.4919580000000 1.0
C      1  0.4576240000000  0.4814470000000  0.4940820000000 1.0
C      1  0.5178350000000  0.4570760000000  0.5039300000000 1.0
C      1  0.4673500000000  0.4929330000000  0.5386900000000 1.0
C      1  0.5140190000000  0.5082170000000  0.5453530000000 1.0
C      1  0.5185990000000  0.4620060000000  0.4760150000000 1.0
C      1  0.5198970000000  0.5497710000000  0.5122910000000 1.0
C      1  0.4625640000000  0.5027130000000  0.5122840000000 1.0
C      1  0.5068660000000  0.5210320000000  0.4349900000000 1.0
C      1  0.4721650000000  0.4717490000000  0.4721070000000 1.0
C      1  0.4992930000000  0.4783060000000  0.4639100000000 1.0
C      1  0.4714500000000  0.5281850000000  0.5064180000000 1.0
C      1  0.5121570000000  0.5335850000000  0.5345120000000 1.0
C      1  0.4914020000000  0.5422530000000  0.5168210000000 1.0
C      1  0.5050490000000  0.4992190000000  0.4473760000000 1.0
C      1  0.4923510000000  0.4935420000000  0.5447940000000 1.0
C      1  0.4708120000000  0.4561580000000  0.4963880000000 1.0
C      1  0.4908480000000  0.4481770000000  0.5120860000000 1.0
C      1  0.5548070000000  0.5577370000000  0.4748740000000 1.0
END
