TITL C-66600-1450-1 28.1335972007924 125000 -641.76984112234 0 0 94 (C1) n - 1
REM
REM in /rds/project/t2_vol4/rds-t2-cs072/BORA/CARBON/from-Arr/AIRSS/Generating-Clusters/GAP-ML-2020/Only-C1/SD-CG/HFTN-CG
REM
REM
REM
REM
REM
REM ./C.cell (11c1c37f851c82e70ff6c80c92926a4b)
REM AIRSS Version 0.9.1 bugfix July 2018 build 013d7b7c2542+ Fri, 06 Jul 2018 19:26:36 +0100
REM compiler GCC version 9.3.0
REM options -cpp -mtune=generic -march=x86-64 -g -O0
REM seed 865397728 1547923945 1047773518 1643774913 1052215573 512883376 -2127525683 95405005 1658541648 1978415090 -2083753820 -1735718748 -813768618 -1188966981 -2062082374 823558921 -1464265211 1222110824 1461596464 184926643 2074837039 2043410552 1355901213 -882968275 -2126914945 -835794009 1664094361 2115278794 -1260254194 -1611795572 1271602217 -1189652868 519061822
REM
CELL 1.54180   50.00000   50.00000   50.00000   90.00000   90.00000   90.00000
LATT -1
SFAC C  
C      1  0.5593730000000  0.5439630000000  0.4651750000000 1.0
C      1  0.4683000000000  0.5614700000000  0.5012750000000 1.0
C      1  0.5016240000000  0.4459250000000  0.4535850000000 1.0
C      1  0.4827690000000  0.5562980000000  0.5479750000000 1.0
C      1  0.4415920000000  0.5482770000000  0.4501930000000 1.0
C      1  0.5928950000000  0.5367440000000  0.5065070000000 1.0
C      1  0.4255220000000  0.5436650000000  0.5018470000000 1.0
C      1  0.5247310000000  0.4910210000000  0.4273430000000 1.0
C      1  0.5626590000000  0.5203070000000  0.4499150000000 1.0
C      1  0.4213310000000  0.4807470000000  0.4714060000000 1.0
C      1  0.5747560000000  0.4545640000000  0.5016160000000 1.0
C      1  0.4974780000000  0.5062930000000  0.5364760000000 1.0
C      1  0.5592290000000  0.4932750000000  0.4663280000000 1.0
C      1  0.5179000000000  0.5853590000000  0.5278590000000 1.0
C      1  0.5331170000000  0.5734940000000  0.4880370000000 1.0
C      1  0.4922490000000  0.4542310000000  0.4280820000000 1.0
C      1  0.4474930000000  0.5028020000000  0.5616100000000 1.0
C      1  0.5925300000000  0.5169940000000  0.5227020000000 1.0
C      1  0.4762370000000  0.5036820000000  0.4418100000000 1.0
C      1  0.4689510000000  0.5490360000000  0.4416240000000 1.0
C      1  0.4609670000000  0.5557790000000  0.5279370000000 1.0
C      1  0.5030560000000  0.4760550000000  0.4152430000000 1.0
C      1  0.4258080000000  0.5243160000000  0.4567440000000 1.0
C      1  0.5131220000000  0.5867620000000  0.5008300000000 1.0
C      1  0.5047340000000  0.5765890000000  0.5505590000000 1.0
C      1  0.4575000000000  0.4765380000000  0.5666800000000 1.0
C      1  0.4933120000000  0.4533420000000  0.5019720000000 1.0
C      1  0.5426680000000  0.5697180000000  0.5353400000000 1.0
C      1  0.5702330000000  0.4641080000000  0.4749700000000 1.0
C      1  0.4741290000000  0.4155710000000  0.4876410000000 1.0
C      1  0.5422840000000  0.5119510000000  0.5263380000000 1.0
C      1  0.4951580000000  0.4580920000000  0.5706760000000 1.0
C      1  0.5174580000000  0.5111270000000  0.5797180000000 1.0
C      1  0.4986730000000  0.4016680000000  0.4884170000000 1.0
C      1  0.5324380000000  0.4682920000000  0.5199320000000 1.0
C      1  0.5215760000000  0.5347900000000  0.5654850000000 1.0
C      1  0.5290170000000  0.4880590000000  0.5655690000000 1.0
C      1  0.4782730000000  0.4938970000000  0.4705280000000 1.0
C      1  0.4579930000000  0.4248320000000  0.5106580000000 1.0
C      1  0.4140360000000  0.4980440000000  0.4935020000000 1.0
C      1  0.4667740000000  0.5203150000000  0.5759010000000 1.0
C      1  0.4378950000000  0.4593970000000  0.4802960000000 1.0
C      1  0.4642640000000  0.4642090000000  0.4703380000000 1.0
C      1  0.5656240000000  0.5381490000000  0.4925400000000 1.0
C      1  0.5054150000000  0.5338980000000  0.5393000000000 1.0
C      1  0.5250420000000  0.4922240000000  0.5368220000000 1.0
C      1  0.4845250000000  0.5288310000000  0.4293560000000 1.0
C      1  0.4886110000000  0.5578690000000  0.4602930000000 1.0
C      1  0.4154260000000  0.5244120000000  0.4841390000000 1.0
C      1  0.5256620000000  0.4587610000000  0.4647700000000 1.0
C      1  0.4373840000000  0.4428940000000  0.5039580000000 1.0
C      1  0.5380990000000  0.5630980000000  0.4620860000000 1.0
C      1  0.4819290000000  0.4422980000000  0.4753640000000 1.0
C      1  0.5148680000000  0.5576200000000  0.4472000000000 1.0
C      1  0.4896670000000  0.5049970000000  0.5859470000000 1.0
C      1  0.5598110000000  0.5231400000000  0.4230710000000 1.0
C      1  0.5508110000000  0.4439750000000  0.4680780000000 1.0
C      1  0.4250850000000  0.4915350000000  0.5188280000000 1.0
C      1  0.5238540000000  0.4039060000000  0.4839080000000 1.0
C      1  0.5121980000000  0.5373450000000  0.4279730000000 1.0
C      1  0.4305270000000  0.4966730000000  0.4488160000000 1.0
C      1  0.4413620000000  0.4676550000000  0.5169820000000 1.0
C      1  0.5416020000000  0.4432270000000  0.5564090000000 1.0
C      1  0.5679570000000  0.4998830000000  0.5198370000000 1.0
C      1  0.5631990000000  0.4289680000000  0.5044880000000 1.0
C      1  0.4669270000000  0.5147530000000  0.4899250000000 1.0
C      1  0.4425040000000  0.5621480000000  0.4879090000000 1.0
C      1  0.5256720000000  0.4427850000000  0.5326430000000 1.0
C      1  0.4726530000000  0.4710620000000  0.5196770000000 1.0
C      1  0.5453120000000  0.5552690000000  0.5092770000000 1.0
C      1  0.4348290000000  0.5717820000000  0.4645400000000 1.0
C      1  0.4375490000000  0.5382320000000  0.5269050000000 1.0
C      1  0.5233100000000  0.4604750000000  0.5698320000000 1.0
C      1  0.5601690000000  0.5086250000000  0.4921890000000 1.0
C      1  0.5642860000000  0.4701710000000  0.5240720000000 1.0
C      1  0.5007970000000  0.4335060000000  0.5234300000000 1.0
C      1  0.5254860000000  0.5337470000000  0.5159630000000 1.0
C      1  0.4821090000000  0.4990180000000  0.5136920000000 1.0
C      1  0.4852200000000  0.5411620000000  0.4863790000000 1.0
C      1  0.4332640000000  0.5115780000000  0.5381800000000 1.0
C      1  0.5653600000000  0.4538260000000  0.5483420000000 1.0
C      1  0.5115910000000  0.5259030000000  0.4910180000000 1.0
C      1  0.4738130000000  0.4749350000000  0.4200670000000 1.0
C      1  0.5299360000000  0.5606880000000  0.5600080000000 1.0
C      1  0.4738420000000  0.4557640000000  0.5482890000000 1.0
C      1  0.4714280000000  0.5462180000000  0.5723640000000 1.0
C      1  0.5481180000000  0.4185770000000  0.4835850000000 1.0
C      1  0.4803630000000  0.4788090000000  0.5838330000000 1.0
C      1  0.5325340000000  0.5184280000000  0.4228040000000 1.0
C      1  0.5163010000000  0.4703870000000  0.4938910000000 1.0
C      1  0.4739170000000  0.4292030000000  0.5342990000000 1.0
C      1  0.5361770000000  0.4816890000000  0.4505000000000 1.0
C      1  0.4520220000000  0.4912790000000  0.4306810000000 1.0
C      1  0.5037430000000  0.4970310000000  0.4888970000000 1.0
END
