TITL C-66138-5913-2 9.25875822121346 125000 -453.603186707605 0 0 67 (C1) n - 1
REM
REM in /rds/project/t2_vol4/rds-t2-cs072/BORA/CARBON/from-Arr/AIRSS/Generating-Clusters/GAP-ML-2020/Only-C1/SD-CG/HFTN-CG
REM
REM
REM
REM
REM
REM ./C.cell (11c1c37f851c82e70ff6c80c92926a4b)
REM AIRSS Version 0.9.1 bugfix July 2018 build 013d7b7c2542+ Fri, 06 Jul 2018 19:26:36 +0100
REM compiler GCC version 9.3.0
REM options -cpp -mtune=generic -march=x86-64 -g -O0
REM seed 2051514057 -1926735516 -649339094 -11225925 -766058937 1735850360 980155592 -1830895796 -134529428 -780272658 223400400 320180067 -1190192283 -1105253479 336663358 204977703 -1853819238 -562209601 988691531 -1602692797 -1183147860 816662931 1767281597 218939822 -1866778635 497004389 1539497723 -2110062863 1332484051 -1411775325 -657563379 -1053196026 1914793506
REM
CELL 1.54180   50.00000   50.00000   50.00000   90.00000   90.00000   90.00000
LATT -1
SFAC C  
C      1  0.5234710000000  0.4350450000000  0.4709100000000 1.0
C      1  0.5203850000000  0.5601630000000  0.4798500000000 1.0
C      1  0.5044750000000  0.5564060000000  0.5300090000000 1.0
C      1  0.4531060000000  0.5555900000000  0.5072700000000 1.0
C      1  0.4382160000000  0.5084400000000  0.4964910000000 1.0
C      1  0.5044780000000  0.5221110000000  0.5836490000000 1.0
C      1  0.5566610000000  0.4302570000000  0.5631760000000 1.0
C      1  0.5038590000000  0.5114570000000  0.4796370000000 1.0
C      1  0.4863970000000  0.5833500000000  0.4518270000000 1.0
C      1  0.4561780000000  0.5482040000000  0.5342210000000 1.0
C      1  0.4503080000000  0.4510100000000  0.5231490000000 1.0
C      1  0.4768930000000  0.5047000000000  0.4307300000000 1.0
C      1  0.5253600000000  0.5094820000000  0.5712050000000 1.0
C      1  0.5472930000000  0.4461600000000  0.5443040000000 1.0
C      1  0.4970660000000  0.4310800000000  0.4760320000000 1.0
C      1  0.4919320000000  0.4613790000000  0.4722920000000 1.0
C      1  0.5652030000000  0.4774000000000  0.4844370000000 1.0
C      1  0.4990490000000  0.5601180000000  0.5020290000000 1.0
C      1  0.5574870000000  0.5278200000000  0.4932950000000 1.0
C      1  0.4952950000000  0.4710860000000  0.5015820000000 1.0
C      1  0.5189840000000  0.4653150000000  0.4585070000000 1.0
C      1  0.4367220000000  0.5034460000000  0.5253840000000 1.0
C      1  0.5062900000000  0.5419720000000  0.4404650000000 1.0
C      1  0.4466970000000  0.5224300000000  0.5428580000000 1.0
C      1  0.4738230000000  0.4271030000000  0.4909180000000 1.0
C      1  0.5627420000000  0.5226990000000  0.5411530000000 1.0
C      1  0.5071030000000  0.5662410000000  0.4550710000000 1.0
C      1  0.4973790000000  0.4705210000000  0.5503690000000 1.0
C      1  0.5637830000000  0.4969150000000  0.5297370000000 1.0
C      1  0.5166250000000  0.4922230000000  0.4979970000000 1.0
C      1  0.5406070000000  0.5288110000000  0.5574190000000 1.0
C      1  0.4633210000000  0.4671740000000  0.4641020000000 1.0
C      1  0.5312130000000  0.5284270000000  0.4470660000000 1.0
C      1  0.5277890000000  0.4410550000000  0.5216250000000 1.0
C      1  0.4600830000000  0.5433400000000  0.4605300000000 1.0
C      1  0.4377840000000  0.4563840000000  0.4971310000000 1.0
C      1  0.5139860000000  0.5071590000000  0.5251530000000 1.0
C      1  0.4820390000000  0.5512260000000  0.5466370000000 1.0
C      1  0.4631850000000  0.4786700000000  0.4363000000000 1.0
C      1  0.4697860000000  0.5693470000000  0.4668160000000 1.0
C      1  0.5218160000000  0.4813330000000  0.4330350000000 1.0
C      1  0.5682110000000  0.4509360000000  0.4884330000000 1.0
C      1  0.5388480000000  0.4446860000000  0.4935820000000 1.0
C      1  0.4791460000000  0.5302020000000  0.4407560000000 1.0
C      1  0.4848380000000  0.5299850000000  0.5667540000000 1.0
C      1  0.5463580000000  0.4761820000000  0.5421570000000 1.0
C      1  0.5254100000000  0.5362570000000  0.5317970000000 1.0
C      1  0.5351410000000  0.4744610000000  0.4817120000000 1.0
C      1  0.5359340000000  0.5043610000000  0.4350690000000 1.0
C      1  0.4750290000000  0.4368570000000  0.5178490000000 1.0
C      1  0.4720910000000  0.4829590000000  0.5554170000000 1.0
C      1  0.4728640000000  0.5723600000000  0.4953810000000 1.0
C      1  0.4775380000000  0.4669670000000  0.4135160000000 1.0
C      1  0.4521340000000  0.5329430000000  0.4872080000000 1.0
C      1  0.5202710000000  0.4884070000000  0.5491520000000 1.0
C      1  0.5404730000000  0.5401270000000  0.4732500000000 1.0
C      1  0.5003350000000  0.4519550000000  0.5255720000000 1.0
C      1  0.4715190000000  0.4862990000000  0.5095020000000 1.0
C      1  0.4849890000000  0.5125470000000  0.5184630000000 1.0
C      1  0.4860150000000  0.5286060000000  0.4934730000000 1.0
C      1  0.4492230000000  0.4827780000000  0.4876300000000 1.0
C      1  0.4974020000000  0.4872410000000  0.4173390000000 1.0
C      1  0.4656880000000  0.5103510000000  0.5609710000000 1.0
C      1  0.4539980000000  0.4775570000000  0.5335610000000 1.0
C      1  0.5677130000000  0.5011500000000  0.5010750000000 1.0
C      1  0.5522660000000  0.5389560000000  0.5189760000000 1.0
C      1  0.4516980000000  0.4418230000000  0.4770320000000 1.0
END
