TITL C-66137-5893-4 0.0482453529264428 125000 -319.47199846738 0 0 47 (C1) n - 1
REM
REM in /rds/project/t2_vol4/rds-t2-cs072/BORA/CARBON/from-Arr/AIRSS/Generating-Clusters/GAP-ML-2020/Only-C1/SD-CG/HFTN-CG
REM
REM
REM
REM
REM
REM ./C.cell (11c1c37f851c82e70ff6c80c92926a4b)
REM AIRSS Version 0.9.1 bugfix July 2018 build 013d7b7c2542+ Fri, 06 Jul 2018 19:26:36 +0100
REM compiler GCC version 9.3.0
REM options -cpp -mtune=generic -march=x86-64 -g -O0
REM seed -2107389334 -117774601 1150026013 -913131047 -164453483 1254902433 24806953 452723895 -1838018536 1409396404 1127109933 -1495424663 1487363817 232230539 -1395422768 386086166 317855302 619828144 -1814038411 -1301155307 686029380 -1569078325 -166598536 303706280 944194571 -2014279979 1873300026 -638775770 -1140187654 812000027 -818000977 11703706 -624176300
REM
CELL 1.54180   50.00000   50.00000   50.00000   90.00000   90.00000   90.00000
LATT -1
SFAC C  
C      1  0.5125300000000  0.4582320000000  0.4503070000000 1.0
C      1  0.5547870000000  0.4659720000000  0.5099940000000 1.0
C      1  0.5279970000000  0.4675230000000  0.5532150000000 1.0
C      1  0.5313740000000  0.5073060000000  0.4416150000000 1.0
C      1  0.5174520000000  0.5481780000000  0.4601000000000 1.0
C      1  0.5055780000000  0.4823760000000  0.5617670000000 1.0
C      1  0.5331200000000  0.4777640000000  0.4450850000000 1.0
C      1  0.4990620000000  0.5499260000000  0.4823310000000 1.0
C      1  0.4866110000000  0.4694550000000  0.4459820000000 1.0
C      1  0.5383080000000  0.5347700000000  0.5300360000000 1.0
C      1  0.4465440000000  0.4972920000000  0.5096530000000 1.0
C      1  0.5468380000000  0.4531690000000  0.4837300000000 1.0
C      1  0.4765160000000  0.4950140000000  0.4414560000000 1.0
C      1  0.5114760000000  0.5333140000000  0.5421550000000 1.0
C      1  0.5525190000000  0.5175130000000  0.4592090000000 1.0
C      1  0.4817370000000  0.5565420000000  0.5031670000000 1.0
C      1  0.4999230000000  0.5113710000000  0.5579310000000 1.0
C      1  0.5450020000000  0.4606180000000  0.5353730000000 1.0
C      1  0.4342580000000  0.4876240000000  0.5558040000000 1.0
C      1  0.4655370000000  0.4793880000000  0.4621030000000 1.0
C      1  0.4702020000000  0.4466980000000  0.5534220000000 1.0
C      1  0.4741940000000  0.4571130000000  0.5044600000000 1.0
C      1  0.4957810000000  0.4980850000000  0.4943700000000 1.0
C      1  0.4618280000000  0.5406520000000  0.4496870000000 1.0
C      1  0.4591550000000  0.4915600000000  0.5664880000000 1.0
C      1  0.5192500000000  0.4448460000000  0.4765560000000 1.0
C      1  0.4646400000000  0.5332540000000  0.5390750000000 1.0
C      1  0.4414490000000  0.4793590000000  0.5308590000000 1.0
C      1  0.5545940000000  0.4715340000000  0.4634160000000 1.0
C      1  0.4720360000000  0.5154770000000  0.5599120000000 1.0
C      1  0.5642700000000  0.4942470000000  0.5030780000000 1.0
C      1  0.4669990000000  0.4843690000000  0.4918960000000 1.0
C      1  0.5642520000000  0.4958360000000  0.4741830000000 1.0
C      1  0.4600250000000  0.4541120000000  0.5284370000000 1.0
C      1  0.4811520000000  0.5232180000000  0.4379640000000 1.0
C      1  0.5557960000000  0.5182320000000  0.5161330000000 1.0
C      1  0.5104580000000  0.5286620000000  0.4400750000000 1.0
C      1  0.5425530000000  0.5405460000000  0.4723180000000 1.0
C      1  0.4879910000000  0.5466170000000  0.5302270000000 1.0
C      1  0.4792060000000  0.4699620000000  0.5657880000000 1.0
C      1  0.5069020000000  0.5238270000000  0.4934790000000 1.0
C      1  0.5353600000000  0.5349470000000  0.5003790000000 1.0
C      1  0.5135840000000  0.4785420000000  0.4986210000000 1.0
C      1  0.4483480000000  0.5263060000000  0.5156550000000 1.0
C      1  0.4467370000000  0.5496950000000  0.4685190000000 1.0
C      1  0.5013610000000  0.4519810000000  0.4979240000000 1.0
C      1  0.4547070000000  0.5469740000000  0.4960670000000 1.0
END
