TITL C-66693-9893-1 0.0841912114609833 125000 -586.5746932055 0 0 85 (C1) n - 1
REM
REM in /rds/project/t2_vol4/rds-t2-cs072/BORA/CARBON/from-Arr/AIRSS/Generating-Clusters/GAP-ML-2020/Only-C1/SD-CG/HFTN-CG
REM
REM
REM
REM
REM
REM ./C.cell (11c1c37f851c82e70ff6c80c92926a4b)
REM AIRSS Version 0.9.1 bugfix July 2018 build 013d7b7c2542+ Fri, 06 Jul 2018 19:26:36 +0100
REM compiler GCC version 9.3.0
REM options -cpp -mtune=generic -march=x86-64 -g -O0
REM seed -1204481651 -101706183 954330169 -1572334411 1621666915 -754254486 719628355 1121338567 258765183 -1734992084 -1654328208 1795413953 -1935924278 505074790 -20035402 19091786 1975943283 872661890 -1495378636 -600758449 792820816 -145687081 -1876039081 1765060784 -1886610384 867452673 -2033401069 -508582874 475011909 715431365 1395220195 -1085687926 -1404637764
REM
CELL 1.54180   50.00000   50.00000   50.00000   90.00000   90.00000   90.00000
LATT -1
SFAC C  
C      1  0.5622370000000  0.5590860000000  0.5330450000000 1.0
C      1  0.5241800000000  0.5291270000000  0.5114020000000 1.0
C      1  0.4981210000000  0.5257120000000  0.5063000000000 1.0
C      1  0.4714460000000  0.4170410000000  0.5332100000000 1.0
C      1  0.4801460000000  0.5139730000000  0.5657400000000 1.0
C      1  0.5114010000000  0.4527560000000  0.4306850000000 1.0
C      1  0.4599080000000  0.4636550000000  0.4963300000000 1.0
C      1  0.4660060000000  0.4570530000000  0.4438420000000 1.0
C      1  0.5740260000000  0.5482420000000  0.5085360000000 1.0
C      1  0.4887070000000  0.4926690000000  0.4755610000000 1.0
C      1  0.4755990000000  0.4605520000000  0.5216000000000 1.0
C      1  0.5338610000000  0.4713400000000  0.4676830000000 1.0
C      1  0.5618910000000  0.4778580000000  0.4829700000000 1.0
C      1  0.5162830000000  0.4752200000000  0.5431090000000 1.0
C      1  0.5190070000000  0.4290850000000  0.5248390000000 1.0
C      1  0.5329750000000  0.5507370000000  0.4483160000000 1.0
C      1  0.5170680000000  0.5714310000000  0.5420380000000 1.0
C      1  0.5698470000000  0.4819140000000  0.5446250000000 1.0
C      1  0.4277550000000  0.4741980000000  0.4643890000000 1.0
C      1  0.4489820000000  0.4796570000000  0.4484880000000 1.0
C      1  0.4205390000000  0.5176340000000  0.5221380000000 1.0
C      1  0.5320140000000  0.5117900000000  0.4916610000000 1.0
C      1  0.4890410000000  0.4945360000000  0.4283630000000 1.0
C      1  0.4585220000000  0.4682930000000  0.5471450000000 1.0
C      1  0.4616880000000  0.4294580000000  0.4492130000000 1.0
C      1  0.4840560000000  0.5016550000000  0.5046420000000 1.0
C      1  0.4972590000000  0.4796900000000  0.5200410000000 1.0
C      1  0.4721170000000  0.5734670000000  0.4838900000000 1.0
C      1  0.4477960000000  0.5572720000000  0.5215940000000 1.0
C      1  0.4925070000000  0.5824390000000  0.5010000000000 1.0
C      1  0.4920680000000  0.5764590000000  0.5294570000000 1.0
C      1  0.5723580000000  0.4599710000000  0.5021610000000 1.0
C      1  0.4992850000000  0.4203490000000  0.5439560000000 1.0
C      1  0.5714890000000  0.5244030000000  0.4572600000000 1.0
C      1  0.4629050000000  0.5351430000000  0.5537610000000 1.0
C      1  0.5628890000000  0.4572920000000  0.5290720000000 1.0
C      1  0.5212400000000  0.5486230000000  0.5597690000000 1.0
C      1  0.5774780000000  0.5070660000000  0.4787250000000 1.0
C      1  0.4898640000000  0.4393010000000  0.5638080000000 1.0
C      1  0.4869940000000  0.4139420000000  0.4882120000000 1.0
C      1  0.4138080000000  0.4883950000000  0.5277840000000 1.0
C      1  0.5799590000000  0.5206680000000  0.5048800000000 1.0
C      1  0.4674440000000  0.4106770000000  0.5073010000000 1.0
C      1  0.5331090000000  0.5249760000000  0.4314480000000 1.0
C      1  0.5657170000000  0.5047710000000  0.5253960000000 1.0
C      1  0.5083900000000  0.4327080000000  0.4510330000000 1.0
C      1  0.5172150000000  0.5009840000000  0.4280000000000 1.0
C      1  0.5425220000000  0.5195370000000  0.5375360000000 1.0
C      1  0.4146310000000  0.4921210000000  0.4822120000000 1.0
C      1  0.5125550000000  0.5676650000000  0.4598290000000 1.0
C      1  0.4406980000000  0.4843220000000  0.5321580000000 1.0
C      1  0.4688980000000  0.5022990000000  0.4502020000000 1.0
C      1  0.4676590000000  0.5517350000000  0.4415170000000 1.0
C      1  0.4822500000000  0.4638960000000  0.4754780000000 1.0
C      1  0.4983810000000  0.4662580000000  0.5660510000000 1.0
C      1  0.4843620000000  0.4187600000000  0.4593020000000 1.0
C      1  0.4868560000000  0.4660280000000  0.4257930000000 1.0
C      1  0.4382870000000  0.5345120000000  0.5365950000000 1.0
C      1  0.4764300000000  0.4846810000000  0.5655780000000 1.0
C      1  0.5538890000000  0.4873270000000  0.5658590000000 1.0
C      1  0.5082280000000  0.5224670000000  0.5657650000000 1.0
C      1  0.4834500000000  0.5661680000000  0.4582080000000 1.0
C      1  0.5295010000000  0.4740150000000  0.4376860000000 1.0
C      1  0.4702910000000  0.5605880000000  0.5389450000000 1.0
C      1  0.5582980000000  0.5504310000000  0.4620960000000 1.0
C      1  0.5106940000000  0.4274820000000  0.4969900000000 1.0
C      1  0.5169570000000  0.5811040000000  0.4850850000000 1.0
C      1  0.4118260000000  0.4735980000000  0.5035330000000 1.0
C      1  0.5131360000000  0.4479370000000  0.4755310000000 1.0
C      1  0.5409170000000  0.5761930000000  0.5264910000000 1.0
C      1  0.5415000000000  0.5797160000000  0.4980900000000 1.0
C      1  0.4548890000000  0.4927580000000  0.5056320000000 1.0
C      1  0.4631790000000  0.4387150000000  0.5521220000000 1.0
C      1  0.5487630000000  0.5426720000000  0.5522800000000 1.0
C      1  0.4310460000000  0.5137020000000  0.4940820000000 1.0
C      1  0.5288820000000  0.5009500000000  0.5559520000000 1.0
C      1  0.4569070000000  0.5297010000000  0.4539770000000 1.0
C      1  0.5179270000000  0.4956350000000  0.4740050000000 1.0
C      1  0.4499190000000  0.5586060000000  0.4934960000000 1.0
C      1  0.4422630000000  0.5357080000000  0.4784480000000 1.0
C      1  0.5620970000000  0.5628920000000  0.4868600000000 1.0
C      1  0.5592560000000  0.5152910000000  0.4340800000000 1.0
C      1  0.5348440000000  0.4510080000000  0.5346290000000 1.0
C      1  0.4315340000000  0.4575850000000  0.4887360000000 1.0
C      1  0.5490830000000  0.4926710000000  0.5047520000000 1.0
END
