TITL C-66714-9870-5 -0.00409415109590437 125000 -97.5734821134472 0 0 16 (C1) n - 1
REM
REM in /rds/project/t2_vol4/rds-t2-cs072/BORA/CARBON/from-Arr/AIRSS/Generating-Clusters/GAP-ML-2020/Only-C1/SD-CG/HFTN-CG
REM
REM
REM
REM
REM
REM ./C.cell (11c1c37f851c82e70ff6c80c92926a4b)
REM AIRSS Version 0.9.1 bugfix July 2018 build 013d7b7c2542+ Fri, 06 Jul 2018 19:26:36 +0100
REM compiler GCC version 9.3.0
REM options -cpp -mtune=generic -march=x86-64 -g -O0
REM seed 1648838257 -2033495260 -1048889562 1806617001 420919125 1963914481 -2022944823 361944976 189973165 -128771944 -370561637 14762288 2000217777 -1991834134 1054195986 1218035938 1758198554 83706734 491554103 -1966588137 -623251098 -1740971466 -135338022 -1560870177 -949451624 -981771859 600578900 1338944200 -1899582964 426389437 -1709326156 -1847219642 -341099368
REM
CELL 1.54180   50.00000   50.00000   50.00000   90.00000   90.00000   90.00000
LATT -1
SFAC C  
C      1  0.5032230000000  0.5367580000000  0.5425780000000 1.0
C      1  0.4949030000000  0.5296600000000  0.5028540000000 1.0
C      1  0.5190330000000  0.5072740000000  0.4598840000000 1.0
C      1  0.4912230000000  0.5021910000000  0.4569020000000 1.0
C      1  0.4789860000000  0.5249060000000  0.5461710000000 1.0
C      1  0.5410940000000  0.4915790000000  0.4534130000000 1.0
C      1  0.4746060000000  0.4899090000000  0.5135820000000 1.0
C      1  0.5014230000000  0.4643630000000  0.5333050000000 1.0
C      1  0.5157880000000  0.4741370000000  0.5142790000000 1.0
C      1  0.5106780000000  0.5471270000000  0.5185230000000 1.0
C      1  0.4758910000000  0.4712340000000  0.5334020000000 1.0
C      1  0.4757150000000  0.5165470000000  0.5200110000000 1.0
C      1  0.5223560000000  0.4742300000000  0.4601870000000 1.0
C      1  0.4969110000000  0.4853890000000  0.4953870000000 1.0
C      1  0.4953930000000  0.4730650000000  0.4663760000000 1.0
C      1  0.5027780000000  0.5116300000000  0.4831460000000 1.0
END
