TITL C-66591-1376-8 -0.108343600659129 125000 -387.710446608596 0 0 58 (C1) n - 1
REM
REM in /rds/project/t2_vol4/rds-t2-cs072/BORA/CARBON/from-Arr/AIRSS/Generating-Clusters/GAP-ML-2020/Only-C1/SD-CG/HFTN-CG
REM
REM
REM
REM
REM
REM ./C.cell (11c1c37f851c82e70ff6c80c92926a4b)
REM AIRSS Version 0.9.1 bugfix July 2018 build 013d7b7c2542+ Fri, 06 Jul 2018 19:26:36 +0100
REM compiler GCC version 9.3.0
REM options -cpp -mtune=generic -march=x86-64 -g -O0
REM seed 1376793181 827668518 -1540185327 -335441446 673018395 -2073673514 -1209891269 -1161007447 -1171560733 -748245402 1539741909 -895543464 238078009 555588042 -1773610284 -438598108 832582667 -856584187 325357047 29881601 795573341 -52570901 -1191771611 -845234226 661367549 -1579659734 -1663428337 -1415088661 998297255 -1546285508 1753944050 -1046848141 1372857172
REM
CELL 1.54180   50.00000   50.00000   50.00000   90.00000   90.00000   90.00000
LATT -1
SFAC C  
C      1  0.4658660000000  0.5494230000000  0.4998340000000 1.0
C      1  0.5081470000000  0.4667090000000  0.5141780000000 1.0
C      1  0.5244810000000  0.5053630000000  0.5031200000000 1.0
C      1  0.4767960000000  0.4536320000000  0.5436530000000 1.0
C      1  0.4936470000000  0.5580930000000  0.5374190000000 1.0
C      1  0.4790090000000  0.4821840000000  0.5516380000000 1.0
C      1  0.4783190000000  0.4874650000000  0.4751080000000 1.0
C      1  0.4691280000000  0.4458060000000  0.4494010000000 1.0
C      1  0.5666530000000  0.5202470000000  0.5036200000000 1.0
C      1  0.5718630000000  0.4946600000000  0.4892430000000 1.0
C      1  0.5566370000000  0.4806340000000  0.4713970000000 1.0
C      1  0.5485190000000  0.5029340000000  0.5480150000000 1.0
C      1  0.4576730000000  0.5425910000000  0.4701690000000 1.0
C      1  0.5170740000000  0.4961190000000  0.4367040000000 1.0
C      1  0.5048570000000  0.4469910000000  0.5383600000000 1.0
C      1  0.5052400000000  0.5299640000000  0.5448970000000 1.0
C      1  0.5089890000000  0.5692590000000  0.4899460000000 1.0
C      1  0.4399270000000  0.4957110000000  0.5041970000000 1.0
C      1  0.5097830000000  0.4976780000000  0.4771670000000 1.0
C      1  0.4711430000000  0.4473940000000  0.4972770000000 1.0
C      1  0.5000700000000  0.5268820000000  0.4747030000000 1.0
C      1  0.5168050000000  0.4290500000000  0.5168410000000 1.0
C      1  0.5457250000000  0.4737110000000  0.5418740000000 1.0
C      1  0.4562070000000  0.5250650000000  0.5406160000000 1.0
C      1  0.4643580000000  0.4588660000000  0.4727090000000 1.0
C      1  0.4542930000000  0.4970280000000  0.5466720000000 1.0
C      1  0.4338630000000  0.5307270000000  0.4734730000000 1.0
C      1  0.5023430000000  0.5145830000000  0.5196000000000 1.0
C      1  0.5612050000000  0.4524960000000  0.5241720000000 1.0
C      1  0.5128340000000  0.4545820000000  0.4647630000000 1.0
C      1  0.4749140000000  0.5009920000000  0.4492010000000 1.0
C      1  0.4446170000000  0.5380500000000  0.5180070000000 1.0
C      1  0.5407850000000  0.5285970000000  0.4970890000000 1.0
C      1  0.4414610000000  0.4793360000000  0.5265680000000 1.0
C      1  0.5287360000000  0.4800630000000  0.4606280000000 1.0
C      1  0.4916850000000  0.4845010000000  0.4334740000000 1.0
C      1  0.5590270000000  0.4711990000000  0.4994720000000 1.0
C      1  0.5342910000000  0.4797160000000  0.5138750000000 1.0
C      1  0.5217360000000  0.5100750000000  0.5586280000000 1.0
C      1  0.4589600000000  0.4551310000000  0.5217530000000 1.0
C      1  0.4297380000000  0.5211680000000  0.4997450000000 1.0
C      1  0.4786420000000  0.5394610000000  0.5510630000000 1.0
C      1  0.5636840000000  0.5167520000000  0.5306540000000 1.0
C      1  0.5217840000000  0.4633650000000  0.5563800000000 1.0
C      1  0.5084990000000  0.5842940000000  0.4659430000000 1.0
C      1  0.4833540000000  0.5259860000000  0.4989970000000 1.0
C      1  0.4997390000000  0.5433020000000  0.4360850000000 1.0
C      1  0.5175030000000  0.5222290000000  0.4282890000000 1.0
C      1  0.5018840000000  0.4461740000000  0.4934830000000 1.0
C      1  0.5431150000000  0.4329450000000  0.5200800000000 1.0
C      1  0.4793870000000  0.5300140000000  0.4539170000000 1.0
C      1  0.5227590000000  0.5452400000000  0.4828910000000 1.0
C      1  0.4886300000000  0.5651080000000  0.5103190000000 1.0
C      1  0.4929040000000  0.4569010000000  0.4447470000000 1.0
C      1  0.4884450000000  0.4889460000000  0.5211390000000 1.0
C      1  0.5065060000000  0.4863850000000  0.5629600000000 1.0
C      1  0.5064560000000  0.5686900000000  0.4451940000000 1.0
C      1  0.4693030000000  0.4995370000000  0.4986490000000 1.0
END
