TITL C-66708-497-5 104.405009355778 125000 -532.175478959406 0 0 78 (C1) n - 1
REM
REM in /rds/project/t2_vol4/rds-t2-cs072/BORA/CARBON/from-Arr/AIRSS/Generating-Clusters/GAP-ML-2020/Only-C1/SD-CG/HFTN-CG
REM
REM
REM
REM
REM
REM ./C.cell (11c1c37f851c82e70ff6c80c92926a4b)
REM AIRSS Version 0.9.1 bugfix July 2018 build 013d7b7c2542+ Fri, 06 Jul 2018 19:26:36 +0100
REM compiler GCC version 9.3.0
REM options -cpp -mtune=generic -march=x86-64 -g -O0
REM seed 1195276763 -378382212 -479078430 -767260221 -866566500 -1010566383 -359626297 1391609560 -1723088975 -738527817 1711146092 663449635 128599455 919716427 468896250 -1462573726 1708920494 1971579018 2091459061 1315024551 -2135150995 2008086973 -1601967724 1871472060 -32345183 -2123020490 -623282341 1336542764 -912116926 1234056823 2111381445 1662740018 2023234944
REM
CELL 1.54180   50.00000   50.00000   50.00000   90.00000   90.00000   90.00000
LATT -1
SFAC C  
C      1  0.5219740000000  0.4548500000000  0.4425510000000 1.0
C      1  0.5606270000000  0.5110430000000  0.4679750000000 1.0
C      1  0.5132940000000  0.5827180000000  0.4950020000000 1.0
C      1  0.4798840000000  0.4469340000000  0.5512100000000 1.0
C      1  0.4982630000000  0.5825390000000  0.5204610000000 1.0
C      1  0.4893330000000  0.5823890000000  0.4797170000000 1.0
C      1  0.5555230000000  0.5295040000000  0.4464550000000 1.0
C      1  0.4452960000000  0.5029090000000  0.4373150000000 1.0
C      1  0.5129660000000  0.5038790000000  0.5745460000000 1.0
C      1  0.5475270000000  0.4460370000000  0.4986780000000 1.0
C      1  0.5299630000000  0.5597560000000  0.4850190000000 1.0
C      1  0.4746360000000  0.4315600000000  0.5281450000000 1.0
C      1  0.4997380000000  0.5653580000000  0.5423010000000 1.0
C      1  0.4820270000000  0.5051530000000  0.4887900000000 1.0
C      1  0.4189490000000  0.4705160000000  0.5005890000000 1.0
C      1  0.5543440000000  0.5138070000000  0.5493410000000 1.0
C      1  0.4613400000000  0.5280880000000  0.4367560000000 1.0
C      1  0.4581610000000  0.4424390000000  0.5077430000000 1.0
C      1  0.5178720000000  0.5335780000000  0.4959380000000 1.0
C      1  0.4755260000000  0.4629080000000  0.4343950000000 1.0
C      1  0.5601450000000  0.5107770000000  0.5212370000000 1.0
C      1  0.4684700000000  0.4881250000000  0.4247550000000 1.0
C      1  0.5085880000000  0.4660220000000  0.4667690000000 1.0
C      1  0.5170950000000  0.4755800000000  0.5141450000000 1.0
C      1  0.5338010000000  0.5091780000000  0.4828710000000 1.0
C      1  0.5089010000000  0.4435010000000  0.5535980000000 1.0
C      1  0.4249840000000  0.5371380000000  0.4906520000000 1.0
C      1  0.4211140000000  0.4934390000000  0.4862430000000 1.0
C      1  0.5180340000000  0.5559600000000  0.4565200000000 1.0
C      1  0.5388870000000  0.4949590000000  0.5636210000000 1.0
C      1  0.5612960000000  0.5394020000000  0.5165630000000 1.0
C      1  0.5208230000000  0.4266610000000  0.5347530000000 1.0
C      1  0.4754500000000  0.5513470000000  0.5511890000000 1.0
C      1  0.4686620000000  0.4728050000000  0.5562810000000 1.0
C      1  0.5625820000000  0.4802070000000  0.4638380000000 1.0
C      1  0.4829830000000  0.4919450000000  0.5734360000000 1.0
C      1  0.5106210000000  0.5132050000000  0.4391370000000 1.0
C      1  0.4390120000000  0.4946440000000  0.4634350000000 1.0
C      1  0.4848070000000  0.5124700000000  0.4278160000000 1.0
C      1  0.4744960000000  0.5773080000000  0.5036210000000 1.0
C      1  0.5284410000000  0.5356590000000  0.4408010000000 1.0
C      1  0.4652630000000  0.4893780000000  0.4729520000000 1.0
C      1  0.4771250000000  0.4639900000000  0.4641970000000 1.0
C      1  0.5207020000000  0.4937850000000  0.4593250000000 1.0
C      1  0.4871960000000  0.4208080000000  0.4699590000000 1.0
C      1  0.5422680000000  0.4755250000000  0.4448120000000 1.0
C      1  0.5472620000000  0.4685180000000  0.5552790000000 1.0
C      1  0.4671240000000  0.5485980000000  0.5032590000000 1.0
C      1  0.5185640000000  0.4533300000000  0.4920340000000 1.0
C      1  0.4914450000000  0.5142260000000  0.5306620000000 1.0
C      1  0.5099790000000  0.5316620000000  0.5730570000000 1.0
C      1  0.4625310000000  0.5485800000000  0.4555860000000 1.0
C      1  0.4647240000000  0.5324700000000  0.5294020000000 1.0
C      1  0.4820700000000  0.5368430000000  0.5737300000000 1.0
C      1  0.4993750000000  0.4445760000000  0.4284570000000 1.0
C      1  0.4470430000000  0.5477810000000  0.4810540000000 1.0
C      1  0.5432910000000  0.4913220000000  0.5042500000000 1.0
C      1  0.5214410000000  0.4670080000000  0.5430520000000 1.0
C      1  0.5585380000000  0.4703850000000  0.4896980000000 1.0
C      1  0.4994470000000  0.4191580000000  0.5183460000000 1.0
C      1  0.4693270000000  0.4405790000000  0.4806160000000 1.0
C      1  0.4494200000000  0.4831480000000  0.5366580000000 1.0
C      1  0.4674970000000  0.5142230000000  0.5774320000000 1.0
C      1  0.4429430000000  0.5112160000000  0.5294400000000 1.0
C      1  0.4246790000000  0.5146160000000  0.5065260000000 1.0
C      1  0.5505830000000  0.5421830000000  0.5439660000000 1.0
C      1  0.4401160000000  0.4633610000000  0.5167420000000 1.0
C      1  0.4896640000000  0.5343570000000  0.4866000000000 1.0
C      1  0.5474590000000  0.4351250000000  0.5247270000000 1.0
C      1  0.5033070000000  0.4274230000000  0.4919870000000 1.0
C      1  0.5222710000000  0.5468410000000  0.5503430000000 1.0
C      1  0.4938440000000  0.4928890000000  0.5120470000000 1.0
C      1  0.5587230000000  0.5529260000000  0.4913670000000 1.0
C      1  0.4893700000000  0.5591650000000  0.4628820000000 1.0
C      1  0.4944370000000  0.4222920000000  0.4442660000000 1.0
C      1  0.5139250000000  0.5300570000000  0.5250290000000 1.0
C      1  0.5606810000000  0.4467670000000  0.5471390000000 1.0
C      1  0.5699310000000  0.5385940000000  0.4689110000000 1.0
END
