TITL C-66144-5833-10 984.332536071292 125000 -950.39207778503 0 0 136 (C1) n - 1
REM
REM in /rds/project/t2_vol4/rds-t2-cs072/BORA/CARBON/from-Arr/AIRSS/Generating-Clusters/GAP-ML-2020/Only-C1/SD-CG/HFTN-CG
REM
REM
REM
REM
REM
REM ./C.cell (11c1c37f851c82e70ff6c80c92926a4b)
REM AIRSS Version 0.9.1 bugfix July 2018 build 013d7b7c2542+ Fri, 06 Jul 2018 19:26:36 +0100
REM compiler GCC version 9.3.0
REM options -cpp -mtune=generic -march=x86-64 -g -O0
REM seed -977665069 -1719762491 -1640157268 2020595679 286691998 -991398617 -344004247 -86520792 -42604192 -1755687544 -2135467027 -1744229118 -1763633590 -1196238273 2062023534 1226018466 -1285365996 2138515776 147157690 -435631475 2035476241 973137955 786316535 1992329335 -1744711897 -1602680944 -202140133 674381224 1142903989 -1530178175 652337431 686460989 -1451277975
REM
CELL 1.54180   50.00000   50.00000   50.00000   90.00000   90.00000   90.00000
LATT -1
SFAC C  
C      1  0.5092200000000  0.4551850000000  0.5904010000000 1.0
C      1  0.4973540000000  0.4543300000000  0.4976460000000 1.0
C      1  0.5058030000000  0.4790070000000  0.4318530000000 1.0
C      1  0.4678800000000  0.4812720000000  0.5897620000000 1.0
C      1  0.4686760000000  0.4057260000000  0.4738800000000 1.0
C      1  0.5349380000000  0.4860570000000  0.5487000000000 1.0
C      1  0.5481920000000  0.5679510000000  0.5351470000000 1.0
C      1  0.5525560000000  0.4480340000000  0.4378730000000 1.0
C      1  0.4673620000000  0.4550240000000  0.5355740000000 1.0
C      1  0.4965390000000  0.4005430000000  0.5103020000000 1.0
C      1  0.4255240000000  0.4342430000000  0.5151930000000 1.0
C      1  0.4056140000000  0.4935300000000  0.4886620000000 1.0
C      1  0.5583850000000  0.4061050000000  0.5167690000000 1.0
C      1  0.5403020000000  0.5536240000000  0.5104220000000 1.0
C      1  0.5060490000000  0.4793400000000  0.5460410000000 1.0
C      1  0.4599410000000  0.5612570000000  0.5040050000000 1.0
C      1  0.5925230000000  0.4883780000000  0.4892960000000 1.0
C      1  0.5468820000000  0.5127750000000  0.5866880000000 1.0
C      1  0.4734950000000  0.5878220000000  0.5090410000000 1.0
C      1  0.4951450000000  0.5000830000000  0.5284760000000 1.0
C      1  0.4067060000000  0.4707470000000  0.5063660000000 1.0
C      1  0.4137680000000  0.4467930000000  0.4908390000000 1.0
C      1  0.4716220000000  0.4762490000000  0.4685980000000 1.0
C      1  0.4552660000000  0.5850600000000  0.5540320000000 1.0
C      1  0.4504430000000  0.5208180000000  0.5693400000000 1.0
C      1  0.4613060000000  0.4894380000000  0.4452840000000 1.0
C      1  0.5184470000000  0.4347110000000  0.5363890000000 1.0
C      1  0.4714730000000  0.4583870000000  0.5082610000000 1.0
C      1  0.5412760000000  0.3935210000000  0.5316260000000 1.0
C      1  0.5693260000000  0.4491790000000  0.4927800000000 1.0
C      1  0.4570190000000  0.4218700000000  0.4526090000000 1.0
C      1  0.4661870000000  0.5132040000000  0.5238950000000 1.0
C      1  0.4198930000000  0.5244030000000  0.5264260000000 1.0
C      1  0.4468580000000  0.4147420000000  0.5220480000000 1.0
C      1  0.4484200000000  0.5481590000000  0.5701630000000 1.0
C      1  0.4200430000000  0.4555320000000  0.4633470000000 1.0
C      1  0.4773740000000  0.5998340000000  0.4824230000000 1.0
C      1  0.5437910000000  0.4527410000000  0.4128800000000 1.0
C      1  0.5271350000000  0.5800260000000  0.4677020000000 1.0
C      1  0.5730300000000  0.5169180000000  0.5710520000000 1.0
C      1  0.5215930000000  0.5186360000000  0.4630800000000 1.0
C      1  0.5232650000000  0.4455540000000  0.5071020000000 1.0
C      1  0.4206980000000  0.4598990000000  0.5301550000000 1.0
C      1  0.5926640000000  0.5135270000000  0.4756280000000 1.0
C      1  0.4773970000000  0.5141470000000  0.4497090000000 1.0
C      1  0.4332420000000  0.5452910000000  0.4564840000000 1.0
C      1  0.5208760000000  0.5550570000000  0.5781660000000 1.0
C      1  0.5391130000000  0.4954660000000  0.4661550000000 1.0
C      1  0.5679620000000  0.5583810000000  0.5524150000000 1.0
C      1  0.4698470000000  0.5097990000000  0.5874550000000 1.0
C      1  0.4568260000000  0.4285010000000  0.5452000000000 1.0
C      1  0.5625130000000  0.4975470000000  0.4410580000000 1.0
C      1  0.4573540000000  0.5640110000000  0.4538160000000 1.0
C      1  0.5023860000000  0.5592140000000  0.4238240000000 1.0
C      1  0.4609410000000  0.4544120000000  0.4258000000000 1.0
C      1  0.5051230000000  0.5263800000000  0.4871890000000 1.0
C      1  0.4310630000000  0.5886630000000  0.4824420000000 1.0
C      1  0.5488350000000  0.5088370000000  0.4150650000000 1.0
C      1  0.5045790000000  0.5090270000000  0.4427540000000 1.0
C      1  0.4740170000000  0.5555940000000  0.4290560000000 1.0
C      1  0.5802560000000  0.4787370000000  0.5402050000000 1.0
C      1  0.5712450000000  0.5545130000000  0.4768170000000 1.0
C      1  0.5036830000000  0.4252920000000  0.4459730000000 1.0
C      1  0.4390310000000  0.4438630000000  0.4454800000000 1.0
C      1  0.5355610000000  0.4566120000000  0.5791880000000 1.0
C      1  0.5863710000000  0.5349220000000  0.4928330000000 1.0
C      1  0.5479010000000  0.4841590000000  0.5770800000000 1.0
C      1  0.4422440000000  0.5057890000000  0.5432920000000 1.0
C      1  0.5709300000000  0.4686660000000  0.4480630000000 1.0
C      1  0.5129930000000  0.4030700000000  0.4862580000000 1.0
C      1  0.4964730000000  0.4801790000000  0.5971500000000 1.0
C      1  0.4535830000000  0.5913050000000  0.4668990000000 1.0
C      1  0.5826390000000  0.4653820000000  0.4740090000000 1.0
C      1  0.5141180000000  0.5402270000000  0.4059350000000 1.0
C      1  0.4341020000000  0.5647630000000  0.5511850000000 1.0
C      1  0.5492800000000  0.5208270000000  0.5138570000000 1.0
C      1  0.4615160000000  0.5066560000000  0.4965230000000 1.0
C      1  0.5605700000000  0.4219020000000  0.4946200000000 1.0
C      1  0.5284660000000  0.4398210000000  0.4561180000000 1.0
C      1  0.5198590000000  0.4707350000000  0.4580000000000 1.0
C      1  0.4992120000000  0.5094690000000  0.5949040000000 1.0
C      1  0.5222410000000  0.5277420000000  0.5903780000000 1.0
C      1  0.4677410000000  0.5514480000000  0.4780620000000 1.0
C      1  0.4767440000000  0.5246920000000  0.4777820000000 1.0
C      1  0.5255740000000  0.5697290000000  0.4404350000000 1.0
C      1  0.5806140000000  0.5225710000000  0.5196980000000 1.0
C      1  0.4952790000000  0.4520410000000  0.5475500000000 1.0
C      1  0.5538160000000  0.4656970000000  0.5359480000000 1.0
C      1  0.4770570000000  0.5073500000000  0.4064310000000 1.0
C      1  0.5705110000000  0.5455200000000  0.4500660000000 1.0
C      1  0.5012000000000  0.5903290000000  0.5413360000000 1.0
C      1  0.5420700000000  0.5361820000000  0.4134630000000 1.0
C      1  0.4360990000000  0.5249510000000  0.4370270000000 1.0
C      1  0.4635610000000  0.5287390000000  0.4241720000000 1.0
C      1  0.5040520000000  0.5822900000000  0.5094530000000 1.0
C      1  0.5410490000000  0.4451650000000  0.5532780000000 1.0
C      1  0.4112190000000  0.5198020000000  0.4986010000000 1.0
C      1  0.4293280000000  0.5640450000000  0.5003380000000 1.0
C      1  0.5497560000000  0.5549150000000  0.4329180000000 1.0
C      1  0.4418180000000  0.4740530000000  0.5473530000000 1.0
C      1  0.4698210000000  0.5429330000000  0.5253610000000 1.0
C      1  0.5480850000000  0.5681600000000  0.4851450000000 1.0
C      1  0.5755340000000  0.4891470000000  0.5659470000000 1.0
C      1  0.5892890000000  0.4941990000000  0.5174850000000 1.0
C      1  0.4958520000000  0.4050070000000  0.4646570000000 1.0
C      1  0.5431770000000  0.5637610000000  0.5633250000000 1.0
C      1  0.4779510000000  0.4327480000000  0.4354110000000 1.0
C      1  0.4199540000000  0.5426950000000  0.4824580000000 1.0
C      1  0.5093870000000  0.5221160000000  0.5406640000000 1.0
C      1  0.5813920000000  0.5340720000000  0.5489490000000 1.0
C      1  0.4972330000000  0.5468040000000  0.5342900000000 1.0
C      1  0.4905150000000  0.4401680000000  0.5748310000000 1.0
C      1  0.4151360000000  0.4840730000000  0.4624440000000 1.0
C      1  0.4737040000000  0.5970210000000  0.5367620000000 1.0
C      1  0.5266380000000  0.4966050000000  0.4007400000000 1.0
C      1  0.4586000000000  0.4788450000000  0.4929310000000 1.0
C      1  0.5095330000000  0.4984940000000  0.4998680000000 1.0
C      1  0.4219870000000  0.5530700000000  0.5286490000000 1.0
C      1  0.4756130000000  0.4803660000000  0.4211170000000 1.0
C      1  0.4516540000000  0.4636500000000  0.5752800000000 1.0
C      1  0.4622520000000  0.4357170000000  0.5731660000000 1.0
C      1  0.5062370000000  0.5939530000000  0.4826340000000 1.0
C      1  0.4323930000000  0.4978390000000  0.4443910000000 1.0
C      1  0.4677790000000  0.4033780000000  0.5036990000000 1.0
C      1  0.4984870000000  0.5662540000000  0.5612810000000 1.0
C      1  0.5471450000000  0.4648220000000  0.5070310000000 1.0
C      1  0.4995310000000  0.4751450000000  0.4784390000000 1.0
C      1  0.4700500000000  0.5680740000000  0.5714120000000 1.0
C      1  0.5326620000000  0.4254070000000  0.4837820000000 1.0
C      1  0.5111050000000  0.5526440000000  0.5085790000000 1.0
C      1  0.5237390000000  0.4703050000000  0.4090560000000 1.0
C      1  0.5365420000000  0.5147640000000  0.5392470000000 1.0
C      1  0.5397700000000  0.4948330000000  0.4970090000000 1.0
C      1  0.5033820000000  0.5144590000000  0.3986330000000 1.0
C      1  0.5152280000000  0.4051890000000  0.5322040000000 1.0
C      1  0.5808250000000  0.5185770000000  0.4501090000000 1.0
END
