TITL C-66695-1170-9 0.022287903478119 125000 -203.469636338791 0 0 31 (C1) n - 1
REM
REM in /rds/project/t2_vol4/rds-t2-cs072/BORA/CARBON/from-Arr/AIRSS/Generating-Clusters/GAP-ML-2020/Only-C1/SD-CG/HFTN-CG
REM
REM
REM
REM
REM
REM ./C.cell (11c1c37f851c82e70ff6c80c92926a4b)
REM AIRSS Version 0.9.1 bugfix July 2018 build 013d7b7c2542+ Fri, 06 Jul 2018 19:26:36 +0100
REM compiler GCC version 9.3.0
REM options -cpp -mtune=generic -march=x86-64 -g -O0
REM seed -1927857709 395639868 1108535732 -430489145 410154932 372855303 -261823858 -367909036 287619307 -513970365 -58150791 2129436648 1724744051 -800516611 -1410484377 668475108 -1201912645 -302462985 -1539448788 208751244 -887200508 -1747389418 1397347766 -278101321 1316391656 -1251990237 -130918447 -175649950 1737260265 -1197035234 1952650411 1116769536 470430218
REM
CELL 1.54180   50.00000   50.00000   50.00000   90.00000   90.00000   90.00000
LATT -1
SFAC C  
C      1  0.4892080000000  0.4466820000000  0.4717800000000 1.0
C      1  0.4825050000000  0.4732560000000  0.4773940000000 1.0
C      1  0.5470460000000  0.4938150000000  0.5019960000000 1.0
C      1  0.4904220000000  0.4730090000000  0.5455250000000 1.0
C      1  0.5141740000000  0.4669200000000  0.5290590000000 1.0
C      1  0.5406500000000  0.5151790000000  0.4830430000000 1.0
C      1  0.4879890000000  0.5003680000000  0.5493660000000 1.0
C      1  0.4634270000000  0.5385740000000  0.5315400000000 1.0
C      1  0.5373280000000  0.5417070000000  0.4853150000000 1.0
C      1  0.5042170000000  0.5401080000000  0.5242100000000 1.0
C      1  0.4567070000000  0.5011800000000  0.5130130000000 1.0
C      1  0.5005090000000  0.4441090000000  0.5170540000000 1.0
C      1  0.4952780000000  0.4974710000000  0.4678120000000 1.0
C      1  0.5619060000000  0.4703490000000  0.4981710000000 1.0
C      1  0.5334940000000  0.4286920000000  0.4874540000000 1.0
C      1  0.5059040000000  0.4357530000000  0.4910860000000 1.0
C      1  0.4892500000000  0.5519170000000  0.4763090000000 1.0
C      1  0.5205020000000  0.4944290000000  0.5158560000000 1.0
C      1  0.5094990000000  0.5136540000000  0.5348920000000 1.0
C      1  0.4950730000000  0.5342970000000  0.4319080000000 1.0
C      1  0.4961190000000  0.5546790000000  0.4497960000000 1.0
C      1  0.4563230000000  0.5291610000000  0.5039440000000 1.0
C      1  0.4625210000000  0.5108160000000  0.5408660000000 1.0
C      1  0.4974650000000  0.5129730000000  0.4464290000000 1.0
C      1  0.4757940000000  0.4589550000000  0.5252610000000 1.0
C      1  0.5095930000000  0.5100080000000  0.4897450000000 1.0
C      1  0.4647060000000  0.5407460000000  0.4819730000000 1.0
C      1  0.4695240000000  0.4778740000000  0.5036680000000 1.0
C      1  0.4844860000000  0.5552620000000  0.5367830000000 1.0
C      1  0.5089400000000  0.5400920000000  0.4951580000000 1.0
C      1  0.5494430000000  0.4479660000000  0.4935910000000 1.0
END
