TITL C-66148-6931-2 0.349577466936776 125000 -879.884951646532 0 0 126 (C1) n - 1
REM
REM in /rds/project/t2_vol4/rds-t2-cs072/BORA/CARBON/from-Arr/AIRSS/Generating-Clusters/GAP-ML-2020/Only-C1/SD-CG/HFTN-CG
REM
REM
REM
REM
REM
REM ./C.cell (11c1c37f851c82e70ff6c80c92926a4b)
REM AIRSS Version 0.9.1 bugfix July 2018 build 013d7b7c2542+ Fri, 06 Jul 2018 19:26:36 +0100
REM compiler GCC version 9.3.0
REM options -cpp -mtune=generic -march=x86-64 -g -O0
REM seed -544582197 1158266354 1966895985 1129915316 1033091855 -432504378 -699366650 1111735277 -522403185 -1060650887 822336618 30420279 -708814507 -1824855180 -713224467 -808842301 3910331 1003882631 -740357070 -135273384 -669523943 -1047163126 -191476585 -518828562 -1826076694 -146051578 343193748 -377622371 695709449 -257923409 325174529 847028188 201017888
REM
CELL 1.54180   50.00000   50.00000   50.00000   90.00000   90.00000   90.00000
LATT -1
SFAC C  
C      1  0.5105290000000  0.5737350000000  0.4771180000000 1.0
C      1  0.4159450000000  0.5000580000000  0.5190160000000 1.0
C      1  0.4508170000000  0.4236100000000  0.4677230000000 1.0
C      1  0.5099660000000  0.5377280000000  0.5900460000000 1.0
C      1  0.4900920000000  0.4487240000000  0.5730700000000 1.0
C      1  0.5398680000000  0.5710510000000  0.4798310000000 1.0
C      1  0.4331530000000  0.4472840000000  0.5347490000000 1.0
C      1  0.4936420000000  0.5913820000000  0.4944860000000 1.0
C      1  0.5034130000000  0.4753260000000  0.4685540000000 1.0
C      1  0.5361860000000  0.5412900000000  0.5786190000000 1.0
C      1  0.5267360000000  0.4585500000000  0.4751530000000 1.0
C      1  0.5979180000000  0.4579570000000  0.4915620000000 1.0
C      1  0.4312770000000  0.5600330000000  0.4640500000000 1.0
C      1  0.4917190000000  0.5802980000000  0.4291960000000 1.0
C      1  0.4373300000000  0.4357350000000  0.5089070000000 1.0
C      1  0.4936980000000  0.5619480000000  0.5853730000000 1.0
C      1  0.4690800000000  0.4099220000000  0.4849140000000 1.0
C      1  0.5470710000000  0.5785340000000  0.5403840000000 1.0
C      1  0.4970440000000  0.5471880000000  0.4869390000000 1.0
C      1  0.4118010000000  0.4967670000000  0.4698510000000 1.0
C      1  0.5110540000000  0.5576900000000  0.4310530000000 1.0
C      1  0.5643380000000  0.5691680000000  0.5182970000000 1.0
C      1  0.4853800000000  0.4718160000000  0.4379090000000 1.0
C      1  0.4367150000000  0.4959310000000  0.4302870000000 1.0
C      1  0.4302370000000  0.5386470000000  0.5479900000000 1.0
C      1  0.5297700000000  0.5368490000000  0.4205080000000 1.0
C      1  0.5395860000000  0.4066970000000  0.5052310000000 1.0
C      1  0.4700540000000  0.5469930000000  0.5821720000000 1.0
C      1  0.5183740000000  0.4308180000000  0.4388880000000 1.0
C      1  0.5439120000000  0.5043140000000  0.5200310000000 1.0
C      1  0.5111580000000  0.5043340000000  0.4736950000000 1.0
C      1  0.4427530000000  0.4908190000000  0.5114320000000 1.0
C      1  0.4931920000000  0.4196390000000  0.4461480000000 1.0
C      1  0.4907160000000  0.4912870000000  0.5321110000000 1.0
C      1  0.5731460000000  0.5184110000000  0.5186980000000 1.0
C      1  0.4159640000000  0.5592900000000  0.4874730000000 1.0
C      1  0.4661180000000  0.4297360000000  0.4440590000000 1.0
C      1  0.4553160000000  0.4806360000000  0.5792170000000 1.0
C      1  0.4735970000000  0.4143510000000  0.5393720000000 1.0
C      1  0.5505500000000  0.4689700000000  0.4862840000000 1.0
C      1  0.5218210000000  0.4082760000000  0.4825690000000 1.0
C      1  0.4668620000000  0.5701260000000  0.4397240000000 1.0
C      1  0.5705310000000  0.5373280000000  0.4512010000000 1.0
C      1  0.5323390000000  0.3967430000000  0.5313300000000 1.0
C      1  0.4594270000000  0.5179270000000  0.5070570000000 1.0
C      1  0.4818310000000  0.4904640000000  0.4174270000000 1.0
C      1  0.4849700000000  0.5341320000000  0.5465430000000 1.0
C      1  0.4234060000000  0.5108550000000  0.5465640000000 1.0
C      1  0.5139080000000  0.4858050000000  0.5497870000000 1.0
C      1  0.5796000000000  0.4851300000000  0.5539240000000 1.0
C      1  0.4333290000000  0.5387810000000  0.4448610000000 1.0
C      1  0.4636420000000  0.5767940000000  0.5399700000000 1.0
C      1  0.5743510000000  0.5111270000000  0.5523180000000 1.0
C      1  0.4570290000000  0.5514210000000  0.5551670000000 1.0
C      1  0.5302500000000  0.5118560000000  0.5462880000000 1.0
C      1  0.5725430000000  0.4440350000000  0.4859490000000 1.0
C      1  0.4566820000000  0.4838420000000  0.4835570000000 1.0
C      1  0.5436140000000  0.4390370000000  0.5472770000000 1.0
C      1  0.4512770000000  0.5826370000000  0.5144670000000 1.0
C      1  0.5055360000000  0.4450700000000  0.5267500000000 1.0
C      1  0.4983010000000  0.4285890000000  0.5502410000000 1.0
C      1  0.5111660000000  0.5794730000000  0.4489900000000 1.0
C      1  0.4657000000000  0.5125930000000  0.4801010000000 1.0
C      1  0.5880400000000  0.4994780000000  0.4724540000000 1.0
C      1  0.4622740000000  0.4558240000000  0.4355820000000 1.0
C      1  0.5243510000000  0.5127820000000  0.5001820000000 1.0
C      1  0.4208160000000  0.5124920000000  0.4471690000000 1.0
C      1  0.5399590000000  0.5154360000000  0.4761500000000 1.0
C      1  0.5927780000000  0.5233530000000  0.4570960000000 1.0
C      1  0.5505860000000  0.5199180000000  0.5658940000000 1.0
C      1  0.5693070000000  0.5445200000000  0.5055090000000 1.0
C      1  0.5007370000000  0.4760100000000  0.5754580000000 1.0
C      1  0.4459110000000  0.4734370000000  0.5340570000000 1.0
C      1  0.4824820000000  0.5171210000000  0.5236370000000 1.0
C      1  0.5319720000000  0.5955290000000  0.5224300000000 1.0
C      1  0.4039660000000  0.5093180000000  0.4952730000000 1.0
C      1  0.5296930000000  0.5628810000000  0.5577410000000 1.0
C      1  0.4830160000000  0.4505600000000  0.5098850000000 1.0
C      1  0.5038280000000  0.5959150000000  0.5204820000000 1.0
C      1  0.5136690000000  0.5386270000000  0.5400520000000 1.0
C      1  0.5053810000000  0.5774760000000  0.5656160000000 1.0
C      1  0.5482110000000  0.4756690000000  0.5172260000000 1.0
C      1  0.4058560000000  0.5363030000000  0.5030200000000 1.0
C      1  0.4546760000000  0.5767130000000  0.4643450000000 1.0
C      1  0.5487310000000  0.5861110000000  0.5010100000000 1.0
C      1  0.4656280000000  0.4235770000000  0.5108930000000 1.0
C      1  0.4855010000000  0.5212000000000  0.5907920000000 1.0
C      1  0.5644890000000  0.4466830000000  0.4334620000000 1.0
C      1  0.5906620000000  0.5015720000000  0.5028650000000 1.0
C      1  0.4291720000000  0.4703190000000  0.4684140000000 1.0
C      1  0.4157740000000  0.5502380000000  0.5271460000000 1.0
C      1  0.5515970000000  0.4960520000000  0.4372510000000 1.0
C      1  0.5675040000000  0.4381990000000  0.5326800000000 1.0
C      1  0.5553640000000  0.5446450000000  0.4777590000000 1.0
C      1  0.4589190000000  0.5392580000000  0.4298020000000 1.0
C      1  0.5278930000000  0.4620930000000  0.5353250000000 1.0
C      1  0.4531720000000  0.4079590000000  0.5558300000000 1.0
C      1  0.4323880000000  0.4421930000000  0.4818650000000 1.0
C      1  0.4895400000000  0.5874330000000  0.5439190000000 1.0
C      1  0.5076480000000  0.5192660000000  0.4166360000000 1.0
C      1  0.5963210000000  0.4758870000000  0.5128500000000 1.0
C      1  0.5805370000000  0.4500330000000  0.4536130000000 1.0
C      1  0.4615320000000  0.4520290000000  0.5752190000000 1.0
C      1  0.5576040000000  0.4934020000000  0.4680980000000 1.0
C      1  0.5624370000000  0.4259610000000  0.5069320000000 1.0
C      1  0.4382480000000  0.4894520000000  0.5578960000000 1.0
C      1  0.4258290000000  0.5721260000000  0.5114110000000 1.0
C      1  0.4658930000000  0.5873270000000  0.4898580000000 1.0
C      1  0.4453080000000  0.4342590000000  0.5578390000000 1.0
C      1  0.5980500000000  0.4706140000000  0.4657920000000 1.0
C      1  0.4900860000000  0.5245870000000  0.4685570000000 1.0
C      1  0.4813870000000  0.4675620000000  0.4858570000000 1.0
C      1  0.4744900000000  0.4690440000000  0.5303730000000 1.0
C      1  0.4384720000000  0.4699460000000  0.4402360000000 1.0
C      1  0.5262940000000  0.4160180000000  0.5495760000000 1.0
C      1  0.5274050000000  0.4305500000000  0.4659030000000 1.0
C      1  0.5331730000000  0.4791400000000  0.4229850000000 1.0
C      1  0.4898680000000  0.5339160000000  0.4375390000000 1.0
C      1  0.4948620000000  0.4062010000000  0.4721510000000 1.0
C      1  0.5371330000000  0.4504780000000  0.4259350000000 1.0
C      1  0.5767160000000  0.4670930000000  0.5323210000000 1.0
C      1  0.5099060000000  0.4923890000000  0.4123750000000 1.0
C      1  0.4589930000000  0.5084860000000  0.4194670000000 1.0
C      1  0.5075270000000  0.5338400000000  0.5108450000000 1.0
C      1  0.4803810000000  0.4934030000000  0.5870760000000 1.0
C      1  0.5527290000000  0.5245390000000  0.4319330000000 1.0
END
