TITL C-66602-1617-7 -2.58702124341146 125000 -174.705123518621 0 0 27 (C1) n - 1
REM
REM in /rds/project/t2_vol4/rds-t2-cs072/BORA/CARBON/from-Arr/AIRSS/Generating-Clusters/GAP-ML-2020/Only-C1/SD-CG/HFTN-CG
REM
REM
REM
REM
REM
REM ./C.cell (11c1c37f851c82e70ff6c80c92926a4b)
REM AIRSS Version 0.9.1 bugfix July 2018 build 013d7b7c2542+ Fri, 06 Jul 2018 19:26:36 +0100
REM compiler GCC version 9.3.0
REM options -cpp -mtune=generic -march=x86-64 -g -O0
REM seed 782527837 -21171734 -516033930 -1261804683 1329173742 -396549137 -1199058927 1535454061 731433177 498768194 -1141053829 -1562778609 -2137339983 -1145456757 569742089 -414792140 -1341450212 1437127590 -15774069 -903905884 -102417070 1774727514 286946929 -815880382 1795439318 -1727790692 750488009 1678186365 -1865457973 1424662885 2132387973 290077017 -666472334
REM
CELL 1.54180   50.00000   50.00000   50.00000   90.00000   90.00000   90.00000
LATT -1
SFAC C  
C      1  0.4884270000000  0.5275110000000  0.4802510000000 1.0
C      1  0.4506170000000  0.4697970000000  0.4853390000000 1.0
C      1  0.5254930000000  0.5324910000000  0.4937960000000 1.0
C      1  0.5182660000000  0.4961330000000  0.4491800000000 1.0
C      1  0.4604790000000  0.5355650000000  0.5147220000000 1.0
C      1  0.5138070000000  0.4662140000000  0.5595820000000 1.0
C      1  0.5212850000000  0.5212830000000  0.4428410000000 1.0
C      1  0.4736050000000  0.4563260000000  0.4830060000000 1.0
C      1  0.5102860000000  0.4612550000000  0.5106060000000 1.0
C      1  0.4944270000000  0.5701520000000  0.5045690000000 1.0
C      1  0.5207570000000  0.4590030000000  0.5355350000000 1.0
C      1  0.4421200000000  0.5199250000000  0.4996510000000 1.0
C      1  0.4867790000000  0.5045040000000  0.5479060000000 1.0
C      1  0.4852090000000  0.5029430000000  0.4985590000000 1.0
C      1  0.5304990000000  0.5063410000000  0.5047000000000 1.0
C      1  0.5113480000000  0.4776910000000  0.4678040000000 1.0
C      1  0.4801040000000  0.5155910000000  0.5249520000000 1.0
C      1  0.4987280000000  0.4881870000000  0.5629710000000 1.0
C      1  0.5548700000000  0.4952420000000  0.5069710000000 1.0
C      1  0.4950070000000  0.4428340000000  0.4944980000000 1.0
C      1  0.5705820000000  0.4758540000000  0.5086650000000 1.0
C      1  0.5130600000000  0.5321720000000  0.4671630000000 1.0
C      1  0.4768360000000  0.5498490000000  0.4960760000000 1.0
C      1  0.4959700000000  0.4542370000000  0.4663680000000 1.0
C      1  0.5165580000000  0.5562470000000  0.5048510000000 1.0
C      1  0.4549900000000  0.4958770000000  0.4923420000000 1.0
C      1  0.5098900000000  0.4867760000000  0.4970960000000 1.0
END
