TITL C-66715-9796-2 -49.5345876671066 125000 -498.147761864424 0 0 72 (C1) n - 1
REM
REM in /rds/project/t2_vol4/rds-t2-cs072/BORA/CARBON/from-Arr/AIRSS/Generating-Clusters/GAP-ML-2020/Only-C1/SD-CG/HFTN-CG
REM
REM
REM
REM
REM
REM ./C.cell (11c1c37f851c82e70ff6c80c92926a4b)
REM AIRSS Version 0.9.1 bugfix July 2018 build 013d7b7c2542+ Fri, 06 Jul 2018 19:26:36 +0100
REM compiler GCC version 9.3.0
REM options -cpp -mtune=generic -march=x86-64 -g -O0
REM seed -687979401 996867282 355628115 525607429 -1008185659 1312846854 -843897804 1699209795 1661245434 2067307741 1621646158 -416518364 952746417 -206421233 306275738 -123715078 585032652 609685426 1049784950 -221107283 -1829825964 -446797025 -509389844 -66307582 -1966056379 972427906 1169944708 -93170949 -1429535705 1580362426 -1481943384 1088966310 -917523827
REM
CELL 1.54180   50.00000   50.00000   50.00000   90.00000   90.00000   90.00000
LATT -1
SFAC C  
C      1  0.4745130000000  0.4816030000000  0.4383880000000 1.0
C      1  0.5628520000000  0.5127990000000  0.4701150000000 1.0
C      1  0.5033350000000  0.4044560000000  0.4904230000000 1.0
C      1  0.5086200000000  0.4532160000000  0.5447830000000 1.0
C      1  0.5137820000000  0.5266480000000  0.5660800000000 1.0
C      1  0.5193840000000  0.5523450000000  0.5237610000000 1.0
C      1  0.4849450000000  0.4687080000000  0.4878850000000 1.0
C      1  0.4605040000000  0.5608420000000  0.4886530000000 1.0
C      1  0.4963950000000  0.5467020000000  0.4316170000000 1.0
C      1  0.5045480000000  0.5331780000000  0.4778110000000 1.0
C      1  0.5134440000000  0.5805210000000  0.4879040000000 1.0
C      1  0.4457040000000  0.5375090000000  0.4834390000000 1.0
C      1  0.4480350000000  0.4817520000000  0.5184210000000 1.0
C      1  0.5312490000000  0.4860800000000  0.5697440000000 1.0
C      1  0.4627910000000  0.4328620000000  0.4915280000000 1.0
C      1  0.4861060000000  0.4209600000000  0.4781290000000 1.0
C      1  0.4120020000000  0.5071500000000  0.4978590000000 1.0
C      1  0.5141550000000  0.4988730000000  0.5290530000000 1.0
C      1  0.4545160000000  0.4678490000000  0.5615460000000 1.0
C      1  0.5563260000000  0.4644330000000  0.5371220000000 1.0
C      1  0.4750800000000  0.5089430000000  0.5734240000000 1.0
C      1  0.5150680000000  0.5656080000000  0.4439170000000 1.0
C      1  0.5797090000000  0.4921010000000  0.5085290000000 1.0
C      1  0.5011710000000  0.5696110000000  0.5112260000000 1.0
C      1  0.5169630000000  0.4951140000000  0.5019870000000 1.0
C      1  0.5617320000000  0.5325910000000  0.5188810000000 1.0
C      1  0.4790050000000  0.5288910000000  0.5213790000000 1.0
C      1  0.5060410000000  0.5284010000000  0.5365380000000 1.0
C      1  0.5067170000000  0.5218420000000  0.4244390000000 1.0
C      1  0.4759430000000  0.5574830000000  0.5116630000000 1.0
C      1  0.5578080000000  0.4840150000000  0.4694190000000 1.0
C      1  0.4974430000000  0.4943780000000  0.4278790000000 1.0
C      1  0.4574100000000  0.4973750000000  0.4570380000000 1.0
C      1  0.4755150000000  0.4708670000000  0.5156270000000 1.0
C      1  0.5691050000000  0.4716920000000  0.4924160000000 1.0
C      1  0.4575710000000  0.4542540000000  0.4727780000000 1.0
C      1  0.4935550000000  0.4787100000000  0.5382470000000 1.0
C      1  0.5399420000000  0.5575850000000  0.4569460000000 1.0
C      1  0.4285450000000  0.4850710000000  0.4957400000000 1.0
C      1  0.5334690000000  0.5154610000000  0.4335370000000 1.0
C      1  0.4782270000000  0.4945750000000  0.4782450000000 1.0
C      1  0.4334340000000  0.5231890000000  0.5055280000000 1.0
C      1  0.5443200000000  0.5536540000000  0.5103640000000 1.0
C      1  0.4700290000000  0.5480890000000  0.4450470000000 1.0
C      1  0.4531300000000  0.5134980000000  0.5277930000000 1.0
C      1  0.4371390000000  0.4878820000000  0.5689380000000 1.0
C      1  0.5547070000000  0.4538390000000  0.5091990000000 1.0
C      1  0.5394360000000  0.5120660000000  0.5650470000000 1.0
C      1  0.4407040000000  0.4769300000000  0.4714500000000 1.0
C      1  0.5158740000000  0.4684030000000  0.4862920000000 1.0
C      1  0.4501220000000  0.5114660000000  0.5578790000000 1.0
C      1  0.5321350000000  0.4745560000000  0.4610830000000 1.0
C      1  0.4948960000000  0.5131770000000  0.4926600000000 1.0
C      1  0.4991480000000  0.5799370000000  0.4636060000000 1.0
C      1  0.5733260000000  0.5172450000000  0.4972980000000 1.0
C      1  0.4808600000000  0.4813680000000  0.5639810000000 1.0
C      1  0.4689790000000  0.4403320000000  0.5206640000000 1.0
C      1  0.5241790000000  0.4879840000000  0.4381240000000 1.0
C      1  0.5593150000000  0.5152460000000  0.5434400000000 1.0
C      1  0.4493150000000  0.4554060000000  0.5368620000000 1.0
C      1  0.4968070000000  0.4322610000000  0.5297650000000 1.0
C      1  0.4730140000000  0.5692280000000  0.4641750000000 1.0
C      1  0.4924210000000  0.4364320000000  0.4545690000000 1.0
C      1  0.4738730000000  0.4546830000000  0.4475240000000 1.0
C      1  0.5338840000000  0.4620080000000  0.5555250000000 1.0
C      1  0.5304560000000  0.4449100000000  0.4980640000000 1.0
C      1  0.5702570000000  0.4895800000000  0.5352770000000 1.0
C      1  0.4533040000000  0.5272960000000  0.4571020000000 1.0
C      1  0.5493690000000  0.5303180000000  0.4516650000000 1.0
C      1  0.5131670000000  0.4234600000000  0.5073630000000 1.0
C      1  0.5390380000000  0.5674290000000  0.4846700000000 1.0
C      1  0.4941380000000  0.5250740000000  0.5849330000000 1.0
END
