TITL C-66135-5833-3 -0.108240113813998 125000 -419.345505106485 0 0 62 (C1) n - 1
REM
REM in /rds/project/t2_vol4/rds-t2-cs072/BORA/CARBON/from-Arr/AIRSS/Generating-Clusters/GAP-ML-2020/Only-C1/SD-CG/HFTN-CG
REM
REM
REM
REM
REM
REM ./C.cell (11c1c37f851c82e70ff6c80c92926a4b)
REM AIRSS Version 0.9.1 bugfix July 2018 build 013d7b7c2542+ Fri, 06 Jul 2018 19:26:36 +0100
REM compiler GCC version 9.3.0
REM options -cpp -mtune=generic -march=x86-64 -g -O0
REM seed 996960627 1298687778 1942617144 1220643281 -886953662 2006059511 -99022613 198668158 -1334868480 -49774820 -190069979 1612993972 -2126949027 -1775718232 -849252104 45227387 287033650 -120207254 -5344866 -1344923939 961068840 -1190318131 940729458 1052502649 1583206107 1595340801 760735643 -368557870 -495664511 -1097665552 -185471697 1029484822 -152041902
REM
CELL 1.54180   50.00000   50.00000   50.00000   90.00000   90.00000   90.00000
LATT -1
SFAC C  
C      1  0.4718360000000  0.5009310000000  0.5288860000000 1.0
C      1  0.4734040000000  0.5172710000000  0.5532800000000 1.0
C      1  0.5088450000000  0.5727940000000  0.5125510000000 1.0
C      1  0.5476700000000  0.5397870000000  0.5248900000000 1.0
C      1  0.4462180000000  0.4689770000000  0.4864280000000 1.0
C      1  0.5077740000000  0.4544750000000  0.5516220000000 1.0
C      1  0.5166540000000  0.5591460000000  0.4669960000000 1.0
C      1  0.5458630000000  0.5095190000000  0.5607250000000 1.0
C      1  0.5045830000000  0.5031430000000  0.4352690000000 1.0
C      1  0.4221910000000  0.5064610000000  0.5075280000000 1.0
C      1  0.4985970000000  0.4649400000000  0.4981720000000 1.0
C      1  0.4882270000000  0.4738900000000  0.5572150000000 1.0
C      1  0.4937730000000  0.5017790000000  0.5644260000000 1.0
C      1  0.4824110000000  0.5173430000000  0.4259580000000 1.0
C      1  0.5112210000000  0.4409750000000  0.4829440000000 1.0
C      1  0.4667030000000  0.5385570000000  0.4599380000000 1.0
C      1  0.4560520000000  0.5506320000000  0.5227260000000 1.0
C      1  0.5220760000000  0.4293020000000  0.5083700000000 1.0
C      1  0.5031790000000  0.4744160000000  0.4379600000000 1.0
C      1  0.5081380000000  0.4122050000000  0.5252990000000 1.0
C      1  0.4813930000000  0.5584230000000  0.5079430000000 1.0
C      1  0.4637230000000  0.4472040000000  0.4919480000000 1.0
C      1  0.5282060000000  0.5223880000000  0.4368150000000 1.0
C      1  0.5577040000000  0.4651250000000  0.5053610000000 1.0
C      1  0.5597290000000  0.4886370000000  0.5211000000000 1.0
C      1  0.5500700000000  0.5523590000000  0.4966300000000 1.0
C      1  0.4803330000000  0.4656710000000  0.4529270000000 1.0
C      1  0.5358070000000  0.4593270000000  0.5459580000000 1.0
C      1  0.5330630000000  0.4487530000000  0.4663750000000 1.0
C      1  0.5421700000000  0.4467640000000  0.5204180000000 1.0
C      1  0.5186040000000  0.5085960000000  0.5535950000000 1.0
C      1  0.4627540000000  0.4868040000000  0.4698080000000 1.0
C      1  0.4934770000000  0.5062590000000  0.5112200000000 1.0
C      1  0.4769190000000  0.4522950000000  0.5171360000000 1.0
C      1  0.5578250000000  0.5322270000000  0.5502980000000 1.0
C      1  0.5290990000000  0.4668890000000  0.4447760000000 1.0
C      1  0.4425670000000  0.5478480000000  0.4980170000000 1.0
C      1  0.5440310000000  0.5260700000000  0.4843020000000 1.0
C      1  0.5538690000000  0.4655490000000  0.4776550000000 1.0
C      1  0.5051940000000  0.5076510000000  0.4685880000000 1.0
C      1  0.4294590000000  0.4782140000000  0.5068890000000 1.0
C      1  0.4504870000000  0.5291120000000  0.5422870000000 1.0
C      1  0.5494190000000  0.4852660000000  0.4565890000000 1.0
C      1  0.4908490000000  0.4913470000000  0.4867280000000 1.0
C      1  0.4374460000000  0.4799620000000  0.5354420000000 1.0
C      1  0.4662140000000  0.4724560000000  0.5372090000000 1.0
C      1  0.5139330000000  0.5473100000000  0.4424660000000 1.0
C      1  0.4658840000000  0.5561330000000  0.4824430000000 1.0
C      1  0.5279310000000  0.5718070000000  0.4904390000000 1.0
C      1  0.4836130000000  0.4446540000000  0.4715860000000 1.0
C      1  0.5477500000000  0.5131610000000  0.4561310000000 1.0
C      1  0.5013600000000  0.5342380000000  0.5074370000000 1.0
C      1  0.4291930000000  0.5095340000000  0.5352010000000 1.0
C      1  0.5139940000000  0.5322900000000  0.4805640000000 1.0
C      1  0.5517590000000  0.4835680000000  0.5481050000000 1.0
C      1  0.4516030000000  0.5145650000000  0.4672160000000 1.0
C      1  0.4955940000000  0.4352950000000  0.5327250000000 1.0
C      1  0.5186350000000  0.5040050000000  0.5243840000000 1.0
C      1  0.4336900000000  0.5226880000000  0.4881030000000 1.0
C      1  0.5446610000000  0.5121580000000  0.5113300000000 1.0
C      1  0.5194410000000  0.5495300000000  0.5261440000000 1.0
C      1  0.4851350000000  0.5413250000000  0.4385250000000 1.0
END
