TITL C-66720-455-1 -0.137908387376144 125000 -940.922310820949 0 0 135 (C1) n - 1
REM
REM in /rds/project/t2_vol4/rds-t2-cs072/BORA/CARBON/from-Arr/AIRSS/Generating-Clusters/GAP-ML-2020/Only-C1/SD-CG/HFTN-CG
REM
REM
REM
REM
REM
REM ./C.cell (11c1c37f851c82e70ff6c80c92926a4b)
REM AIRSS Version 0.9.1 bugfix July 2018 build 013d7b7c2542+ Fri, 06 Jul 2018 19:26:36 +0100
REM compiler GCC version 9.3.0
REM options -cpp -mtune=generic -march=x86-64 -g -O0
REM seed 1944569753 -1338023210 -99946123 996026967 1549235653 -1298414626 2145828531 20183419 606110188 -1666840003 -1890018724 -2036245155 2091558827 2097007852 -519496588 -1549487167 1348187601 -2097594867 618603104 738552601 -1869734791 969388968 -2043348936 -1169476372 431637777 -1059274018 2109147156 -1694615569 -766753678 1098978221 879013954 1243379785 -933604671
REM
CELL 1.54180   50.00000   50.00000   50.00000   90.00000   90.00000   90.00000
LATT -1
SFAC C  
C      1  0.4410120000000  0.5248260000000  0.5091280000000 1.0
C      1  0.5768110000000  0.4904880000000  0.5795630000000 1.0
C      1  0.5819910000000  0.5409090000000  0.5264490000000 1.0
C      1  0.5322760000000  0.5191140000000  0.5581620000000 1.0
C      1  0.4471350000000  0.5257200000000  0.4789940000000 1.0
C      1  0.4609260000000  0.5035990000000  0.5912970000000 1.0
C      1  0.5393620000000  0.4730570000000  0.5153630000000 1.0
C      1  0.5869820000000  0.4702440000000  0.5623390000000 1.0
C      1  0.4442640000000  0.4793970000000  0.5868510000000 1.0
C      1  0.5059760000000  0.5472090000000  0.5902870000000 1.0
C      1  0.4307990000000  0.4359740000000  0.4665160000000 1.0
C      1  0.5221190000000  0.5283090000000  0.4431500000000 1.0
C      1  0.5515240000000  0.4989620000000  0.5477230000000 1.0
C      1  0.4661100000000  0.5854010000000  0.4714520000000 1.0
C      1  0.5095140000000  0.4235280000000  0.5032190000000 1.0
C      1  0.4486380000000  0.5635160000000  0.4329190000000 1.0
C      1  0.5580100000000  0.4948230000000  0.5183110000000 1.0
C      1  0.5532590000000  0.4338630000000  0.4755090000000 1.0
C      1  0.4653310000000  0.4388600000000  0.4391070000000 1.0
C      1  0.5720670000000  0.5380320000000  0.5527580000000 1.0
C      1  0.4208500000000  0.4778620000000  0.5216010000000 1.0
C      1  0.4356060000000  0.5675470000000  0.5262550000000 1.0
C      1  0.4778090000000  0.4972680000000  0.4029690000000 1.0
C      1  0.5866800000000  0.4737190000000  0.4884420000000 1.0
C      1  0.4723140000000  0.4755400000000  0.4828200000000 1.0
C      1  0.4757850000000  0.5675120000000  0.4282000000000 1.0
C      1  0.4747750000000  0.4077110000000  0.4722350000000 1.0
C      1  0.4510790000000  0.4947200000000  0.5484120000000 1.0
C      1  0.4741260000000  0.4695020000000  0.4089370000000 1.0
C      1  0.5802360000000  0.5199400000000  0.4821320000000 1.0
C      1  0.4527660000000  0.4645160000000  0.4310570000000 1.0
C      1  0.5045010000000  0.5063180000000  0.4004380000000 1.0
C      1  0.4828800000000  0.5420010000000  0.4166550000000 1.0
C      1  0.4896430000000  0.5841580000000  0.5244400000000 1.0
C      1  0.5543860000000  0.5407780000000  0.4416800000000 1.0
C      1  0.4373060000000  0.5391820000000  0.5589350000000 1.0
C      1  0.5226620000000  0.5809100000000  0.4882170000000 1.0
C      1  0.5723300000000  0.5439620000000  0.4673200000000 1.0
C      1  0.4632600000000  0.4164140000000  0.5222120000000 1.0
C      1  0.5360420000000  0.4724960000000  0.5550960000000 1.0
C      1  0.5152060000000  0.4339380000000  0.5309560000000 1.0
C      1  0.4140380000000  0.4684810000000  0.4945890000000 1.0
C      1  0.4862650000000  0.5857620000000  0.4503690000000 1.0
C      1  0.4223970000000  0.5299640000000  0.4478590000000 1.0
C      1  0.4391070000000  0.5371130000000  0.4262960000000 1.0
C      1  0.4366430000000  0.4550320000000  0.5338470000000 1.0
C      1  0.5032750000000  0.5380890000000  0.4653100000000 1.0
C      1  0.4384090000000  0.4321260000000  0.5177630000000 1.0
C      1  0.4764660000000  0.5747700000000  0.5505460000000 1.0
C      1  0.4817880000000  0.5299190000000  0.5495860000000 1.0
C      1  0.4620660000000  0.5189210000000  0.4188310000000 1.0
C      1  0.5132260000000  0.4523860000000  0.5900870000000 1.0
C      1  0.5186770000000  0.5500130000000  0.4854760000000 1.0
C      1  0.5434530000000  0.5493040000000  0.5535800000000 1.0
C      1  0.4439630000000  0.4973390000000  0.5191260000000 1.0
C      1  0.5508440000000  0.4880130000000  0.5939290000000 1.0
C      1  0.5057650000000  0.4805030000000  0.5527500000000 1.0
C      1  0.4747610000000  0.4167760000000  0.5482660000000 1.0
C      1  0.5750610000000  0.5115930000000  0.5617210000000 1.0
C      1  0.5336330000000  0.5110070000000  0.5880280000000 1.0
C      1  0.4177200000000  0.5442710000000  0.5179240000000 1.0
C      1  0.4588540000000  0.5647610000000  0.5098830000000 1.0
C      1  0.4111100000000  0.4974750000000  0.5457960000000 1.0
C      1  0.4926950000000  0.5554730000000  0.5640610000000 1.0
C      1  0.5665080000000  0.5615100000000  0.5136480000000 1.0
C      1  0.5049760000000  0.4822400000000  0.4515460000000 1.0
C      1  0.5729010000000  0.4476150000000  0.4929720000000 1.0
C      1  0.4476180000000  0.5651880000000  0.5507180000000 1.0
C      1  0.4832720000000  0.5175830000000  0.5035350000000 1.0
C      1  0.5876060000000  0.4944970000000  0.4680590000000 1.0
C      1  0.5662000000000  0.5174230000000  0.4267870000000 1.0
C      1  0.4937320000000  0.4359610000000  0.4374210000000 1.0
C      1  0.4799710000000  0.4934460000000  0.4608110000000 1.0
C      1  0.5685140000000  0.4468450000000  0.5221150000000 1.0
C      1  0.5236510000000  0.4624860000000  0.4084930000000 1.0
C      1  0.4327360000000  0.5051540000000  0.4600160000000 1.0
C      1  0.5872000000000  0.4881430000000  0.5143520000000 1.0
C      1  0.5023630000000  0.4287360000000  0.5793620000000 1.0
C      1  0.5500940000000  0.5681710000000  0.4321030000000 1.0
C      1  0.4566880000000  0.4947150000000  0.4415630000000 1.0
C      1  0.5397230000000  0.4449510000000  0.4521750000000 1.0
C      1  0.5422610000000  0.5673670000000  0.5294370000000 1.0
C      1  0.4686840000000  0.4916240000000  0.5051240000000 1.0
C      1  0.4065100000000  0.5508080000000  0.4926500000000 1.0
C      1  0.4921990000000  0.4688170000000  0.5039760000000 1.0
C      1  0.4732320000000  0.5860520000000  0.4999890000000 1.0
C      1  0.4817090000000  0.4110450000000  0.5005310000000 1.0
C      1  0.4680330000000  0.5362540000000  0.5197800000000 1.0
C      1  0.5183910000000  0.5818450000000  0.5179220000000 1.0
C      1  0.5920670000000  0.5193980000000  0.5096030000000 1.0
C      1  0.5656470000000  0.4767820000000  0.4229570000000 1.0
C      1  0.5495710000000  0.5843520000000  0.4766480000000 1.0
C      1  0.4934300000000  0.4735940000000  0.5819380000000 1.0
C      1  0.4280360000000  0.4597320000000  0.4504870000000 1.0
C      1  0.4882200000000  0.4994110000000  0.5971460000000 1.0
C      1  0.5317740000000  0.4147530000000  0.4844090000000 1.0
C      1  0.5083550000000  0.5197760000000  0.5989080000000 1.0
C      1  0.4616110000000  0.4660370000000  0.5473520000000 1.0
C      1  0.4967110000000  0.4092540000000  0.4539620000000 1.0
C      1  0.5391100000000  0.5852930000000  0.4495990000000 1.0
C      1  0.5102030000000  0.5126130000000  0.5150960000000 1.0
C      1  0.5381370000000  0.4647800000000  0.5844360000000 1.0
C      1  0.4729390000000  0.4305930000000  0.5741810000000 1.0
C      1  0.5680670000000  0.5655910000000  0.4852580000000 1.0
C      1  0.5172140000000  0.4847080000000  0.5020970000000 1.0
C      1  0.5803830000000  0.4952730000000  0.4405520000000 1.0
C      1  0.4189030000000  0.4803280000000  0.4680960000000 1.0
C      1  0.5399020000000  0.4508490000000  0.5339820000000 1.0
C      1  0.5300870000000  0.5308460000000  0.5030030000000 1.0
C      1  0.5102750000000  0.4529960000000  0.4579800000000 1.0
C      1  0.5269690000000  0.4896230000000  0.4002070000000 1.0
C      1  0.5201040000000  0.4008900000000  0.4639860000000 1.0
C      1  0.5511430000000  0.5125170000000  0.4943580000000 1.0
C      1  0.5461300000000  0.4566490000000  0.4267160000000 1.0
C      1  0.5252250000000  0.5006790000000  0.4526970000000 1.0
C      1  0.4974680000000  0.4521260000000  0.4119050000000 1.0
C      1  0.4257330000000  0.4875820000000  0.5668560000000 1.0
C      1  0.5222250000000  0.5584820000000  0.5718210000000 1.0
C      1  0.5522430000000  0.4990190000000  0.4092950000000 1.0
C      1  0.5056530000000  0.5109240000000  0.5449570000000 1.0
C      1  0.4584490000000  0.5192450000000  0.5653600000000 1.0
C      1  0.4421490000000  0.5721550000000  0.4593910000000 1.0
C      1  0.5861690000000  0.4660210000000  0.5355910000000 1.0
C      1  0.4153970000000  0.5281500000000  0.5426100000000 1.0
C      1  0.5331260000000  0.4951690000000  0.4786720000000 1.0
C      1  0.4993520000000  0.4473630000000  0.4856010000000 1.0
C      1  0.4233950000000  0.5510230000000  0.4695750000000 1.0
C      1  0.5042610000000  0.4182230000000  0.5524670000000 1.0
C      1  0.5121610000000  0.5910750000000  0.4595910000000 1.0
C      1  0.4660530000000  0.4597750000000  0.5760700000000 1.0
C      1  0.4909350000000  0.4615810000000  0.5339230000000 1.0
C      1  0.5084300000000  0.5301980000000  0.4155300000000 1.0
C      1  0.4241010000000  0.4413040000000  0.4937990000000 1.0
C      1  0.4539030000000  0.4219160000000  0.4583780000000 1.0
C      1  0.4792410000000  0.5219600000000  0.4741360000000 1.0
END
