TITL C-66139-5857-9 -0.276896497603419 125000 -502.432681130691 0 0 72 (C1) n - 1
REM
REM in /rds/project/t2_vol4/rds-t2-cs072/BORA/CARBON/from-Arr/AIRSS/Generating-Clusters/GAP-ML-2020/Only-C1/SD-CG/HFTN-CG
REM
REM
REM
REM
REM
REM ./C.cell (11c1c37f851c82e70ff6c80c92926a4b)
REM AIRSS Version 0.9.1 bugfix July 2018 build 013d7b7c2542+ Fri, 06 Jul 2018 19:26:36 +0100
REM compiler GCC version 9.3.0
REM options -cpp -mtune=generic -march=x86-64 -g -O0
REM seed -1170859223 62686782 1795731813 794172959 -1532389932 114625091 828430959 642376297 -351261799 868655263 -828576174 -1396973778 -846860049 1460332485 1797753674 -1035941754 -702038959 -1411194796 1559878081 1731314335 -1251228382 -1734211482 -902420298 332144946 1887254455 2069117197 -1831927589 -639242933 -2041097780 -147246390 -1796893191 1056177203 1178870012
REM
CELL 1.54180   50.00000   50.00000   50.00000   90.00000   90.00000   90.00000
LATT -1
SFAC C  
C      1  0.5618580000000  0.5255720000000  0.4663780000000 1.0
C      1  0.5418620000000  0.5082830000000  0.5761870000000 1.0
C      1  0.4381740000000  0.4786540000000  0.4597400000000 1.0
C      1  0.4287790000000  0.5235380000000  0.4966570000000 1.0
C      1  0.5186590000000  0.4594460000000  0.4509720000000 1.0
C      1  0.4584140000000  0.5611390000000  0.5103120000000 1.0
C      1  0.4523350000000  0.5484450000000  0.4632230000000 1.0
C      1  0.5463630000000  0.4401960000000  0.4883260000000 1.0
C      1  0.4650160000000  0.5648400000000  0.4823630000000 1.0
C      1  0.5426090000000  0.5459840000000  0.4661000000000 1.0
C      1  0.4762280000000  0.5337600000000  0.5495210000000 1.0
C      1  0.5450990000000  0.5464960000000  0.5161210000000 1.0
C      1  0.4428660000000  0.5368840000000  0.5173910000000 1.0
C      1  0.4625230000000  0.4922140000000  0.5069770000000 1.0
C      1  0.4585440000000  0.4448880000000  0.5132610000000 1.0
C      1  0.5048070000000  0.5709300000000  0.5201970000000 1.0
C      1  0.5009680000000  0.4640740000000  0.5149840000000 1.0
C      1  0.5697540000000  0.4765700000000  0.5132170000000 1.0
C      1  0.5183590000000  0.4855960000000  0.5134880000000 1.0
C      1  0.4442240000000  0.4620130000000  0.5325590000000 1.0
C      1  0.4712150000000  0.5386670000000  0.4440120000000 1.0
C      1  0.5433400000000  0.4567850000000  0.4646760000000 1.0
C      1  0.5602340000000  0.4975730000000  0.5307320000000 1.0
C      1  0.5743780000000  0.4878580000000  0.4876860000000 1.0
C      1  0.4868810000000  0.4815440000000  0.5482770000000 1.0
C      1  0.5245470000000  0.4220310000000  0.5258880000000 1.0
C      1  0.5253860000000  0.4219700000000  0.4968230000000 1.0
C      1  0.4633990000000  0.4664610000000  0.4470930000000 1.0
C      1  0.5588050000000  0.4504380000000  0.5127240000000 1.0
C      1  0.4956400000000  0.4423510000000  0.4616080000000 1.0
C      1  0.5098140000000  0.4994600000000  0.5411500000000 1.0
C      1  0.4603490000000  0.4898250000000  0.5374450000000 1.0
C      1  0.5079590000000  0.4874510000000  0.4419960000000 1.0
C      1  0.4986260000000  0.4244260000000  0.4869420000000 1.0
C      1  0.5621870000000  0.5230260000000  0.5161960000000 1.0
C      1  0.5531730000000  0.5033080000000  0.4500310000000 1.0
C      1  0.4401260000000  0.5059000000000  0.4523800000000 1.0
C      1  0.4779940000000  0.5698210000000  0.5290010000000 1.0
C      1  0.4321860000000  0.4544710000000  0.5076950000000 1.0
C      1  0.4922480000000  0.5682330000000  0.4734040000000 1.0
C      1  0.4730460000000  0.4399500000000  0.4426030000000 1.0
C      1  0.5225070000000  0.5546960000000  0.5651760000000 1.0
C      1  0.4756700000000  0.4663810000000  0.5012950000000 1.0
C      1  0.5122600000000  0.5718120000000  0.4932190000000 1.0
C      1  0.4803610000000  0.4245360000000  0.5111150000000 1.0
C      1  0.5219500000000  0.5374240000000  0.4472750000000 1.0
C      1  0.4340300000000  0.5280620000000  0.4696280000000 1.0
C      1  0.5379700000000  0.4902690000000  0.5523080000000 1.0
C      1  0.4266830000000  0.4731080000000  0.4863130000000 1.0
C      1  0.4533470000000  0.5201350000000  0.5402690000000 1.0
C      1  0.4781040000000  0.5610370000000  0.5563940000000 1.0
C      1  0.4323690000000  0.4961480000000  0.5010740000000 1.0
C      1  0.5279450000000  0.5094360000000  0.4388350000000 1.0
C      1  0.5299590000000  0.4609810000000  0.5515140000000 1.0
C      1  0.5349750000000  0.5327170000000  0.5779200000000 1.0
C      1  0.4991490000000  0.5675800000000  0.5723750000000 1.0
C      1  0.5376070000000  0.5588760000000  0.4909540000000 1.0
C      1  0.4992980000000  0.5225040000000  0.5032450000000 1.0
C      1  0.5221180000000  0.5508970000000  0.5349090000000 1.0
C      1  0.4981080000000  0.4280770000000  0.5341560000000 1.0
C      1  0.4633980000000  0.5120900000000  0.4368360000000 1.0
C      1  0.5149370000000  0.5013810000000  0.4915630000000 1.0
C      1  0.4765850000000  0.5120930000000  0.4898950000000 1.0
C      1  0.4966690000000  0.5502700000000  0.4504840000000 1.0
C      1  0.5006950000000  0.4558870000000  0.5458450000000 1.0
C      1  0.5607860000000  0.4794470000000  0.4638120000000 1.0
C      1  0.4790310000000  0.4887740000000  0.4331390000000 1.0
C      1  0.4816920000000  0.4668440000000  0.4732520000000 1.0
C      1  0.4951420000000  0.4925010000000  0.4710260000000 1.0
C      1  0.5726780000000  0.5162060000000  0.4902970000000 1.0
C      1  0.5432950000000  0.4420050000000  0.5355270000000 1.0
C      1  0.5017080000000  0.5267540000000  0.5340150000000 1.0
END
