TITL C-66140-5772-2 -9.30623111317705 125000 -212.432999730856 0 0 33 (C1) n - 1
REM
REM in /rds/project/t2_vol4/rds-t2-cs072/BORA/CARBON/from-Arr/AIRSS/Generating-Clusters/GAP-ML-2020/Only-C1/SD-CG/HFTN-CG
REM
REM
REM
REM
REM
REM ./C.cell (11c1c37f851c82e70ff6c80c92926a4b)
REM AIRSS Version 0.9.1 bugfix July 2018 build 013d7b7c2542+ Fri, 06 Jul 2018 19:26:36 +0100
REM compiler GCC version 9.3.0
REM options -cpp -mtune=generic -march=x86-64 -g -O0
REM seed -985770147 797346663 176362468 454076315 -1612161121 879308009 -2147006865 391576048 1348242189 534902406 -1552234341 1993667704 1604286637 1518337904 -703087942 1652645318 2087922031 932216596 1684337612 -2005982630 942792937 -343193295 1795700902 1844952709 1590354215 1516962360 -2048874710 191585555 473415520 1717407280 -798259753 1435684035 1913123621
REM
CELL 1.54180   50.00000   50.00000   50.00000   90.00000   90.00000   90.00000
LATT -1
SFAC C  
C      1  0.5455080000000  0.5153180000000  0.5265010000000 1.0
C      1  0.5076100000000  0.5200190000000  0.4637260000000 1.0
C      1  0.5361450000000  0.4624900000000  0.5201100000000 1.0
C      1  0.5014360000000  0.5015720000000  0.5255870000000 1.0
C      1  0.5529000000000  0.5368710000000  0.4851330000000 1.0
C      1  0.5426590000000  0.4430410000000  0.5013490000000 1.0
C      1  0.4577530000000  0.5368970000000  0.5518110000000 1.0
C      1  0.4505740000000  0.5151930000000  0.5397190000000 1.0
C      1  0.4802080000000  0.5602250000000  0.5164970000000 1.0
C      1  0.5582560000000  0.5337840000000  0.5099600000000 1.0
C      1  0.5367350000000  0.5242080000000  0.4662640000000 1.0
C      1  0.5122630000000  0.4916010000000  0.4528710000000 1.0
C      1  0.4435990000000  0.4928940000000  0.5278870000000 1.0
C      1  0.4891240000000  0.4556460000000  0.5224170000000 1.0
C      1  0.5413700000000  0.4895110000000  0.5134450000000 1.0
C      1  0.5189950000000  0.5208570000000  0.5378740000000 1.0
C      1  0.4834700000000  0.5301520000000  0.4733460000000 1.0
C      1  0.4462940000000  0.4722230000000  0.5131880000000 1.0
C      1  0.4621270000000  0.5189060000000  0.4593430000000 1.0
C      1  0.5088630000000  0.4743840000000  0.4778330000000 1.0
C      1  0.5133490000000  0.4569300000000  0.5360290000000 1.0
C      1  0.4817050000000  0.5478460000000  0.5421690000000 1.0
C      1  0.4492600000000  0.4997110000000  0.4483620000000 1.0
C      1  0.4807770000000  0.4681600000000  0.4768350000000 1.0
C      1  0.4695540000000  0.4610980000000  0.5019210000000 1.0
C      1  0.4697230000000  0.4800910000000  0.4525250000000 1.0
C      1  0.4808190000000  0.5446380000000  0.4969090000000 1.0
C      1  0.5398290000000  0.5019160000000  0.4496340000000 1.0
C      1  0.5157550000000  0.4927140000000  0.5016660000000 1.0
C      1  0.5277260000000  0.4513400000000  0.4826480000000 1.0
C      1  0.4926230000000  0.4810850000000  0.4350250000000 1.0
C      1  0.4958150000000  0.4778500000000  0.5400780000000 1.0
C      1  0.5071750000000  0.5408290000000  0.5513410000000 1.0
END
