TITL C-66580-1420-8 -0.0487926910577089 125000 -576.280743714391 0 0 84 (C1) n - 1
REM
REM in /rds/project/t2_vol4/rds-t2-cs072/BORA/CARBON/from-Arr/AIRSS/Generating-Clusters/GAP-ML-2020/Only-C1/SD-CG/HFTN-CG
REM
REM
REM
REM
REM
REM ./C.cell (11c1c37f851c82e70ff6c80c92926a4b)
REM AIRSS Version 0.9.1 bugfix July 2018 build 013d7b7c2542+ Fri, 06 Jul 2018 19:26:36 +0100
REM compiler GCC version 9.3.0
REM options -cpp -mtune=generic -march=x86-64 -g -O0
REM seed 220152935 -1234285914 -2054800588 1878912394 -1709365356 347715714 -513138824 732346875 871111974 7185908 -2139931727 1569440371 1353331197 -1167962802 87075394 -563305658 448848273 -217749261 -1831566392 -930230109 1281580218 793049244 -1855536375 -2084825891 273141344 -1138012241 -651925080 741280313 1110547803 1065700590 1509060347 1347059237 -1931936118
REM
CELL 1.54180   50.00000   50.00000   50.00000   90.00000   90.00000   90.00000
LATT -1
SFAC C  
C      1  0.5145030000000  0.5282060000000  0.4209570000000 1.0
C      1  0.4122910000000  0.5342240000000  0.4881260000000 1.0
C      1  0.4634070000000  0.5060000000000  0.5515940000000 1.0
C      1  0.4644370000000  0.4870210000000  0.5739660000000 1.0
C      1  0.4842370000000  0.4887530000000  0.4890040000000 1.0
C      1  0.5128530000000  0.4196660000000  0.4969960000000 1.0
C      1  0.4144290000000  0.5089230000000  0.4986830000000 1.0
C      1  0.5296610000000  0.4232850000000  0.5203580000000 1.0
C      1  0.5160940000000  0.4272790000000  0.5433570000000 1.0
C      1  0.5062430000000  0.4672720000000  0.5666130000000 1.0
C      1  0.4249670000000  0.4874310000000  0.4825230000000 1.0
C      1  0.4387530000000  0.5265240000000  0.4553820000000 1.0
C      1  0.4906940000000  0.5055000000000  0.5347970000000 1.0
C      1  0.4963900000000  0.5589180000000  0.4644200000000 1.0
C      1  0.4397920000000  0.4646090000000  0.4916560000000 1.0
C      1  0.5168290000000  0.5717320000000  0.5471750000000 1.0
C      1  0.5535790000000  0.5475940000000  0.5285060000000 1.0
C      1  0.4484240000000  0.4841400000000  0.4389980000000 1.0
C      1  0.4916380000000  0.5542020000000  0.5455950000000 1.0
C      1  0.5242530000000  0.4996660000000  0.4712350000000 1.0
C      1  0.5318410000000  0.5392840000000  0.5089510000000 1.0
C      1  0.4658610000000  0.4274120000000  0.4822570000000 1.0
C      1  0.4892520000000  0.4639170000000  0.4312470000000 1.0
C      1  0.5693820000000  0.4786430000000  0.4593000000000 1.0
C      1  0.5772120000000  0.5193640000000  0.4912480000000 1.0
C      1  0.4508120000000  0.4648360000000  0.5203340000000 1.0
C      1  0.4266920000000  0.5112950000000  0.5236870000000 1.0
C      1  0.4850150000000  0.4275900000000  0.5010570000000 1.0
C      1  0.4879220000000  0.4894470000000  0.4179780000000 1.0
C      1  0.4634380000000  0.5598800000000  0.5429050000000 1.0
C      1  0.5556990000000  0.5226130000000  0.4444630000000 1.0
C      1  0.4844200000000  0.5363800000000  0.5692330000000 1.0
C      1  0.5127430000000  0.5890280000000  0.5254770000000 1.0
C      1  0.5294800000000  0.4784980000000  0.5563540000000 1.0
C      1  0.5240830000000  0.5559890000000  0.4598330000000 1.0
C      1  0.4983720000000  0.5036550000000  0.4698770000000 1.0
C      1  0.5382270000000  0.4904080000000  0.4945220000000 1.0
C      1  0.4625790000000  0.4603800000000  0.4451160000000 1.0
C      1  0.4469060000000  0.4648160000000  0.5693120000000 1.0
C      1  0.5335960000000  0.4416930000000  0.4510010000000 1.0
C      1  0.4548920000000  0.5346240000000  0.5572110000000 1.0
C      1  0.5567270000000  0.4339300000000  0.4847530000000 1.0
C      1  0.5364160000000  0.5091490000000  0.5175760000000 1.0
C      1  0.5757300000000  0.5293280000000  0.5186090000000 1.0
C      1  0.5536560000000  0.4661540000000  0.5507940000000 1.0
C      1  0.4986230000000  0.5766310000000  0.5052320000000 1.0
C      1  0.5701520000000  0.4923300000000  0.4847440000000 1.0
C      1  0.4341400000000  0.5453680000000  0.4767470000000 1.0
C      1  0.5136940000000  0.5014800000000  0.4160570000000 1.0
C      1  0.5369570000000  0.5497480000000  0.5525820000000 1.0
C      1  0.5660290000000  0.5063910000000  0.5307580000000 1.0
C      1  0.4319720000000  0.5371340000000  0.5348760000000 1.0
C      1  0.5253330000000  0.5238230000000  0.5636000000000 1.0
C      1  0.5242180000000  0.4666110000000  0.5015390000000 1.0
C      1  0.4804900000000  0.4513910000000  0.5208790000000 1.0
C      1  0.5303350000000  0.4250310000000  0.4749030000000 1.0
C      1  0.5738200000000  0.4806650000000  0.5363490000000 1.0
C      1  0.5408930000000  0.5475030000000  0.4810790000000 1.0
C      1  0.4972420000000  0.4680580000000  0.5032830000000 1.0
C      1  0.4780190000000  0.5341580000000  0.4966520000000 1.0
C      1  0.4749450000000  0.5070640000000  0.5090570000000 1.0
C      1  0.4970850000000  0.4463470000000  0.5478200000000 1.0
C      1  0.5330090000000  0.4827900000000  0.4254590000000 1.0
C      1  0.5014860000000  0.5474230000000  0.5131330000000 1.0
C      1  0.5016590000000  0.5169710000000  0.5792380000000 1.0
C      1  0.5324830000000  0.5387920000000  0.4377170000000 1.0
C      1  0.4807150000000  0.5744240000000  0.4834230000000 1.0
C      1  0.4852140000000  0.5308630000000  0.4654860000000 1.0
C      1  0.4363230000000  0.4557370000000  0.5477090000000 1.0
C      1  0.4654210000000  0.5033600000000  0.4267410000000 1.0
C      1  0.4643560000000  0.5270890000000  0.4435200000000 1.0
C      1  0.5206150000000  0.5036030000000  0.5417050000000 1.0
C      1  0.4920550000000  0.4886200000000  0.5798430000000 1.0
C      1  0.4531710000000  0.4481080000000  0.4706260000000 1.0
C      1  0.5566160000000  0.4340730000000  0.5131180000000 1.0
C      1  0.4452410000000  0.5587390000000  0.5211410000000 1.0
C      1  0.5565860000000  0.4941060000000  0.4384470000000 1.0
C      1  0.4502800000000  0.4955180000000  0.5253710000000 1.0
C      1  0.5595460000000  0.4520290000000  0.4621680000000 1.0
C      1  0.5682180000000  0.4536290000000  0.5302680000000 1.0
C      1  0.5180000000000  0.4584800000000  0.4340350000000 1.0
C      1  0.5622800000000  0.5317290000000  0.4709640000000 1.0
C      1  0.4566000000000  0.5567190000000  0.4936090000000 1.0
C      1  0.4317550000000  0.4982050000000  0.4570850000000 1.0
END
