TITL C-66715-9796-6 -166.271128043426 125000 -563.067721695359 0 0 81 (C1) n - 1
REM
REM in /rds/project/t2_vol4/rds-t2-cs072/BORA/CARBON/from-Arr/AIRSS/Generating-Clusters/GAP-ML-2020/Only-C1/SD-CG/HFTN-CG
REM
REM
REM
REM
REM
REM ./C.cell (11c1c37f851c82e70ff6c80c92926a4b)
REM AIRSS Version 0.9.1 bugfix July 2018 build 013d7b7c2542+ Fri, 06 Jul 2018 19:26:36 +0100
REM compiler GCC version 9.3.0
REM options -cpp -mtune=generic -march=x86-64 -g -O0
REM seed 1741492121 1621269894 1471737997 -1902077575 -269556531 636049851 -402542206 1379528723 1041672454 -1610137550 -188614770 -724475823 1282654446 -811703008 711237311 -1704038385 -1546670109 1753585560 1414692468 -1216828843 1838329308 -1344556915 1260186796 1800327837 387132783 1684645726 410433159 604788780 1457297018 -2012141056 1214488484 278358 235799422
REM
CELL 1.54180   50.00000   50.00000   50.00000   90.00000   90.00000   90.00000
LATT -1
SFAC C  
C      1  0.4401420000000  0.5114530000000  0.5375820000000 1.0
C      1  0.5041960000000  0.5020820000000  0.4309330000000 1.0
C      1  0.5159140000000  0.5282270000000  0.4330840000000 1.0
C      1  0.4731710000000  0.4771740000000  0.5318740000000 1.0
C      1  0.4904180000000  0.5507810000000  0.4726820000000 1.0
C      1  0.4417280000000  0.5535950000000  0.5074890000000 1.0
C      1  0.4981640000000  0.5850680000000  0.5153960000000 1.0
C      1  0.5845080000000  0.5166930000000  0.4567870000000 1.0
C      1  0.4855670000000  0.5184000000000  0.5097250000000 1.0
C      1  0.4765400000000  0.4980620000000  0.5717160000000 1.0
C      1  0.5155040000000  0.4568060000000  0.4498130000000 1.0
C      1  0.5347020000000  0.4170740000000  0.4763890000000 1.0
C      1  0.5445640000000  0.5314440000000  0.4362580000000 1.0
C      1  0.4735140000000  0.5807100000000  0.5303280000000 1.0
C      1  0.4263020000000  0.5143730000000  0.4811570000000 1.0
C      1  0.4936090000000  0.5003600000000  0.5315870000000 1.0
C      1  0.5194200000000  0.5321770000000  0.5592180000000 1.0
C      1  0.4385790000000  0.5397150000000  0.5324790000000 1.0
C      1  0.5424470000000  0.5708350000000  0.5196370000000 1.0
C      1  0.5044770000000  0.5305220000000  0.4932090000000 1.0
C      1  0.5103100000000  0.4453260000000  0.5305650000000 1.0
C      1  0.4623270000000  0.5386220000000  0.4639850000000 1.0
C      1  0.4749600000000  0.4691620000000  0.5603470000000 1.0
C      1  0.5664120000000  0.4929010000000  0.5239160000000 1.0
C      1  0.5115100000000  0.5514860000000  0.4508080000000 1.0
C      1  0.4571380000000  0.5161040000000  0.4463060000000 1.0
C      1  0.5457620000000  0.5280130000000  0.5441700000000 1.0
C      1  0.5410860000000  0.5782680000000  0.4928910000000 1.0
C      1  0.5037930000000  0.4592840000000  0.5567820000000 1.0
C      1  0.5040620000000  0.5058330000000  0.5621650000000 1.0
C      1  0.4777720000000  0.5613780000000  0.5508930000000 1.0
C      1  0.4562740000000  0.5148730000000  0.5616700000000 1.0
C      1  0.4245980000000  0.4910650000000  0.4993330000000 1.0
C      1  0.4410990000000  0.5383880000000  0.4838670000000 1.0
C      1  0.5191450000000  0.4098380000000  0.4958240000000 1.0
C      1  0.5201940000000  0.4804140000000  0.5659520000000 1.0
C      1  0.5233270000000  0.4798510000000  0.4354370000000 1.0
C      1  0.5009990000000  0.4207500000000  0.5145860000000 1.0
C      1  0.4848860000000  0.5758490000000  0.4904580000000 1.0
C      1  0.4565120000000  0.5432430000000  0.5553740000000 1.0
C      1  0.5067180000000  0.5568460000000  0.5528910000000 1.0
C      1  0.5271320000000  0.5133170000000  0.4904200000000 1.0
C      1  0.5694930000000  0.5424130000000  0.4961120000000 1.0
C      1  0.4259130000000  0.4767540000000  0.4559650000000 1.0
C      1  0.4310640000000  0.4415270000000  0.4888900000000 1.0
C      1  0.4528830000000  0.4502700000000  0.5593380000000 1.0
C      1  0.5384630000000  0.4516410000000  0.5217900000000 1.0
C      1  0.4701400000000  0.4698840000000  0.4408730000000 1.0
C      1  0.4727380000000  0.4343160000000  0.4728020000000 1.0
C      1  0.4861650000000  0.4579520000000  0.5133590000000 1.0
C      1  0.5407410000000  0.5541700000000  0.4539750000000 1.0
C      1  0.4458460000000  0.4315570000000  0.5125220000000 1.0
C      1  0.4762780000000  0.4972290000000  0.4350090000000 1.0
C      1  0.5182020000000  0.4848130000000  0.4926660000000 1.0
C      1  0.4482870000000  0.4918600000000  0.5179670000000 1.0
C      1  0.5609040000000  0.4636360000000  0.4585660000000 1.0
C      1  0.5182810000000  0.5753410000000  0.5331620000000 1.0
C      1  0.4706340000000  0.4982890000000  0.4950340000000 1.0
C      1  0.5564980000000  0.4670700000000  0.5368530000000 1.0
C      1  0.5180380000000  0.4910720000000  0.5216620000000 1.0
C      1  0.5392930000000  0.4615980000000  0.4937600000000 1.0
C      1  0.4598710000000  0.5749030000000  0.5059810000000 1.0
C      1  0.5616950000000  0.5046760000000  0.5516850000000 1.0
C      1  0.5665900000000  0.4713990000000  0.4851980000000 1.0
C      1  0.4446210000000  0.4589870000000  0.4458380000000 1.0
C      1  0.5394470000000  0.5100160000000  0.5191680000000 1.0
C      1  0.4898420000000  0.4758100000000  0.4887500000000 1.0
C      1  0.5556620000000  0.5608910000000  0.4771080000000 1.0
C      1  0.4198280000000  0.4680170000000  0.4835450000000 1.0
C      1  0.5516870000000  0.4834510000000  0.4396750000000 1.0
C      1  0.5792070000000  0.4931290000000  0.4982510000000 1.0
C      1  0.5585630000000  0.5475630000000  0.5231460000000 1.0
C      1  0.5368060000000  0.4458870000000  0.4669600000000 1.0
C      1  0.5815080000000  0.5188820000000  0.4840760000000 1.0
C      1  0.4747160000000  0.4314670000000  0.5029920000000 1.0
C      1  0.5635440000000  0.5102910000000  0.4398570000000 1.0
C      1  0.4883110000000  0.4571670000000  0.4608990000000 1.0
C      1  0.4426070000000  0.4369810000000  0.5399380000000 1.0
C      1  0.4322500000000  0.5046920000000  0.4554050000000 1.0
C      1  0.4464700000000  0.4367070000000  0.4651240000000 1.0
C      1  0.5474280000000  0.4813320000000  0.5601150000000 1.0
END
