TITL C-66705-1833-5 -0.185636016279198 125000 -608.49898376761 0 0 88 (C1) n - 1
REM
REM in /rds/project/t2_vol4/rds-t2-cs072/BORA/CARBON/from-Arr/AIRSS/Generating-Clusters/GAP-ML-2020/Only-C1/SD-CG/HFTN-CG
REM
REM
REM
REM
REM
REM ./C.cell (11c1c37f851c82e70ff6c80c92926a4b)
REM AIRSS Version 0.9.1 bugfix July 2018 build 013d7b7c2542+ Fri, 06 Jul 2018 19:26:36 +0100
REM compiler GCC version 9.3.0
REM options -cpp -mtune=generic -march=x86-64 -g -O0
REM seed 485637206 -1563850581 1937622190 404356247 -1720565408 -639012300 -890127469 -1364461919 -1045070247 -1312467687 -1529355980 -1535692301 962409741 -1047140391 -1561825540 -1249799331 1066242412 -1685132017 391761755 -1387457496 -456234453 753245576 -73129820 -2146243910 -1880929632 -92463103 -1737997973 1457675533 186304338 -370144107 -1005749661 1795515974 882542839
REM
CELL 1.54180   50.00000   50.00000   50.00000   90.00000   90.00000   90.00000
LATT -1
SFAC C  
C      1  0.4652960000000  0.5117880000000  0.5573320000000 1.0
C      1  0.4692490000000  0.5428120000000  0.4457850000000 1.0
C      1  0.5103890000000  0.4280880000000  0.5521340000000 1.0
C      1  0.4897040000000  0.5604300000000  0.4372530000000 1.0
C      1  0.4334970000000  0.4841260000000  0.5336500000000 1.0
C      1  0.5073710000000  0.5982330000000  0.4678520000000 1.0
C      1  0.4481740000000  0.5570290000000  0.5228050000000 1.0
C      1  0.4987030000000  0.4824800000000  0.5345230000000 1.0
C      1  0.5238540000000  0.4776590000000  0.4301590000000 1.0
C      1  0.5833310000000  0.5219010000000  0.5289580000000 1.0
C      1  0.5119330000000  0.4376540000000  0.4533580000000 1.0
C      1  0.4896240000000  0.5800320000000  0.4597060000000 1.0
C      1  0.4420900000000  0.4628130000000  0.5500250000000 1.0
C      1  0.5457150000000  0.4994820000000  0.5413740000000 1.0
C      1  0.4757800000000  0.5589470000000  0.5630050000000 1.0
C      1  0.5381450000000  0.5024560000000  0.4302830000000 1.0
C      1  0.4506380000000  0.4459850000000  0.4796790000000 1.0
C      1  0.5118170000000  0.5345770000000  0.4737460000000 1.0
C      1  0.4431950000000  0.5308220000000  0.4460010000000 1.0
C      1  0.4665710000000  0.4874840000000  0.4277990000000 1.0
C      1  0.5462630000000  0.5104920000000  0.5072720000000 1.0
C      1  0.5146280000000  0.4859080000000  0.4826170000000 1.0
C      1  0.5332840000000  0.4548020000000  0.4449530000000 1.0
C      1  0.4966610000000  0.4944530000000  0.4327170000000 1.0
C      1  0.4969110000000  0.5722040000000  0.5480410000000 1.0
C      1  0.5032960000000  0.4911530000000  0.5774500000000 1.0
C      1  0.5592310000000  0.5069660000000  0.4490960000000 1.0
C      1  0.5771040000000  0.4778550000000  0.5136770000000 1.0
C      1  0.5391670000000  0.4164390000000  0.5174370000000 1.0
C      1  0.4611130000000  0.4695220000000  0.4971590000000 1.0
C      1  0.5268850000000  0.5879530000000  0.4873180000000 1.0
C      1  0.4860890000000  0.4661230000000  0.5144100000000 1.0
C      1  0.5439770000000  0.5476240000000  0.5374950000000 1.0
C      1  0.5758720000000  0.4967410000000  0.5365070000000 1.0
C      1  0.5506230000000  0.4387200000000  0.5310050000000 1.0
C      1  0.5236040000000  0.4779340000000  0.5529120000000 1.0
C      1  0.4646430000000  0.4236650000000  0.4825260000000 1.0
C      1  0.5166610000000  0.5844460000000  0.5133490000000 1.0
C      1  0.4520140000000  0.5629810000000  0.5494130000000 1.0
C      1  0.4822340000000  0.5384360000000  0.4728200000000 1.0
C      1  0.5442280000000  0.5684450000000  0.4757550000000 1.0
C      1  0.5681990000000  0.4935060000000  0.4923590000000 1.0
C      1  0.4940680000000  0.5191420000000  0.5115880000000 1.0
C      1  0.4238530000000  0.5223310000000  0.4920090000000 1.0
C      1  0.5144530000000  0.5184500000000  0.4265700000000 1.0
C      1  0.5332000000000  0.5490490000000  0.4552370000000 1.0
C      1  0.5386120000000  0.4207660000000  0.4894350000000 1.0
C      1  0.5375860000000  0.5245920000000  0.5527580000000 1.0
C      1  0.4637370000000  0.4603970000000  0.4367910000000 1.0
C      1  0.4436990000000  0.5024810000000  0.4390180000000 1.0
C      1  0.5007470000000  0.5181100000000  0.5852460000000 1.0
C      1  0.4889160000000  0.5831240000000  0.5219450000000 1.0
C      1  0.4939920000000  0.4831330000000  0.4621410000000 1.0
C      1  0.5668640000000  0.4519310000000  0.5108660000000 1.0
C      1  0.5142420000000  0.5466120000000  0.4320810000000 1.0
C      1  0.5583700000000  0.5330450000000  0.4599620000000 1.0
C      1  0.4909960000000  0.5102920000000  0.5382940000000 1.0
C      1  0.4881680000000  0.4139530000000  0.4915170000000 1.0
C      1  0.4603140000000  0.4636230000000  0.5713090000000 1.0
C      1  0.5618440000000  0.5368150000000  0.5147410000000 1.0
C      1  0.4421480000000  0.4588980000000  0.4553740000000 1.0
C      1  0.5186860000000  0.5131310000000  0.4936270000000 1.0
C      1  0.5577530000000  0.4418690000000  0.4848490000000 1.0
C      1  0.5567980000000  0.4580820000000  0.4614140000000 1.0
C      1  0.5107950000000  0.5205140000000  0.5600110000000 1.0
C      1  0.4808910000000  0.4255750000000  0.5451240000000 1.0
C      1  0.4339660000000  0.4786760000000  0.5062630000000 1.0
C      1  0.4285660000000  0.5359120000000  0.4690400000000 1.0
C      1  0.5632030000000  0.5484660000000  0.4847060000000 1.0
C      1  0.4900480000000  0.4103100000000  0.5204950000000 1.0
C      1  0.5135520000000  0.4194620000000  0.4756900000000 1.0
C      1  0.5164540000000  0.4090580000000  0.5308960000000 1.0
C      1  0.4224510000000  0.4940970000000  0.4856510000000 1.0
C      1  0.4887820000000  0.4535040000000  0.4498790000000 1.0
C      1  0.4590640000000  0.4402120000000  0.5550360000000 1.0
C      1  0.5313650000000  0.4484920000000  0.5510450000000 1.0
C      1  0.4346760000000  0.5312900000000  0.5190210000000 1.0
C      1  0.5663000000000  0.4847790000000  0.4656740000000 1.0
C      1  0.4674360000000  0.5727320000000  0.5068570000000 1.0
C      1  0.4300850000000  0.4846260000000  0.4585990000000 1.0
C      1  0.5247360000000  0.5690130000000  0.5368620000000 1.0
C      1  0.4401030000000  0.5114250000000  0.5396740000000 1.0
C      1  0.4747860000000  0.4870800000000  0.5731030000000 1.0
C      1  0.4713730000000  0.4915140000000  0.4787710000000 1.0
C      1  0.5101880000000  0.4665800000000  0.5021970000000 1.0
C      1  0.4739370000000  0.5165080000000  0.4913080000000 1.0
C      1  0.4739970000000  0.5664070000000  0.4799850000000 1.0
C      1  0.4764380000000  0.5327830000000  0.5756210000000 1.0
END
