TITL C-66697-480-6 -0.0586940506250896 125000 -576.96824314751 0 0 84 (C1) n - 1
REM
REM in /rds/project/t2_vol4/rds-t2-cs072/BORA/CARBON/from-Arr/AIRSS/Generating-Clusters/GAP-ML-2020/Only-C1/SD-CG/HFTN-CG
REM
REM
REM
REM
REM
REM ./C.cell (11c1c37f851c82e70ff6c80c92926a4b)
REM AIRSS Version 0.9.1 bugfix July 2018 build 013d7b7c2542+ Fri, 06 Jul 2018 19:26:36 +0100
REM compiler GCC version 9.3.0
REM options -cpp -mtune=generic -march=x86-64 -g -O0
REM seed -366406137 1311578106 1869641473 333804943 -617396290 -463545482 470517134 1378438503 -706423318 1040654286 -1093393921 160211068 183924921 -1572849295 -1626704393 292202817 65685416 -115314755 -1147306961 410933698 -1299696873 1737454623 1319101979 1920142111 -2065225072 2095560065 2041103187 -218651548 -1409719918 -1841572853 1785793449 -986755235 1909744702
REM
CELL 1.54180   50.00000   50.00000   50.00000   90.00000   90.00000   90.00000
LATT -1
SFAC C  
C      1  0.4320990000000  0.5268020000000  0.5261930000000 1.0
C      1  0.4955850000000  0.4524350000000  0.4943720000000 1.0
C      1  0.4333290000000  0.5061330000000  0.4595080000000 1.0
C      1  0.5339470000000  0.5636430000000  0.4811730000000 1.0
C      1  0.4626000000000  0.4482340000000  0.5310960000000 1.0
C      1  0.5111470000000  0.5654400000000  0.5498990000000 1.0
C      1  0.5824820000000  0.5140200000000  0.5317590000000 1.0
C      1  0.5430930000000  0.4386950000000  0.4621080000000 1.0
C      1  0.5588210000000  0.4798940000000  0.5123240000000 1.0
C      1  0.5500410000000  0.4294740000000  0.4881000000000 1.0
C      1  0.4890180000000  0.4378890000000  0.5388010000000 1.0
C      1  0.5165090000000  0.4430750000000  0.4491880000000 1.0
C      1  0.4393540000000  0.5063750000000  0.5457120000000 1.0
C      1  0.5673290000000  0.5268950000000  0.4898580000000 1.0
C      1  0.5348510000000  0.5688760000000  0.5096670000000 1.0
C      1  0.5496500000000  0.5520890000000  0.5279170000000 1.0
C      1  0.5207190000000  0.4684780000000  0.4951010000000 1.0
C      1  0.5111000000000  0.4568090000000  0.5792300000000 1.0
C      1  0.4894270000000  0.5160470000000  0.5216840000000 1.0
C      1  0.4642950000000  0.4911410000000  0.5551850000000 1.0
C      1  0.5204750000000  0.4143910000000  0.5172550000000 1.0
C      1  0.5282230000000  0.4885680000000  0.5166030000000 1.0
C      1  0.5706170000000  0.4954070000000  0.4849550000000 1.0
C      1  0.4916640000000  0.4482310000000  0.4634740000000 1.0
C      1  0.4582700000000  0.5312490000000  0.4926330000000 1.0
C      1  0.5713050000000  0.4897920000000  0.5377950000000 1.0
C      1  0.4839290000000  0.5723180000000  0.4659970000000 1.0
C      1  0.5243420000000  0.5250110000000  0.5681420000000 1.0
C      1  0.4401110000000  0.5557530000000  0.4727170000000 1.0
C      1  0.5381100000000  0.4060470000000  0.4983230000000 1.0
C      1  0.4307090000000  0.5284110000000  0.4781010000000 1.0
C      1  0.4484400000000  0.5688430000000  0.4978140000000 1.0
C      1  0.5514480000000  0.4621220000000  0.4483310000000 1.0
C      1  0.5688970000000  0.5330480000000  0.5175140000000 1.0
C      1  0.5168880000000  0.5451210000000  0.4409930000000 1.0
C      1  0.4755770000000  0.5408290000000  0.5339940000000 1.0
C      1  0.5213260000000  0.4880640000000  0.4723040000000 1.0
C      1  0.4686270000000  0.5346530000000  0.4383850000000 1.0
C      1  0.4542240000000  0.5094330000000  0.4415380000000 1.0
C      1  0.4758570000000  0.4696750000000  0.5115950000000 1.0
C      1  0.4867920000000  0.4893920000000  0.5341690000000 1.0
C      1  0.4880160000000  0.5502710000000  0.5573890000000 1.0
C      1  0.4841900000000  0.5011410000000  0.5768750000000 1.0
C      1  0.5135760000000  0.4506130000000  0.5501050000000 1.0
C      1  0.4615830000000  0.4270850000000  0.5073650000000 1.0
C      1  0.4342860000000  0.4825430000000  0.4777180000000 1.0
C      1  0.4470320000000  0.4659480000000  0.5496660000000 1.0
C      1  0.4718590000000  0.4873950000000  0.4363190000000 1.0
C      1  0.4620090000000  0.4871320000000  0.4938550000000 1.0
C      1  0.4520070000000  0.5464660000000  0.5181600000000 1.0
C      1  0.4516880000000  0.4335420000000  0.4837420000000 1.0
C      1  0.4739330000000  0.5822630000000  0.4921520000000 1.0
C      1  0.4237690000000  0.4808350000000  0.5420300000000 1.0
C      1  0.5164180000000  0.5144280000000  0.5094310000000 1.0
C      1  0.4953430000000  0.5284340000000  0.4306880000000 1.0
C      1  0.4134440000000  0.4906510000000  0.4991530000000 1.0
C      1  0.6001720000000  0.4887830000000  0.4830080000000 1.0
C      1  0.4458740000000  0.4561880000000  0.4680360000000 1.0
C      1  0.4908610000000  0.5906690000000  0.5114700000000 1.0
C      1  0.5472550000000  0.4513620000000  0.5091930000000 1.0
C      1  0.5429270000000  0.5344570000000  0.4471310000000 1.0
C      1  0.5205050000000  0.4866390000000  0.4198720000000 1.0
C      1  0.5072300000000  0.4833410000000  0.5830190000000 1.0
C      1  0.4623030000000  0.5575940000000  0.4535680000000 1.0
C      1  0.4781930000000  0.5106320000000  0.4922380000000 1.0
C      1  0.5508620000000  0.5090700000000  0.4385080000000 1.0
C      1  0.5308200000000  0.4963120000000  0.5665980000000 1.0
C      1  0.5064540000000  0.5104770000000  0.4827330000000 1.0
C      1  0.5335850000000  0.4372660000000  0.5316350000000 1.0
C      1  0.5153110000000  0.4809180000000  0.5419810000000 1.0
C      1  0.5337270000000  0.5486270000000  0.5526290000000 1.0
C      1  0.4043840000000  0.4788890000000  0.5227890000000 1.0
C      1  0.4958860000000  0.4996720000000  0.4261790000000 1.0
C      1  0.5279540000000  0.4618690000000  0.4307570000000 1.0
C      1  0.5517290000000  0.4892360000000  0.4608680000000 1.0
C      1  0.5523080000000  0.5432430000000  0.4722710000000 1.0
C      1  0.4692860000000  0.4623760000000  0.4514140000000 1.0
C      1  0.5572010000000  0.4869580000000  0.5613290000000 1.0
C      1  0.5429720000000  0.5020890000000  0.4132430000000 1.0
C      1  0.4963810000000  0.5264470000000  0.5723920000000 1.0
C      1  0.4937110000000  0.4264120000000  0.5124750000000 1.0
C      1  0.5122160000000  0.5799080000000  0.5243480000000 1.0
C      1  0.5113740000000  0.5643670000000  0.4618170000000 1.0
C      1  0.4181370000000  0.5186570000000  0.5023400000000 1.0
END
