TITL C-66710-1377-3 -81.8474973733217 125000 -191.357818581494 0 0 30 (C1) n - 1
REM
REM in /rds/project/t2_vol4/rds-t2-cs072/BORA/CARBON/from-Arr/AIRSS/Generating-Clusters/GAP-ML-2020/Only-C1/SD-CG/HFTN-CG
REM
REM
REM
REM
REM
REM ./C.cell (11c1c37f851c82e70ff6c80c92926a4b)
REM AIRSS Version 0.9.1 bugfix July 2018 build 013d7b7c2542+ Fri, 06 Jul 2018 19:26:36 +0100
REM compiler GCC version 9.3.0
REM options -cpp -mtune=generic -march=x86-64 -g -O0
REM seed 968244038 -839622792 -2118013397 -1133814413 -934671008 -1095399530 -688541515 -372666234 874912037 -1714982007 1892909188 -443838231 -505886580 1198959972 -1519623288 -1775305220 -684365120 -1534117016 1282777546 938954226 602358646 -1273675305 -322199177 -1545645600 -611470085 -99757754 1984189388 270048208 1812310576 563677482 426097898 242339810 1991347813
REM
CELL 1.54180   50.00000   50.00000   50.00000   90.00000   90.00000   90.00000
LATT -1
SFAC C  
C      1  0.5731920000000  0.4721920000000  0.5292490000000 1.0
C      1  0.4727440000000  0.5183550000000  0.5353970000000 1.0
C      1  0.4701770000000  0.5032410000000  0.4889430000000 1.0
C      1  0.4475400000000  0.5274150000000  0.5210130000000 1.0
C      1  0.5126070000000  0.5431080000000  0.4932270000000 1.0
C      1  0.5142730000000  0.4788510000000  0.4911770000000 1.0
C      1  0.5206870000000  0.4951030000000  0.5410870000000 1.0
C      1  0.5414380000000  0.5087740000000  0.4714900000000 1.0
C      1  0.4709730000000  0.4772740000000  0.4364250000000 1.0
C      1  0.4596340000000  0.5299060000000  0.4927790000000 1.0
C      1  0.4532870000000  0.4862560000000  0.5071870000000 1.0
C      1  0.5190590000000  0.5346950000000  0.5195390000000 1.0
C      1  0.5124610000000  0.5139520000000  0.5602710000000 1.0
C      1  0.4312230000000  0.5046090000000  0.5176280000000 1.0
C      1  0.5226060000000  0.4812860000000  0.4340590000000 1.0
C      1  0.5383250000000  0.4928140000000  0.4502130000000 1.0
C      1  0.4966050000000  0.4977230000000  0.4757120000000 1.0
C      1  0.5408240000000  0.4934560000000  0.4971890000000 1.0
C      1  0.5036300000000  0.4588670000000  0.5080030000000 1.0
C      1  0.4752900000000  0.5509560000000  0.4864860000000 1.0
C      1  0.4608860000000  0.4326540000000  0.5042530000000 1.0
C      1  0.4945760000000  0.4846060000000  0.4464140000000 1.0
C      1  0.5154800000000  0.5210550000000  0.4751470000000 1.0
C      1  0.4746930000000  0.4907680000000  0.5273000000000 1.0
C      1  0.4985320000000  0.5294820000000  0.5420280000000 1.0
C      1  0.5004600000000  0.4794080000000  0.5276440000000 1.0
C      1  0.4851640000000  0.4396140000000  0.5048950000000 1.0
C      1  0.4962950000000  0.5659060000000  0.4867580000000 1.0
C      1  0.5357180000000  0.5115260000000  0.5210500000000 1.0
C      1  0.5616240000000  0.4761490000000  0.5074380000000 1.0
END
