TITL C-66699-4207-2 279.620351736776 125000 -343.603802191049 0 0 51 (C1) n - 1
REM
REM in /rds/project/t2_vol4/rds-t2-cs072/BORA/CARBON/from-Arr/AIRSS/Generating-Clusters/GAP-ML-2020/Only-C1/SD-CG/HFTN-CG
REM
REM
REM
REM
REM
REM ./C.cell (11c1c37f851c82e70ff6c80c92926a4b)
REM AIRSS Version 0.9.1 bugfix July 2018 build 013d7b7c2542+ Fri, 06 Jul 2018 19:26:36 +0100
REM compiler GCC version 9.3.0
REM options -cpp -mtune=generic -march=x86-64 -g -O0
REM seed 1874307348 2054434910 -801770321 -1901427458 -902039307 -1134819292 -1007907147 1867151115 1681507181 1658791583 499003810 496965551 -1770826868 1547160204 -1094449029 -970834181 -1697923871 1962129979 743319458 -894460396 -355788788 -488286389 1339052201 1191622711 -1301185861 -1298336501 -2124378071 325228393 1823004260 2012910238 -1117857339 -617095769 -682495892
REM
CELL 1.54180   50.00000   50.00000   50.00000   90.00000   90.00000   90.00000
LATT -1
SFAC C  
C      1  0.4796680000000  0.5416390000000  0.5382920000000 1.0
C      1  0.5207070000000  0.4984790000000  0.5023560000000 1.0
C      1  0.4822840000000  0.5136900000000  0.4529000000000 1.0
C      1  0.5353830000000  0.4735470000000  0.5419970000000 1.0
C      1  0.4796610000000  0.5380130000000  0.4673350000000 1.0
C      1  0.5622500000000  0.4833440000000  0.4810690000000 1.0
C      1  0.4817630000000  0.5261970000000  0.5126020000000 1.0
C      1  0.4983680000000  0.5707310000000  0.5085050000000 1.0
C      1  0.5020280000000  0.5596340000000  0.5328660000000 1.0
C      1  0.5623600000000  0.5245060000000  0.5076250000000 1.0
C      1  0.5024050000000  0.5561250000000  0.4737120000000 1.0
C      1  0.4889230000000  0.5158160000000  0.5814620000000 1.0
C      1  0.4529910000000  0.4911130000000  0.5277130000000 1.0
C      1  0.4562460000000  0.4849440000000  0.4839990000000 1.0
C      1  0.5278100000000  0.5427090000000  0.4826140000000 1.0
C      1  0.5077820000000  0.4475700000000  0.4680550000000 1.0
C      1  0.4365020000000  0.5287070000000  0.5007820000000 1.0
C      1  0.4618910000000  0.5358990000000  0.4925340000000 1.0
C      1  0.4720550000000  0.4696770000000  0.4381590000000 1.0
C      1  0.4963540000000  0.5821060000000  0.4856720000000 1.0
C      1  0.5634250000000  0.5117920000000  0.4825000000000 1.0
C      1  0.4953500000000  0.4533680000000  0.4426930000000 1.0
C      1  0.4904950000000  0.4597770000000  0.5383770000000 1.0
C      1  0.4389100000000  0.4432320000000  0.4912420000000 1.0
C      1  0.4979690000000  0.4765160000000  0.4278890000000 1.0
C      1  0.5434100000000  0.5453860000000  0.5085630000000 1.0
C      1  0.5430360000000  0.5235110000000  0.4664130000000 1.0
C      1  0.4178500000000  0.4597160000000  0.4912910000000 1.0
C      1  0.5494700000000  0.4607510000000  0.4950870000000 1.0
C      1  0.5347300000000  0.4549420000000  0.4701860000000 1.0
C      1  0.4295990000000  0.5042190000000  0.5135470000000 1.0
C      1  0.5457530000000  0.4779310000000  0.4569520000000 1.0
C      1  0.5089120000000  0.4769890000000  0.5526290000000 1.0
C      1  0.5246100000000  0.5410710000000  0.5308530000000 1.0
C      1  0.5295000000000  0.5193480000000  0.5503730000000 1.0
C      1  0.5348380000000  0.4561110000000  0.5193500000000 1.0
C      1  0.5071480000000  0.4471660000000  0.5179510000000 1.0
C      1  0.5685670000000  0.5063870000000  0.5264980000000 1.0
C      1  0.5321280000000  0.5026210000000  0.4501210000000 1.0
C      1  0.4934660000000  0.4531110000000  0.4927770000000 1.0
C      1  0.4637860000000  0.4562860000000  0.4973820000000 1.0
C      1  0.4645610000000  0.4907230000000  0.4565970000000 1.0
C      1  0.4982510000000  0.4844700000000  0.4979450000000 1.0
C      1  0.5111690000000  0.5243610000000  0.5071110000000 1.0
C      1  0.4647930000000  0.4654270000000  0.5270810000000 1.0
C      1  0.5482710000000  0.4991240000000  0.5423410000000 1.0
C      1  0.5057710000000  0.5018020000000  0.4400380000000 1.0
C      1  0.4737750000000  0.4985220000000  0.5073490000000 1.0
C      1  0.4272550000000  0.4858190000000  0.4928920000000 1.0
C      1  0.5075330000000  0.5046130000000  0.5624040000000 1.0
C      1  0.4782430000000  0.5304600000000  0.5633170000000 1.0
END
