TITL C-66601-1419-7 -18.0683818897408 125000 -966.919789505052 0 0 135 (C1) n - 1
REM
REM in /rds/project/t2_vol4/rds-t2-cs072/BORA/CARBON/from-Arr/AIRSS/Generating-Clusters/GAP-ML-2020/Only-C1/SD-CG/HFTN-CG
REM
REM
REM
REM
REM
REM ./C.cell (11c1c37f851c82e70ff6c80c92926a4b)
REM AIRSS Version 0.9.1 bugfix July 2018 build 013d7b7c2542+ Fri, 06 Jul 2018 19:26:36 +0100
REM compiler GCC version 9.3.0
REM options -cpp -mtune=generic -march=x86-64 -g -O0
REM seed 861059245 721962240 1063400271 -683834225 -330235126 449974343 91443988 2065544571 -359069908 -280620714 702646885 2046238989 1277982436 266281561 -1621174910 -694813278 -64998553 -637316113 1417851007 -1957346841 781226916 -1915653548 -2080327309 1573840716 1957754084 1467572635 910519442 -1130227586 751903888 1156917569 458839934 2108854869 457048572
REM
CELL 1.54180   50.00000   50.00000   50.00000   90.00000   90.00000   90.00000
LATT -1
SFAC C  
C      1  0.4562030000000  0.5027920000000  0.5065130000000 1.0
C      1  0.5257910000000  0.5821420000000  0.5221220000000 1.0
C      1  0.4885550000000  0.5726050000000  0.4273600000000 1.0
C      1  0.5084190000000  0.4219880000000  0.4685190000000 1.0
C      1  0.4598390000000  0.4294130000000  0.4977150000000 1.0
C      1  0.4997260000000  0.5396920000000  0.6010860000000 1.0
C      1  0.4466660000000  0.5029770000000  0.5631450000000 1.0
C      1  0.5882510000000  0.5360660000000  0.4676940000000 1.0
C      1  0.4966610000000  0.5066800000000  0.5534570000000 1.0
C      1  0.4787250000000  0.5810400000000  0.5459570000000 1.0
C      1  0.4865980000000  0.5011960000000  0.4016190000000 1.0
C      1  0.4597830000000  0.5724200000000  0.4967170000000 1.0
C      1  0.4368150000000  0.5265330000000  0.4436080000000 1.0
C      1  0.4837100000000  0.4900090000000  0.5326890000000 1.0
C      1  0.3992840000000  0.4948140000000  0.5012250000000 1.0
C      1  0.5642020000000  0.5755550000000  0.4797280000000 1.0
C      1  0.5146120000000  0.5172920000000  0.6076140000000 1.0
C      1  0.4558710000000  0.5650570000000  0.5394950000000 1.0
C      1  0.5678650000000  0.5254070000000  0.5568310000000 1.0
C      1  0.5078680000000  0.5797460000000  0.4465420000000 1.0
C      1  0.5333020000000  0.5142130000000  0.4911170000000 1.0
C      1  0.4458110000000  0.4342170000000  0.4704020000000 1.0
C      1  0.4864350000000  0.5076920000000  0.5069080000000 1.0
C      1  0.4809610000000  0.4840120000000  0.5947250000000 1.0
C      1  0.4632090000000  0.5499490000000  0.5155770000000 1.0
C      1  0.4830080000000  0.4377850000000  0.5441590000000 1.0
C      1  0.5681420000000  0.4650020000000  0.4539090000000 1.0
C      1  0.4729100000000  0.5326970000000  0.5939040000000 1.0
C      1  0.5771180000000  0.4519750000000  0.5469370000000 1.0
C      1  0.4984300000000  0.5273680000000  0.3991850000000 1.0
C      1  0.5547620000000  0.4212770000000  0.4712490000000 1.0
C      1  0.5312540000000  0.5407740000000  0.4811740000000 1.0
C      1  0.5320510000000  0.5679390000000  0.4385390000000 1.0
C      1  0.4643480000000  0.4514750000000  0.4208180000000 1.0
C      1  0.5114960000000  0.4355910000000  0.4136020000000 1.0
C      1  0.4725710000000  0.5072500000000  0.5783370000000 1.0
C      1  0.5314300000000  0.4859160000000  0.4218760000000 1.0
C      1  0.5687560000000  0.4714450000000  0.5650830000000 1.0
C      1  0.5042880000000  0.4044350000000  0.4898790000000 1.0
C      1  0.5040480000000  0.5484390000000  0.4837830000000 1.0
C      1  0.3992500000000  0.5181970000000  0.5180950000000 1.0
C      1  0.4963780000000  0.4440020000000  0.5703460000000 1.0
C      1  0.5478500000000  0.4623210000000  0.4329300000000 1.0
C      1  0.5328270000000  0.4216110000000  0.4541070000000 1.0
C      1  0.4924480000000  0.5364880000000  0.5120420000000 1.0
C      1  0.5464040000000  0.5312810000000  0.5734010000000 1.0
C      1  0.4844940000000  0.5870810000000  0.4975820000000 1.0
C      1  0.4402300000000  0.4358420000000  0.5198170000000 1.0
C      1  0.5075360000000  0.5586880000000  0.5804030000000 1.0
C      1  0.4458970000000  0.5228870000000  0.4163990000000 1.0
C      1  0.4053910000000  0.4722080000000  0.5185920000000 1.0
C      1  0.4612260000000  0.5546960000000  0.5808190000000 1.0
C      1  0.5312540000000  0.5900580000000  0.4946700000000 1.0
C      1  0.4579730000000  0.5460930000000  0.4553720000000 1.0
C      1  0.5449960000000  0.5107150000000  0.4102390000000 1.0
C      1  0.4165760000000  0.5221310000000  0.4631690000000 1.0
C      1  0.5363330000000  0.4219740000000  0.5520290000000 1.0
C      1  0.5810700000000  0.4450660000000  0.5011240000000 1.0
C      1  0.5450050000000  0.4618760000000  0.5797210000000 1.0
C      1  0.5320170000000  0.4854840000000  0.5321620000000 1.0
C      1  0.4625310000000  0.4825440000000  0.4869540000000 1.0
C      1  0.4169020000000  0.5373260000000  0.5077860000000 1.0
C      1  0.5517190000000  0.4094290000000  0.4970230000000 1.0
C      1  0.4910660000000  0.4620150000000  0.5240040000000 1.0
C      1  0.4580740000000  0.4987960000000  0.4068390000000 1.0
C      1  0.5724620000000  0.4440580000000  0.4730550000000 1.0
C      1  0.4445290000000  0.5290420000000  0.5101130000000 1.0
C      1  0.4469110000000  0.4741460000000  0.4172220000000 1.0
C      1  0.4064180000000  0.4966680000000  0.4732270000000 1.0
C      1  0.5706630000000  0.5425960000000  0.4464350000000 1.0
C      1  0.5874690000000  0.4637120000000  0.5225500000000 1.0
C      1  0.4529620000000  0.4386580000000  0.5453040000000 1.0
C      1  0.4220300000000  0.4488450000000  0.4774260000000 1.0
C      1  0.4739980000000  0.4878200000000  0.4610000000000 1.0
C      1  0.5427250000000  0.5645350000000  0.5394930000000 1.0
C      1  0.4810230000000  0.4095640000000  0.5054920000000 1.0
C      1  0.4826790000000  0.4609900000000  0.4540670000000 1.0
C      1  0.5769990000000  0.4979820000000  0.5530200000000 1.0
C      1  0.4855290000000  0.5522650000000  0.4053760000000 1.0
C      1  0.4578910000000  0.5481110000000  0.4100290000000 1.0
C      1  0.4916770000000  0.4129760000000  0.5315490000000 1.0
C      1  0.5553720000000  0.6013130000000  0.4859410000000 1.0
C      1  0.4751080000000  0.4590080000000  0.5826500000000 1.0
C      1  0.4435250000000  0.5610020000000  0.4765310000000 1.0
C      1  0.5300160000000  0.4852180000000  0.5865690000000 1.0
C      1  0.4967900000000  0.5860130000000  0.5239880000000 1.0
C      1  0.5684900000000  0.4230130000000  0.5145510000000 1.0
C      1  0.5060820000000  0.5806300000000  0.4783440000000 1.0
C      1  0.5270270000000  0.4011420000000  0.5068500000000 1.0
C      1  0.5832260000000  0.5548330000000  0.4890110000000 1.0
C      1  0.4203570000000  0.5445200000000  0.4816230000000 1.0
C      1  0.4313950000000  0.4771500000000  0.5647990000000 1.0
C      1  0.5064110000000  0.4899950000000  0.6043920000000 1.0
C      1  0.4262250000000  0.4740980000000  0.4353260000000 1.0
C      1  0.5206620000000  0.4646600000000  0.5162630000000 1.0
C      1  0.4185640000000  0.4497240000000  0.5065220000000 1.0
C      1  0.5452750000000  0.5023290000000  0.4665660000000 1.0
C      1  0.5244210000000  0.5001140000000  0.4474020000000 1.0
C      1  0.4767580000000  0.4567300000000  0.4977470000000 1.0
C      1  0.4554200000000  0.4933660000000  0.5339720000000 1.0
C      1  0.5108020000000  0.5288570000000  0.5360370000000 1.0
C      1  0.5195360000000  0.4075530000000  0.5336010000000 1.0
C      1  0.4072220000000  0.5113980000000  0.5447020000000 1.0
C      1  0.5495730000000  0.5581000000000  0.4601340000000 1.0
C      1  0.5332130000000  0.4378690000000  0.4302990000000 1.0
C      1  0.4613870000000  0.5648830000000  0.4330020000000 1.0
C      1  0.5319070000000  0.5113750000000  0.5201930000000 1.0
C      1  0.5265960000000  0.5489000000000  0.5591030000000 1.0
C      1  0.5677150000000  0.5472870000000  0.5367910000000 1.0
C      1  0.5043410000000  0.4799110000000  0.4062550000000 1.0
C      1  0.5895540000000  0.5095350000000  0.4783820000000 1.0
C      1  0.4919430000000  0.4538790000000  0.4088460000000 1.0
C      1  0.5187230000000  0.4887680000000  0.5579840000000 1.0
C      1  0.5184030000000  0.4696250000000  0.4883190000000 1.0
C      1  0.4489730000000  0.4550550000000  0.5682620000000 1.0
C      1  0.5888850000000  0.4922870000000  0.5271180000000 1.0
C      1  0.5714140000000  0.4918050000000  0.4636090000000 1.0
C      1  0.5257470000000  0.4406370000000  0.5711310000000 1.0
C      1  0.4988840000000  0.4510700000000  0.4753410000000 1.0
C      1  0.5256810000000  0.5300290000000  0.4009220000000 1.0
C      1  0.5386580000000  0.5133380000000  0.5931380000000 1.0
C      1  0.5838900000000  0.5407410000000  0.5140290000000 1.0
C      1  0.4281380000000  0.5252230000000  0.5591990000000 1.0
C      1  0.5603280000000  0.5329990000000  0.4221000000000 1.0
C      1  0.5902830000000  0.5128160000000  0.5075020000000 1.0
C      1  0.4881480000000  0.5343050000000  0.4626590000000 1.0
C      1  0.4418510000000  0.5509700000000  0.5606870000000 1.0
C      1  0.5384250000000  0.5514650000000  0.4158700000000 1.0
C      1  0.4104610000000  0.4828130000000  0.5456150000000 1.0
C      1  0.4149420000000  0.4719540000000  0.4597570000000 1.0
C      1  0.5077470000000  0.4987410000000  0.4874460000000 1.0
C      1  0.4616420000000  0.4414300000000  0.4477400000000 1.0
C      1  0.4968710000000  0.5064350000000  0.4596160000000 1.0
C      1  0.5625230000000  0.4281020000000  0.5416670000000 1.0
C      1  0.4832790000000  0.5713360000000  0.5721210000000 1.0
END
