TITL C-66709-9679-3 -12.7629168593354 125000 -861.114432786923 0 0 122 (C1) n - 1
REM
REM in /rds/project/t2_vol4/rds-t2-cs072/BORA/CARBON/from-Arr/AIRSS/Generating-Clusters/GAP-ML-2020/Only-C1/SD-CG/HFTN-CG
REM
REM
REM
REM
REM
REM ./C.cell (11c1c37f851c82e70ff6c80c92926a4b)
REM AIRSS Version 0.9.1 bugfix July 2018 build 013d7b7c2542+ Fri, 06 Jul 2018 19:26:36 +0100
REM compiler GCC version 9.3.0
REM options -cpp -mtune=generic -march=x86-64 -g -O0
REM seed 1811718226 -366404870 -1034398627 1531044022 -1236390300 -1729250365 -1649562439 -1720721490 256803043 1316649859 -1179148342 -492128098 1386108987 1888154868 -2049270913 728477506 -1509585035 1444966449 367394151 -2081553681 -1438075794 1312137677 -1637092119 -1686138345 187276585 -109459641 -1629095100 -537166432 1315050910 1624757235 50914777 -346473202 1065033981
REM
CELL 1.54180   50.00000   50.00000   50.00000   90.00000   90.00000   90.00000
LATT -1
SFAC C  
C      1  0.5317410000000  0.4919790000000  0.5335410000000 1.0
C      1  0.5377940000000  0.4673590000000  0.5171130000000 1.0
C      1  0.5193460000000  0.4268210000000  0.4461280000000 1.0
C      1  0.5708010000000  0.5235030000000  0.4379410000000 1.0
C      1  0.4255400000000  0.4700850000000  0.4613690000000 1.0
C      1  0.5458210000000  0.4808560000000  0.4057500000000 1.0
C      1  0.4061780000000  0.4709390000000  0.5524600000000 1.0
C      1  0.5447480000000  0.4819890000000  0.5604770000000 1.0
C      1  0.5394610000000  0.5663090000000  0.5285970000000 1.0
C      1  0.5000470000000  0.4734850000000  0.4054020000000 1.0
C      1  0.4152500000000  0.5419280000000  0.5016230000000 1.0
C      1  0.4789520000000  0.5810420000000  0.5055130000000 1.0
C      1  0.4087700000000  0.4663050000000  0.5035280000000 1.0
C      1  0.5784120000000  0.5495220000000  0.5096240000000 1.0
C      1  0.4710400000000  0.5820200000000  0.4760740000000 1.0
C      1  0.4583890000000  0.5040930000000  0.5265840000000 1.0
C      1  0.4671090000000  0.4844000000000  0.4790550000000 1.0
C      1  0.5265440000000  0.5238090000000  0.5840880000000 1.0
C      1  0.5607810000000  0.5277760000000  0.5558220000000 1.0
C      1  0.5351200000000  0.4413770000000  0.4269230000000 1.0
C      1  0.5257970000000  0.4603610000000  0.4078440000000 1.0
C      1  0.4574800000000  0.5626770000000  0.5524700000000 1.0
C      1  0.5836950000000  0.4974760000000  0.4323100000000 1.0
C      1  0.4027790000000  0.5170320000000  0.5095320000000 1.0
C      1  0.5592930000000  0.5482100000000  0.4373100000000 1.0
C      1  0.5049680000000  0.5424660000000  0.4782690000000 1.0
C      1  0.5006790000000  0.4945540000000  0.5272440000000 1.0
C      1  0.5434810000000  0.4217060000000  0.5253980000000 1.0
C      1  0.5011670000000  0.5655600000000  0.5705020000000 1.0
C      1  0.4979920000000  0.4595580000000  0.5757670000000 1.0
C      1  0.5085600000000  0.4996340000000  0.4985730000000 1.0
C      1  0.4751240000000  0.4436580000000  0.5655170000000 1.0
C      1  0.4261080000000  0.5216690000000  0.4573000000000 1.0
C      1  0.5712680000000  0.4754620000000  0.5445200000000 1.0
C      1  0.5500430000000  0.5184730000000  0.4841430000000 1.0
C      1  0.5203060000000  0.4101450000000  0.5149230000000 1.0
C      1  0.5024530000000  0.5109530000000  0.5863900000000 1.0
C      1  0.5893990000000  0.4673920000000  0.4710200000000 1.0
C      1  0.5339260000000  0.4167900000000  0.4691230000000 1.0
C      1  0.4766040000000  0.4645090000000  0.4178140000000 1.0
C      1  0.4843180000000  0.5499330000000  0.5010040000000 1.0
C      1  0.4851280000000  0.5217800000000  0.4153660000000 1.0
C      1  0.5887540000000  0.5246350000000  0.5487640000000 1.0
C      1  0.5189380000000  0.5902170000000  0.4820370000000 1.0
C      1  0.4359320000000  0.4389700000000  0.5385470000000 1.0
C      1  0.4921380000000  0.4974410000000  0.4715210000000 1.0
C      1  0.4428980000000  0.5279360000000  0.4357010000000 1.0
C      1  0.5091920000000  0.5596190000000  0.4509570000000 1.0
C      1  0.4796010000000  0.4277380000000  0.5421090000000 1.0
C      1  0.4389450000000  0.4974930000000  0.5724410000000 1.0
C      1  0.4338090000000  0.5151630000000  0.5476230000000 1.0
C      1  0.4848770000000  0.5177400000000  0.5386340000000 1.0
C      1  0.4507070000000  0.5656640000000  0.4640750000000 1.0
C      1  0.5259280000000  0.5380160000000  0.5207420000000 1.0
C      1  0.4564730000000  0.5068710000000  0.4979040000000 1.0
C      1  0.5197880000000  0.4693670000000  0.4925410000000 1.0
C      1  0.4904610000000  0.4301590000000  0.4532010000000 1.0
C      1  0.5147290000000  0.4075950000000  0.4877640000000 1.0
C      1  0.5043640000000  0.5030090000000  0.4071160000000 1.0
C      1  0.4192230000000  0.5543060000000  0.5255310000000 1.0
C      1  0.5252570000000  0.4587820000000  0.5644480000000 1.0
C      1  0.4349440000000  0.5459860000000  0.5461080000000 1.0
C      1  0.4530090000000  0.4709830000000  0.4518290000000 1.0
C      1  0.5255460000000  0.5515360000000  0.5740690000000 1.0
C      1  0.4570170000000  0.4840210000000  0.4249040000000 1.0
C      1  0.5434260000000  0.5756550000000  0.4790640000000 1.0
C      1  0.5683990000000  0.5207340000000  0.5060980000000 1.0
C      1  0.5478500000000  0.5087340000000  0.5739030000000 1.0
C      1  0.4057270000000  0.5095730000000  0.5374850000000 1.0
C      1  0.5465040000000  0.5183770000000  0.5297860000000 1.0
C      1  0.5532730000000  0.5107080000000  0.4582040000000 1.0
C      1  0.5189080000000  0.5870960000000  0.5304060000000 1.0
C      1  0.4981140000000  0.5839570000000  0.5490630000000 1.0
C      1  0.4644130000000  0.4998930000000  0.5822270000000 1.0
C      1  0.4343250000000  0.5430110000000  0.4780850000000 1.0
C      1  0.4889950000000  0.4217590000000  0.4818160000000 1.0
C      1  0.5033290000000  0.4323950000000  0.5262820000000 1.0
C      1  0.5690940000000  0.4747990000000  0.4207340000000 1.0
C      1  0.5160230000000  0.4813160000000  0.4648100000000 1.0
C      1  0.4491470000000  0.4412800000000  0.4909480000000 1.0
C      1  0.4627370000000  0.5323730000000  0.4869340000000 1.0
C      1  0.4587620000000  0.5518210000000  0.4402420000000 1.0
C      1  0.4627100000000  0.4178620000000  0.4971390000000 1.0
C      1  0.4713540000000  0.4630650000000  0.4991900000000 1.0
C      1  0.4761660000000  0.5519880000000  0.5717270000000 1.0
C      1  0.4970590000000  0.5396190000000  0.5255010000000 1.0
C      1  0.4735950000000  0.4789460000000  0.5246280000000 1.0
C      1  0.5629140000000  0.4319480000000  0.5076480000000 1.0
C      1  0.4032850000000  0.4939410000000  0.4930140000000 1.0
C      1  0.4585040000000  0.5110070000000  0.4189760000000 1.0
C      1  0.5984050000000  0.4858630000000  0.4523170000000 1.0
C      1  0.4568750000000  0.4232790000000  0.5253730000000 1.0
C      1  0.4892950000000  0.4849970000000  0.5872280000000 1.0
C      1  0.5063530000000  0.5931990000000  0.5062590000000 1.0
C      1  0.5685030000000  0.4604610000000  0.5167310000000 1.0
C      1  0.5591870000000  0.4280250000000  0.4789720000000 1.0
C      1  0.4240310000000  0.4528840000000  0.4839140000000 1.0
C      1  0.5724590000000  0.4457610000000  0.4610550000000 1.0
C      1  0.4842270000000  0.5252720000000  0.4647560000000 1.0
C      1  0.5865610000000  0.4744070000000  0.4984070000000 1.0
C      1  0.4720610000000  0.4479230000000  0.4411020000000 1.0
C      1  0.5898410000000  0.4968900000000  0.5392980000000 1.0
C      1  0.5309270000000  0.5021480000000  0.4169760000000 1.0
C      1  0.5621880000000  0.4504830000000  0.4347960000000 1.0
C      1  0.5945980000000  0.5455440000000  0.5305600000000 1.0
C      1  0.4143670000000  0.4965580000000  0.4664630000000 1.0
C      1  0.4801910000000  0.5230170000000  0.5710870000000 1.0
C      1  0.5570060000000  0.5681940000000  0.5042490000000 1.0
C      1  0.4868260000000  0.5421100000000  0.4369060000000 1.0
C      1  0.4462330000000  0.4492470000000  0.5634010000000 1.0
C      1  0.5468700000000  0.5548990000000  0.5564740000000 1.0
C      1  0.4288890000000  0.4712420000000  0.5699570000000 1.0
C      1  0.3890280000000  0.4920310000000  0.5507100000000 1.0
C      1  0.5402320000000  0.5620290000000  0.4520050000000 1.0
C      1  0.5337930000000  0.4951840000000  0.4481600000000 1.0
C      1  0.4977130000000  0.5833120000000  0.4634750000000 1.0
C      1  0.5279950000000  0.4448180000000  0.5384930000000 1.0
C      1  0.4133430000000  0.4550760000000  0.5299440000000 1.0
C      1  0.4971930000000  0.4483270000000  0.4988850000000 1.0
C      1  0.5237180000000  0.5254000000000  0.4933370000000 1.0
C      1  0.5892740000000  0.4994910000000  0.5104410000000 1.0
C      1  0.4722640000000  0.5812250000000  0.5358380000000 1.0
END
