TITL C-66144-5833-6 0.135870499912378 125000 -244.058244519741 0 0 37 (C1) n - 1
REM
REM in /rds/project/t2_vol4/rds-t2-cs072/BORA/CARBON/from-Arr/AIRSS/Generating-Clusters/GAP-ML-2020/Only-C1/SD-CG/HFTN-CG
REM
REM
REM
REM
REM
REM ./C.cell (11c1c37f851c82e70ff6c80c92926a4b)
REM AIRSS Version 0.9.1 bugfix July 2018 build 013d7b7c2542+ Fri, 06 Jul 2018 19:26:36 +0100
REM compiler GCC version 9.3.0
REM options -cpp -mtune=generic -march=x86-64 -g -O0
REM seed 1035333726 514061110 2069254893 1372082624 -2096423156 1138696077 -49852583 -1333070820 2142097548 -838021739 -722805050 -1300323146 -2041804493 168308915 -1022050344 -2085535151 -2026598626 -1279583021 -926417894 1286929448 1545201224 1875613817 956366937 1689624885 -805755023 -2097480180 23506881 481937673 500846632 167710995 1427570407 400252459 -877507282
REM
CELL 1.54180   50.00000   50.00000   50.00000   90.00000   90.00000   90.00000
LATT -1
SFAC C  
C      1  0.5335730000000  0.4482540000000  0.5115350000000 1.0
C      1  0.5016540000000  0.5054360000000  0.4823730000000 1.0
C      1  0.4672200000000  0.4968050000000  0.4517440000000 1.0
C      1  0.4483000000000  0.5051460000000  0.5022910000000 1.0
C      1  0.4899830000000  0.4833380000000  0.5552840000000 1.0
C      1  0.4580540000000  0.5096000000000  0.5305690000000 1.0
C      1  0.4661310000000  0.4658050000000  0.5185430000000 1.0
C      1  0.4821110000000  0.5517300000000  0.4923230000000 1.0
C      1  0.4949960000000  0.4662250000000  0.4602530000000 1.0
C      1  0.4652170000000  0.4841350000000  0.5402610000000 1.0
C      1  0.4808780000000  0.5261600000000  0.5380270000000 1.0
C      1  0.4953780000000  0.5391790000000  0.5169160000000 1.0
C      1  0.5013720000000  0.5091720000000  0.5523400000000 1.0
C      1  0.4951410000000  0.4918540000000  0.4447410000000 1.0
C      1  0.4595240000000  0.5210270000000  0.4645190000000 1.0
C      1  0.4787470000000  0.5421410000000  0.4663920000000 1.0
C      1  0.5444740000000  0.4887110000000  0.5378430000000 1.0
C      1  0.5035630000000  0.5399200000000  0.4522070000000 1.0
C      1  0.5138360000000  0.4529680000000  0.4747310000000 1.0
C      1  0.5413710000000  0.4594260000000  0.4865290000000 1.0
C      1  0.4380130000000  0.5204050000000  0.4826390000000 1.0
C      1  0.5073880000000  0.4420060000000  0.5013190000000 1.0
C      1  0.5615370000000  0.4924650000000  0.5162520000000 1.0
C      1  0.5347470000000  0.5390540000000  0.4911110000000 1.0
C      1  0.5201690000000  0.4952110000000  0.4999020000000 1.0
C      1  0.5020120000000  0.5655410000000  0.5042490000000 1.0
C      1  0.5284350000000  0.5648730000000  0.4971090000000 1.0
C      1  0.4672900000000  0.4730100000000  0.4687170000000 1.0
C      1  0.5199470000000  0.5222970000000  0.5114950000000 1.0
C      1  0.5278920000000  0.5354510000000  0.4638700000000 1.0
C      1  0.5316270000000  0.4629290000000  0.5363130000000 1.0
C      1  0.5486480000000  0.4867850000000  0.4924000000000 1.0
C      1  0.5045670000000  0.4615020000000  0.5437290000000 1.0
C      1  0.5269700000000  0.5119160000000  0.5394290000000 1.0
C      1  0.5126110000000  0.5117980000000  0.4556930000000 1.0
C      1  0.4571020000000  0.4778370000000  0.4948090000000 1.0
C      1  0.4895210000000  0.4498880000000  0.5215420000000 1.0
END
