TITL C-66157-5959-6 -0.0786798090363405 125000 -949.512210723539 0 0 136 (C1) n - 1
REM
REM in /rds/project/t2_vol4/rds-t2-cs072/BORA/CARBON/from-Arr/AIRSS/Generating-Clusters/GAP-ML-2020/Only-C1/SD-CG/HFTN-CG
REM
REM
REM
REM
REM
REM ./C.cell (11c1c37f851c82e70ff6c80c92926a4b)
REM AIRSS Version 0.9.1 bugfix July 2018 build 013d7b7c2542+ Fri, 06 Jul 2018 19:26:36 +0100
REM compiler GCC version 9.3.0
REM options -cpp -mtune=generic -march=x86-64 -g -O0
REM seed 950784723 -661365244 -535366089 2140790259 1471264780 454230639 1071707438 -580288454 -1170739503 2096700201 -312293320 625529985 1394689095 -757006801 -548349697 763562518 141214297 795760913 -1523704155 180972429 -1007848663 1385983466 -892593202 -1520973738 310770099 -1444654600 329336664 495540658 -1917904807 -1371224542 1369990245 400399800 1766594014
REM
CELL 1.54180   50.00000   50.00000   50.00000   90.00000   90.00000   90.00000
LATT -1
SFAC C  
C      1  0.4622980000000  0.5450890000000  0.4751090000000 1.0
C      1  0.5288370000000  0.4449940000000  0.5685020000000 1.0
C      1  0.4982030000000  0.5401310000000  0.5397210000000 1.0
C      1  0.4446850000000  0.4426490000000  0.4395380000000 1.0
C      1  0.4627950000000  0.4819600000000  0.4282180000000 1.0
C      1  0.5915320000000  0.5207270000000  0.4973770000000 1.0
C      1  0.4617860000000  0.5050970000000  0.5284580000000 1.0
C      1  0.5016170000000  0.4512770000000  0.5790890000000 1.0
C      1  0.5574590000000  0.5681510000000  0.4572820000000 1.0
C      1  0.4820020000000  0.4173740000000  0.4650120000000 1.0
C      1  0.5510690000000  0.4340020000000  0.4507650000000 1.0
C      1  0.4300990000000  0.5617380000000  0.5369300000000 1.0
C      1  0.4527190000000  0.4970440000000  0.4786560000000 1.0
C      1  0.4894400000000  0.4061960000000  0.5361250000000 1.0
C      1  0.5252850000000  0.5871450000000  0.5081650000000 1.0
C      1  0.5691750000000  0.5687250000000  0.4820830000000 1.0
C      1  0.5803720000000  0.4527500000000  0.5423770000000 1.0
C      1  0.4880890000000  0.3978380000000  0.5082280000000 1.0
C      1  0.4713770000000  0.4378550000000  0.4480350000000 1.0
C      1  0.5289990000000  0.4078080000000  0.4819900000000 1.0
C      1  0.5849130000000  0.5485990000000  0.4977840000000 1.0
C      1  0.4468280000000  0.4307960000000  0.5286620000000 1.0
C      1  0.5601500000000  0.5310480000000  0.5329930000000 1.0
C      1  0.4897590000000  0.4659700000000  0.5410470000000 1.0
C      1  0.5990870000000  0.4692750000000  0.5279520000000 1.0
C      1  0.5371590000000  0.4271480000000  0.5457390000000 1.0
C      1  0.4976800000000  0.5110880000000  0.4544240000000 1.0
C      1  0.5279120000000  0.4875210000000  0.5180650000000 1.0
C      1  0.4250590000000  0.4356750000000  0.4872420000000 1.0
C      1  0.4033330000000  0.4886390000000  0.4803300000000 1.0
C      1  0.4915710000000  0.5116940000000  0.5041900000000 1.0
C      1  0.5434320000000  0.4688760000000  0.5719380000000 1.0
C      1  0.5000790000000  0.4684560000000  0.4064070000000 1.0
C      1  0.3992800000000  0.4756110000000  0.5047810000000 1.0
C      1  0.5190870000000  0.4083010000000  0.5347170000000 1.0
C      1  0.4585210000000  0.5517240000000  0.5719100000000 1.0
C      1  0.4483850000000  0.4595110000000  0.4154550000000 1.0
C      1  0.4894820000000  0.5122640000000  0.5334770000000 1.0
C      1  0.4828140000000  0.5536710000000  0.5206420000000 1.0
C      1  0.4209610000000  0.4464120000000  0.5329810000000 1.0
C      1  0.4888660000000  0.5664970000000  0.4233940000000 1.0
C      1  0.5616980000000  0.5761710000000  0.5320100000000 1.0
C      1  0.5447790000000  0.5202120000000  0.4533760000000 1.0
C      1  0.4288470000000  0.4505190000000  0.4627750000000 1.0
C      1  0.4826080000000  0.6018790000000  0.5081980000000 1.0
C      1  0.5903670000000  0.4882810000000  0.4604770000000 1.0
C      1  0.5108960000000  0.5753180000000  0.4395050000000 1.0
C      1  0.5377860000000  0.5720790000000  0.5510200000000 1.0
C      1  0.5372530000000  0.5622640000000  0.4388440000000 1.0
C      1  0.5078530000000  0.5200220000000  0.4238920000000 1.0
C      1  0.5770540000000  0.5538710000000  0.5258370000000 1.0
C      1  0.5100600000000  0.4182930000000  0.4630780000000 1.0
C      1  0.5744840000000  0.5086770000000  0.5185940000000 1.0
C      1  0.4338880000000  0.5516910000000  0.4868190000000 1.0
C      1  0.5785100000000  0.5167460000000  0.5767890000000 1.0
C      1  0.5229470000000  0.4923760000000  0.5713190000000 1.0
C      1  0.4841420000000  0.5404890000000  0.4953370000000 1.0
C      1  0.5622000000000  0.4962930000000  0.4510860000000 1.0
C      1  0.4200750000000  0.5264060000000  0.5003440000000 1.0
C      1  0.4359950000000  0.5721790000000  0.5098960000000 1.0
C      1  0.5219960000000  0.5124180000000  0.5022010000000 1.0
C      1  0.4790990000000  0.5007080000000  0.5876070000000 1.0
C      1  0.4276380000000  0.4784070000000  0.4690780000000 1.0
C      1  0.4971330000000  0.4825810000000  0.4644900000000 1.0
C      1  0.4569420000000  0.5337760000000  0.4185550000000 1.0
C      1  0.5265410000000  0.5573530000000  0.5026990000000 1.0
C      1  0.4704250000000  0.4670260000000  0.4020150000000 1.0
C      1  0.4991720000000  0.5773900000000  0.4668190000000 1.0
C      1  0.4229390000000  0.5354110000000  0.5471240000000 1.0
C      1  0.5220010000000  0.4416720000000  0.4500180000000 1.0
C      1  0.4640750000000  0.5923540000000  0.5433100000000 1.0
C      1  0.4991910000000  0.4802620000000  0.5858100000000 1.0
C      1  0.5180070000000  0.5883500000000  0.5375540000000 1.0
C      1  0.4725310000000  0.4613910000000  0.4996320000000 1.0
C      1  0.5171930000000  0.3992710000000  0.5063970000000 1.0
C      1  0.4451360000000  0.4193220000000  0.5007880000000 1.0
C      1  0.4950990000000  0.5255130000000  0.5860760000000 1.0
C      1  0.5707400000000  0.4684180000000  0.5646700000000 1.0
C      1  0.4225580000000  0.5524330000000  0.4566220000000 1.0
C      1  0.5031790000000  0.5958980000000  0.4903020000000 1.0
C      1  0.4827400000000  0.4437640000000  0.5606810000000 1.0
C      1  0.6010470000000  0.4967610000000  0.4847460000000 1.0
C      1  0.5845610000000  0.4935350000000  0.5642630000000 1.0
C      1  0.5091550000000  0.4898990000000  0.5423900000000 1.0
C      1  0.4021080000000  0.5170910000000  0.4788130000000 1.0
C      1  0.4820850000000  0.4655980000000  0.4459800000000 1.0
C      1  0.5225500000000  0.5229190000000  0.5793190000000 1.0
C      1  0.4421650000000  0.5552220000000  0.4329760000000 1.0
C      1  0.4548980000000  0.5096150000000  0.4329580000000 1.0
C      1  0.4610070000000  0.4775140000000  0.5400960000000 1.0
C      1  0.5020370000000  0.4517010000000  0.4298030000000 1.0
C      1  0.5546880000000  0.4892440000000  0.5037580000000 1.0
C      1  0.4653400000000  0.5172560000000  0.4594270000000 1.0
C      1  0.5298000000000  0.5351010000000  0.5206010000000 1.0
C      1  0.4913490000000  0.5982340000000  0.5371980000000 1.0
C      1  0.5095830000000  0.5500600000000  0.4811540000000 1.0
C      1  0.4504500000000  0.5025580000000  0.5782930000000 1.0
C      1  0.4694190000000  0.4232210000000  0.5465820000000 1.0
C      1  0.4857640000000  0.5398790000000  0.4148760000000 1.0
C      1  0.4000670000000  0.5363640000000  0.4591740000000 1.0
C      1  0.4041270000000  0.4901820000000  0.5298750000000 1.0
C      1  0.4511550000000  0.4604640000000  0.5193430000000 1.0
C      1  0.4708940000000  0.5712760000000  0.4619960000000 1.0
C      1  0.5611820000000  0.5326100000000  0.5634870000000 1.0
C      1  0.4787990000000  0.4866090000000  0.4876870000000 1.0
C      1  0.5911380000000  0.4490520000000  0.4856910000000 1.0
C      1  0.4555690000000  0.5926780000000  0.5147010000000 1.0
C      1  0.5202950000000  0.5226460000000  0.4718680000000 1.0
C      1  0.4689170000000  0.4074830000000  0.4895860000000 1.0
C      1  0.5714650000000  0.4314500000000  0.4970410000000 1.0
C      1  0.5486160000000  0.4837320000000  0.4747320000000 1.0
C      1  0.4102210000000  0.5185790000000  0.5283450000000 1.0
C      1  0.4436270000000  0.5077150000000  0.5045360000000 1.0
C      1  0.4407060000000  0.4809560000000  0.5620720000000 1.0
C      1  0.5590910000000  0.4772180000000  0.4278220000000 1.0
C      1  0.5162760000000  0.4937310000000  0.4073930000000 1.0
C      1  0.4169650000000  0.4719970000000  0.5482090000000 1.0
C      1  0.4084540000000  0.4484380000000  0.5072120000000 1.0
C      1  0.5934380000000  0.4950080000000  0.5373870000000 1.0
C      1  0.5339790000000  0.5349010000000  0.4312920000000 1.0
C      1  0.4625070000000  0.5744080000000  0.4357570000000 1.0
C      1  0.4948490000000  0.4537200000000  0.5138990000000 1.0
C      1  0.5594320000000  0.4397690000000  0.5265950000000 1.0
C      1  0.5891610000000  0.4595500000000  0.4590060000000 1.0
C      1  0.5190830000000  0.4599710000000  0.5012080000000 1.0
C      1  0.5545140000000  0.5836030000000  0.5053530000000 1.0
C      1  0.5444660000000  0.4636250000000  0.5145020000000 1.0
C      1  0.5543360000000  0.4208290000000  0.4766610000000 1.0
C      1  0.5423410000000  0.4851980000000  0.4084970000000 1.0
C      1  0.5695750000000  0.4518990000000  0.4398740000000 1.0
C      1  0.5223130000000  0.4679630000000  0.4724920000000 1.0
C      1  0.5375910000000  0.5467700000000  0.5697900000000 1.0
C      1  0.6025400000000  0.4708990000000  0.5003560000000 1.0
C      1  0.4490200000000  0.5725630000000  0.5552690000000 1.0
C      1  0.4860310000000  0.5470200000000  0.5708190000000 1.0
C      1  0.4412820000000  0.5289010000000  0.5698110000000 1.0
END
