TITL C-66582-2699-10 -0.0265832767522092 125000 -243.227227451565 0 0 37 (C1) n - 1
REM
REM in /rds/project/t2_vol4/rds-t2-cs072/BORA/CARBON/from-Arr/AIRSS/Generating-Clusters/GAP-ML-2020/Only-C1/SD-CG/HFTN-CG
REM
REM
REM
REM
REM
REM ./C.cell (11c1c37f851c82e70ff6c80c92926a4b)
REM AIRSS Version 0.9.1 bugfix July 2018 build 013d7b7c2542+ Fri, 06 Jul 2018 19:26:36 +0100
REM compiler GCC version 9.3.0
REM options -cpp -mtune=generic -march=x86-64 -g -O0
REM seed -1843595495 1327251176 -952406460 -38537988 -1745695303 -2132944554 -1836277148 323717791 -1459268836 -1645364984 -1882334842 1069219568 2090661853 2125992648 1858020462 -1600979041 -1585753230 -106271111 851971291 -1627645303 2032687756 2122574825 489202124 871588203 -1983867282 -148778523 1970484407 669500070 1074667358 232540368 511970828 -1804477592 635714183
REM
CELL 1.54180   50.00000   50.00000   50.00000   90.00000   90.00000   90.00000
LATT -1
SFAC C  
C      1  0.5378360000000  0.4619380000000  0.4963450000000 1.0
C      1  0.4530530000000  0.5019120000000  0.5169300000000 1.0
C      1  0.5401640000000  0.5319930000000  0.4794670000000 1.0
C      1  0.4968200000000  0.5011450000000  0.4785340000000 1.0
C      1  0.4648860000000  0.4828640000000  0.5356620000000 1.0
C      1  0.5036770000000  0.5510470000000  0.5030570000000 1.0
C      1  0.4721710000000  0.4990030000000  0.4610900000000 1.0
C      1  0.5049020000000  0.4561810000000  0.5364830000000 1.0
C      1  0.4885320000000  0.5407730000000  0.5251750000000 1.0
C      1  0.4686450000000  0.4510330000000  0.4764950000000 1.0
C      1  0.4581020000000  0.4754950000000  0.4712300000000 1.0
C      1  0.4632450000000  0.5379610000000  0.4865340000000 1.0
C      1  0.5101340000000  0.5318210000000  0.4312690000000 1.0
C      1  0.4835720000000  0.4929130000000  0.5550960000000 1.0
C      1  0.4875260000000  0.5506860000000  0.4783820000000 1.0
C      1  0.5318160000000  0.4638690000000  0.5247340000000 1.0
C      1  0.5003800000000  0.5433390000000  0.4540440000000 1.0
C      1  0.4522350000000  0.5170100000000  0.4716100000000 1.0
C      1  0.4772220000000  0.4577750000000  0.5273860000000 1.0
C      1  0.5164740000000  0.5209470000000  0.4667260000000 1.0
C      1  0.4951500000000  0.4397660000000  0.4854910000000 1.0
C      1  0.5299580000000  0.5149040000000  0.5412570000000 1.0
C      1  0.4859300000000  0.5174030000000  0.5661040000000 1.0
C      1  0.5235220000000  0.5076180000000  0.4390310000000 1.0
C      1  0.5071750000000  0.4761610000000  0.5564250000000 1.0
C      1  0.5427060000000  0.5241910000000  0.5183490000000 1.0
C      1  0.5472610000000  0.4853430000000  0.4805440000000 1.0
C      1  0.5312200000000  0.5459440000000  0.5028400000000 1.0
C      1  0.5000790000000  0.4945180000000  0.5027080000000 1.0
C      1  0.5376120000000  0.4900340000000  0.4530480000000 1.0
C      1  0.4634260000000  0.5298240000000  0.5145420000000 1.0
C      1  0.4452770000000  0.4942970000000  0.4902160000000 1.0
C      1  0.4725220000000  0.4442710000000  0.5037440000000 1.0
C      1  0.5025570000000  0.5275110000000  0.5466480000000 1.0
C      1  0.5309290000000  0.4861780000000  0.5443540000000 1.0
C      1  0.5520950000000  0.5097610000000  0.4947820000000 1.0
C      1  0.5211890000000  0.4425680000000  0.4836690000000 1.0
END
