TITL C-66589-1415-10 -91.1450806242074 125000 -696.878751960017 0 0 101 (C1) n - 1
REM
REM in /rds/project/t2_vol4/rds-t2-cs072/BORA/CARBON/from-Arr/AIRSS/Generating-Clusters/GAP-ML-2020/Only-C1/SD-CG/HFTN-CG
REM
REM
REM
REM
REM
REM ./C.cell (11c1c37f851c82e70ff6c80c92926a4b)
REM AIRSS Version 0.9.1 bugfix July 2018 build 013d7b7c2542+ Fri, 06 Jul 2018 19:26:36 +0100
REM compiler GCC version 9.3.0
REM options -cpp -mtune=generic -march=x86-64 -g -O0
REM seed 373991302 343114080 -42826847 1444987924 -762736764 -497464544 1015024194 -713550370 -2103221627 -1582551907 1440818549 1316784900 -1447905217 -627714296 765899100 813496679 371619374 1641649781 170491750 1029381575 386916800 1006971761 -1619010117 886190800 -1976452981 688470819 -1997437620 -1753651091 -1524551278 -792247625 231710871 567899293 862804195
REM
CELL 1.54180   50.00000   50.00000   50.00000   90.00000   90.00000   90.00000
LATT -1
SFAC C  
C      1  0.5176150000000  0.4681440000000  0.4779250000000 1.0
C      1  0.5245580000000  0.4843320000000  0.4333990000000 1.0
C      1  0.4222240000000  0.5041440000000  0.4548640000000 1.0
C      1  0.4466470000000  0.5414720000000  0.4452810000000 1.0
C      1  0.5775190000000  0.5112070000000  0.4993770000000 1.0
C      1  0.4734630000000  0.4568260000000  0.4888560000000 1.0
C      1  0.5715370000000  0.4546150000000  0.5257720000000 1.0
C      1  0.5194410000000  0.5877970000000  0.4907020000000 1.0
C      1  0.5416150000000  0.5694170000000  0.4526950000000 1.0
C      1  0.5642740000000  0.5679840000000  0.5237620000000 1.0
C      1  0.4150040000000  0.5198330000000  0.5143130000000 1.0
C      1  0.4613290000000  0.4524850000000  0.4320140000000 1.0
C      1  0.4300320000000  0.5619160000000  0.4906490000000 1.0
C      1  0.5269790000000  0.4263570000000  0.4956060000000 1.0
C      1  0.4831910000000  0.4461500000000  0.5668560000000 1.0
C      1  0.5836160000000  0.4679740000000  0.4803150000000 1.0
C      1  0.5377990000000  0.5425150000000  0.4995960000000 1.0
C      1  0.5002620000000  0.5846020000000  0.4700180000000 1.0
C      1  0.4991550000000  0.5327740000000  0.5642430000000 1.0
C      1  0.5514690000000  0.4487840000000  0.4533110000000 1.0
C      1  0.4344690000000  0.5232590000000  0.5347790000000 1.0
C      1  0.5419450000000  0.5532700000000  0.5533850000000 1.0
C      1  0.4576000000000  0.4885820000000  0.5243220000000 1.0
C      1  0.4692330000000  0.5591720000000  0.4479040000000 1.0
C      1  0.5797470000000  0.4800710000000  0.5343680000000 1.0
C      1  0.4947300000000  0.4464710000000  0.4714750000000 1.0
C      1  0.4807770000000  0.4075850000000  0.4957210000000 1.0
C      1  0.4365600000000  0.4969720000000  0.4309590000000 1.0
C      1  0.4868120000000  0.4868040000000  0.5281450000000 1.0
C      1  0.5284090000000  0.5002690000000  0.5152890000000 1.0
C      1  0.4634930000000  0.5259340000000  0.4964210000000 1.0
C      1  0.4723740000000  0.5776710000000  0.4695650000000 1.0
C      1  0.4522410000000  0.4983680000000  0.4960080000000 1.0
C      1  0.5101370000000  0.4384760000000  0.4281310000000 1.0
C      1  0.5859740000000  0.4964530000000  0.4777740000000 1.0
C      1  0.4543870000000  0.4916120000000  0.5735660000000 1.0
C      1  0.5771870000000  0.5205150000000  0.5464960000000 1.0
C      1  0.4066030000000  0.4906750000000  0.5158590000000 1.0
C      1  0.5235850000000  0.4669070000000  0.5796610000000 1.0
C      1  0.4646510000000  0.5665240000000  0.5178870000000 1.0
C      1  0.5450040000000  0.5810060000000  0.4794100000000 1.0
C      1  0.4997980000000  0.5114810000000  0.5148270000000 1.0
C      1  0.4758710000000  0.4712770000000  0.5793290000000 1.0
C      1  0.5264050000000  0.5313150000000  0.5585870000000 1.0
C      1  0.5174650000000  0.4463850000000  0.5180750000000 1.0
C      1  0.5535730000000  0.4486290000000  0.5482860000000 1.0
C      1  0.4957700000000  0.5535120000000  0.4352390000000 1.0
C      1  0.5116320000000  0.4434550000000  0.5686110000000 1.0
C      1  0.4449530000000  0.4708720000000  0.4255010000000 1.0
C      1  0.4487390000000  0.4297400000000  0.5316840000000 1.0
C      1  0.5707510000000  0.4490920000000  0.4970790000000 1.0
C      1  0.4186550000000  0.4759710000000  0.5368580000000 1.0
C      1  0.5288970000000  0.5113940000000  0.4252370000000 1.0
C      1  0.5889030000000  0.5048900000000  0.5243780000000 1.0
C      1  0.4172850000000  0.5384970000000  0.4902520000000 1.0
C      1  0.5521900000000  0.5203600000000  0.4439000000000 1.0
C      1  0.5378430000000  0.5747980000000  0.5347450000000 1.0
C      1  0.4285600000000  0.4880250000000  0.4771110000000 1.0
C      1  0.5044830000000  0.5268240000000  0.4268910000000 1.0
C      1  0.4570700000000  0.4166310000000  0.5052730000000 1.0
C      1  0.4819300000000  0.5120490000000  0.4358520000000 1.0
C      1  0.4591450000000  0.5380930000000  0.5252520000000 1.0
C      1  0.5708850000000  0.4692070000000  0.4537410000000 1.0
C      1  0.4484440000000  0.4392890000000  0.4897220000000 1.0
C      1  0.5684420000000  0.5461850000000  0.5435160000000 1.0
C      1  0.4863470000000  0.4433080000000  0.4419390000000 1.0
C      1  0.4539690000000  0.5747400000000  0.4921510000000 1.0
C      1  0.5161040000000  0.5373270000000  0.4795550000000 1.0
C      1  0.4725030000000  0.4405810000000  0.5416030000000 1.0
C      1  0.5005570000000  0.4864750000000  0.5816850000000 1.0
C      1  0.4229550000000  0.4487370000000  0.4996400000000 1.0
C      1  0.4905890000000  0.5148070000000  0.5843070000000 1.0
C      1  0.4547700000000  0.5188580000000  0.4295850000000 1.0
C      1  0.4104680000000  0.4736540000000  0.4928780000000 1.0
C      1  0.5503340000000  0.4354080000000  0.4807260000000 1.0
C      1  0.4878280000000  0.5012460000000  0.4645020000000 1.0
C      1  0.4677960000000  0.4831720000000  0.4776350000000 1.0
C      1  0.4250000000000  0.5317680000000  0.4619020000000 1.0
C      1  0.5501380000000  0.4701550000000  0.5674040000000 1.0
C      1  0.4881940000000  0.4571330000000  0.5183720000000 1.0
C      1  0.5273300000000  0.4377140000000  0.5451840000000 1.0
C      1  0.5321760000000  0.5043210000000  0.5457890000000 1.0
C      1  0.5474550000000  0.5155920000000  0.4977570000000 1.0
C      1  0.5022580000000  0.4194920000000  0.4838740000000 1.0
C      1  0.5148050000000  0.5809350000000  0.5191340000000 1.0
C      1  0.5074100000000  0.4882390000000  0.5522060000000 1.0
C      1  0.4889220000000  0.5364800000000  0.5360010000000 1.0
C      1  0.5134030000000  0.5728890000000  0.4470140000000 1.0
C      1  0.4254490000000  0.4476660000000  0.5277220000000 1.0
C      1  0.5588200000000  0.5636490000000  0.4966210000000 1.0
C      1  0.4915790000000  0.5223500000000  0.4878990000000 1.0
C      1  0.5564730000000  0.5486640000000  0.4439040000000 1.0
C      1  0.5603160000000  0.4949230000000  0.5546500000000 1.0
C      1  0.5271480000000  0.4722870000000  0.5046220000000 1.0
C      1  0.5337480000000  0.5147010000000  0.4694720000000 1.0
C      1  0.4633690000000  0.5131370000000  0.5883450000000 1.0
C      1  0.5722550000000  0.4978630000000  0.4517080000000 1.0
C      1  0.4913550000000  0.5663580000000  0.5264780000000 1.0
C      1  0.5312490000000  0.4550890000000  0.4321950000000 1.0
C      1  0.5165580000000  0.4909480000000  0.4614170000000 1.0
C      1  0.4390350000000  0.4954380000000  0.5474930000000 1.0
END
