TITL C-66693-9893-4 -0.0715460788025896 125000 -542.878043536005 0 0 80 (C1) n - 1
REM
REM in /rds/project/t2_vol4/rds-t2-cs072/BORA/CARBON/from-Arr/AIRSS/Generating-Clusters/GAP-ML-2020/Only-C1/SD-CG/HFTN-CG
REM
REM
REM
REM
REM
REM ./C.cell (11c1c37f851c82e70ff6c80c92926a4b)
REM AIRSS Version 0.9.1 bugfix July 2018 build 013d7b7c2542+ Fri, 06 Jul 2018 19:26:36 +0100
REM compiler GCC version 9.3.0
REM options -cpp -mtune=generic -march=x86-64 -g -O0
REM seed 1660267091 1834638670 1673719735 -1412188007 -4951518 377849127 -1241814897 -1689038146 1615352943 -1546268195 315933003 -350095628 -1461826938 1590099457 408848815 -539160028 1389773738 1174244645 816185539 1644146826 -1837731987 21451599 305633750 -2147229822 -683255277 -1066087863 1546133161 -1486277897 1836560711 1800134840 -2097578383 -1563122052 1012075264
REM
CELL 1.54180   50.00000   50.00000   50.00000   90.00000   90.00000   90.00000
LATT -1
SFAC C  
C      1  0.4767290000000  0.4300930000000  0.4766170000000 1.0
C      1  0.5422050000000  0.5261260000000  0.4466630000000 1.0
C      1  0.4528750000000  0.4458810000000  0.4719560000000 1.0
C      1  0.4785980000000  0.5565990000000  0.5218180000000 1.0
C      1  0.5475100000000  0.4801690000000  0.4240520000000 1.0
C      1  0.4768880000000  0.4904560000000  0.4217590000000 1.0
C      1  0.5564700000000  0.5033940000000  0.4351160000000 1.0
C      1  0.4961730000000  0.5675810000000  0.5450850000000 1.0
C      1  0.5492330000000  0.5207040000000  0.5535260000000 1.0
C      1  0.5567910000000  0.4776340000000  0.5597500000000 1.0
C      1  0.4494640000000  0.5595430000000  0.4839340000000 1.0
C      1  0.4917500000000  0.5459540000000  0.4472250000000 1.0
C      1  0.5002640000000  0.5337050000000  0.5105590000000 1.0
C      1  0.4926230000000  0.5720130000000  0.4559480000000 1.0
C      1  0.5127530000000  0.4765140000000  0.5415770000000 1.0
C      1  0.4457720000000  0.5436880000000  0.4594990000000 1.0
C      1  0.5012940000000  0.5491720000000  0.5684530000000 1.0
C      1  0.4920420000000  0.4222740000000  0.5003670000000 1.0
C      1  0.5743530000000  0.5030710000000  0.4602830000000 1.0
C      1  0.5283070000000  0.5437050000000  0.5562520000000 1.0
C      1  0.4686040000000  0.4717680000000  0.5147160000000 1.0
C      1  0.5008410000000  0.4368740000000  0.4629240000000 1.0
C      1  0.4837960000000  0.4106310000000  0.5244670000000 1.0
C      1  0.4294820000000  0.5421100000000  0.4955690000000 1.0
C      1  0.5284440000000  0.5026870000000  0.5325250000000 1.0
C      1  0.4437430000000  0.4626470000000  0.5462470000000 1.0
C      1  0.5487960000000  0.4351480000000  0.4977760000000 1.0
C      1  0.5381200000000  0.5700100000000  0.5167800000000 1.0
C      1  0.4787150000000  0.4655140000000  0.4333850000000 1.0
C      1  0.4596630000000  0.5077640000000  0.4335010000000 1.0
C      1  0.4695800000000  0.4528590000000  0.5562760000000 1.0
C      1  0.4276270000000  0.4814920000000  0.4928900000000 1.0
C      1  0.4904910000000  0.4725910000000  0.5613230000000 1.0
C      1  0.5432940000000  0.4672550000000  0.4606110000000 1.0
C      1  0.5475000000000  0.4603430000000  0.5147380000000 1.0
C      1  0.4324170000000  0.5319340000000  0.5208060000000 1.0
C      1  0.4928450000000  0.5071950000000  0.4978780000000 1.0
C      1  0.4251700000000  0.4984450000000  0.4692420000000 1.0
C      1  0.4667960000000  0.5104370000000  0.4892620000000 1.0
C      1  0.4959860000000  0.5791480000000  0.4820550000000 1.0
C      1  0.4264030000000  0.5262290000000  0.4721490000000 1.0
C      1  0.4652800000000  0.5345440000000  0.4419240000000 1.0
C      1  0.4613640000000  0.5292670000000  0.5562430000000 1.0
C      1  0.4972180000000  0.4786950000000  0.5141850000000 1.0
C      1  0.5572580000000  0.5478570000000  0.5150140000000 1.0
C      1  0.5418030000000  0.5020800000000  0.5037720000000 1.0
C      1  0.5072810000000  0.5031310000000  0.4722980000000 1.0
C      1  0.5614040000000  0.5267510000000  0.4685860000000 1.0
C      1  0.4525830000000  0.5036110000000  0.5639040000000 1.0
C      1  0.5210560000000  0.5425330000000  0.4881020000000 1.0
C      1  0.4426490000000  0.4895650000000  0.4491560000000 1.0
C      1  0.5287130000000  0.4858660000000  0.4804250000000 1.0
C      1  0.5402780000000  0.4637840000000  0.5426500000000 1.0
C      1  0.4693100000000  0.4312960000000  0.5350250000000 1.0
C      1  0.5693530000000  0.4319210000000  0.4803790000000 1.0
C      1  0.4358830000000  0.4540180000000  0.4936050000000 1.0
C      1  0.5684390000000  0.5288320000000  0.5334090000000 1.0
C      1  0.5606920000000  0.5004350000000  0.5719330000000 1.0
C      1  0.4346040000000  0.4890430000000  0.5483970000000 1.0
C      1  0.5190620000000  0.4652900000000  0.4986730000000 1.0
C      1  0.5030870000000  0.4522360000000  0.4396090000000 1.0
C      1  0.5215700000000  0.5709890000000  0.4927470000000 1.0
C      1  0.5146520000000  0.5292230000000  0.4595250000000 1.0
C      1  0.5668080000000  0.4855700000000  0.5061730000000 1.0
C      1  0.4798210000000  0.4970120000000  0.5697790000000 1.0
C      1  0.4484840000000  0.4487700000000  0.5204280000000 1.0
C      1  0.5476020000000  0.5304840000000  0.4942050000000 1.0
C      1  0.4518340000000  0.4929980000000  0.5056380000000 1.0
C      1  0.4553640000000  0.4640910000000  0.4505810000000 1.0
C      1  0.5292060000000  0.4637240000000  0.4362110000000 1.0
C      1  0.5107300000000  0.5247350000000  0.5363600000000 1.0
C      1  0.5787960000000  0.5050670000000  0.5225810000000 1.0
C      1  0.5256180000000  0.5690460000000  0.5415340000000 1.0
C      1  0.5166540000000  0.4360010000000  0.4890270000000 1.0
C      1  0.4718850000000  0.5709170000000  0.4968090000000 1.0
C      1  0.4546740000000  0.5436200000000  0.5340770000000 1.0
C      1  0.5783370000000  0.4819670000000  0.4789420000000 1.0
C      1  0.4304640000000  0.5026950000000  0.5233910000000 1.0
C      1  0.5697190000000  0.4570450000000  0.4684750000000 1.0
C      1  0.4900540000000  0.5239360000000  0.5606660000000 1.0
END
