TITL C-66583-1348-4 -0.220518259560671 125000 -603.063570134489 0 0 87 (C1) n - 1
REM
REM in /rds/project/t2_vol4/rds-t2-cs072/BORA/CARBON/from-Arr/AIRSS/Generating-Clusters/GAP-ML-2020/Only-C1/SD-CG/HFTN-CG
REM
REM
REM
REM
REM
REM ./C.cell (11c1c37f851c82e70ff6c80c92926a4b)
REM AIRSS Version 0.9.1 bugfix July 2018 build 013d7b7c2542+ Fri, 06 Jul 2018 19:26:36 +0100
REM compiler GCC version 9.3.0
REM options -cpp -mtune=generic -march=x86-64 -g -O0
REM seed 757654294 1891945772 1115421021 217674430 826320335 621872426 -37049865 -1874567106 1441341162 949545440 1258510306 -324825667 -1467885974 1790689335 1671153127 1958282422 -1907332392 90154844 -2113388550 -589511530 799784753 -1965282240 1123800147 333866937 -1656442675 953481273 1450751773 883737566 -1484169328 -1889988362 -606661047 392785216 -550140088
REM
CELL 1.54180   50.00000   50.00000   50.00000   90.00000   90.00000   90.00000
LATT -1
SFAC C  
C      1  0.4354000000000  0.5399320000000  0.5085340000000 1.0
C      1  0.4578020000000  0.5019910000000  0.4246400000000 1.0
C      1  0.4970060000000  0.5769520000000  0.5150210000000 1.0
C      1  0.5035340000000  0.4379940000000  0.5674750000000 1.0
C      1  0.4811830000000  0.5392970000000  0.5684370000000 1.0
C      1  0.5635910000000  0.4868730000000  0.4545400000000 1.0
C      1  0.5212110000000  0.4999890000000  0.5462450000000 1.0
C      1  0.5208790000000  0.5278690000000  0.4784150000000 1.0
C      1  0.5296970000000  0.5494820000000  0.5749870000000 1.0
C      1  0.4260100000000  0.4743160000000  0.4780620000000 1.0
C      1  0.5075350000000  0.5320370000000  0.5788540000000 1.0
C      1  0.4728240000000  0.4567180000000  0.4325860000000 1.0
C      1  0.5152550000000  0.5372410000000  0.4336590000000 1.0
C      1  0.4513410000000  0.4964810000000  0.5556930000000 1.0
C      1  0.4679560000000  0.5050960000000  0.4976590000000 1.0
C      1  0.4639070000000  0.4737320000000  0.5393400000000 1.0
C      1  0.5204330000000  0.4702520000000  0.4199670000000 1.0
C      1  0.5229270000000  0.5767130000000  0.4774930000000 1.0
C      1  0.4526740000000  0.4830770000000  0.5131870000000 1.0
C      1  0.4928430000000  0.4637180000000  0.5324060000000 1.0
C      1  0.5186580000000  0.5048150000000  0.5779580000000 1.0
C      1  0.4846870000000  0.4996380000000  0.4150330000000 1.0
C      1  0.4840370000000  0.5240410000000  0.5120540000000 1.0
C      1  0.5095960000000  0.5150890000000  0.4174120000000 1.0
C      1  0.4779670000000  0.4635660000000  0.4799540000000 1.0
C      1  0.4217670000000  0.5228130000000  0.4883490000000 1.0
C      1  0.5549620000000  0.5460990000000  0.5422420000000 1.0
C      1  0.4980520000000  0.4613770000000  0.5028580000000 1.0
C      1  0.5311910000000  0.4964790000000  0.4200220000000 1.0
C      1  0.5311360000000  0.4509220000000  0.5593420000000 1.0
C      1  0.4480930000000  0.5254140000000  0.4378640000000 1.0
C      1  0.5734310000000  0.5654100000000  0.4694670000000 1.0
C      1  0.5066680000000  0.4816560000000  0.5917800000000 1.0
C      1  0.5546940000000  0.4618470000000  0.5681010000000 1.0
C      1  0.5397710000000  0.5298260000000  0.4524050000000 1.0
C      1  0.4245820000000  0.4891990000000  0.5195430000000 1.0
C      1  0.5133070000000  0.4347070000000  0.5033980000000 1.0
C      1  0.4820240000000  0.4934610000000  0.4758020000000 1.0
C      1  0.5089080000000  0.5115740000000  0.5208720000000 1.0
C      1  0.5506060000000  0.5087630000000  0.5785850000000 1.0
C      1  0.5202400000000  0.4699710000000  0.5408370000000 1.0
C      1  0.5691500000000  0.4929290000000  0.4823860000000 1.0
C      1  0.4839470000000  0.4412540000000  0.4572570000000 1.0
C      1  0.5310610000000  0.4519440000000  0.4378920000000 1.0
C      1  0.4298270000000  0.4761240000000  0.4519820000000 1.0
C      1  0.4529670000000  0.4362440000000  0.5105590000000 1.0
C      1  0.5409200000000  0.4770960000000  0.5164620000000 1.0
C      1  0.5137920000000  0.4371540000000  0.4552150000000 1.0
C      1  0.4490580000000  0.5538990000000  0.4668520000000 1.0
C      1  0.4501130000000  0.4606300000000  0.4928740000000 1.0
C      1  0.5158770000000  0.4863800000000  0.5014060000000 1.0
C      1  0.4594640000000  0.4428290000000  0.5379040000000 1.0
C      1  0.5650180000000  0.5389660000000  0.4704040000000 1.0
C      1  0.5279580000000  0.4328390000000  0.4796720000000 1.0
C      1  0.4725950000000  0.4186150000000  0.4998390000000 1.0
C      1  0.5058600000000  0.5734220000000  0.5415990000000 1.0
C      1  0.4545540000000  0.5564690000000  0.4940540000000 1.0
C      1  0.4375370000000  0.5314820000000  0.5364870000000 1.0
C      1  0.4874490000000  0.4338530000000  0.5429720000000 1.0
C      1  0.5109930000000  0.5912310000000  0.4969140000000 1.0
C      1  0.5694420000000  0.5196130000000  0.4921230000000 1.0
C      1  0.5543240000000  0.5345620000000  0.5691610000000 1.0
C      1  0.4662760000000  0.5475610000000  0.4443810000000 1.0
C      1  0.5280530000000  0.5286940000000  0.5079480000000 1.0
C      1  0.5614590000000  0.4877510000000  0.5617020000000 1.0
C      1  0.4316450000000  0.5313940000000  0.4619880000000 1.0
C      1  0.5498100000000  0.5752770000000  0.4741250000000 1.0
C      1  0.5095870000000  0.4996930000000  0.4762330000000 1.0
C      1  0.5519640000000  0.4483990000000  0.4778920000000 1.0
C      1  0.5551870000000  0.5248300000000  0.5197120000000 1.0
C      1  0.4501810000000  0.4751990000000  0.4342260000000 1.0
C      1  0.4920150000000  0.4717630000000  0.4177580000000 1.0
C      1  0.4589650000000  0.5246900000000  0.5575280000000 1.0
C      1  0.4954800000000  0.4188360000000  0.5186980000000 1.0
C      1  0.5318800000000  0.5637780000000  0.5501140000000 1.0
C      1  0.4939920000000  0.5503800000000  0.4468970000000 1.0
C      1  0.5037910000000  0.5527520000000  0.4747840000000 1.0
C      1  0.4981980000000  0.4584250000000  0.5858080000000 1.0
C      1  0.5509100000000  0.4984160000000  0.5348100000000 1.0
C      1  0.5500880000000  0.5057390000000  0.4387700000000 1.0
C      1  0.5543580000000  0.4598410000000  0.4522240000000 1.0
C      1  0.4261960000000  0.5051910000000  0.5416740000000 1.0
C      1  0.4855260000000  0.5616700000000  0.5545660000000 1.0
C      1  0.4140690000000  0.4958630000000  0.4940440000000 1.0
C      1  0.4758330000000  0.4176210000000  0.4728280000000 1.0
C      1  0.5598720000000  0.4685560000000  0.4960550000000 1.0
C      1  0.4843700000000  0.5537250000000  0.5001460000000 1.0
END
