TITL C-66716-243-4 -0.163708949112913 125000 -186.261178711131 0 0 28 (C1) n - 1
REM
REM in /rds/project/t2_vol4/rds-t2-cs072/BORA/CARBON/from-Arr/AIRSS/Generating-Clusters/GAP-ML-2020/Only-C1/SD-CG/HFTN-CG
REM
REM
REM
REM
REM
REM ./C.cell (11c1c37f851c82e70ff6c80c92926a4b)
REM AIRSS Version 0.9.1 bugfix July 2018 build 013d7b7c2542+ Fri, 06 Jul 2018 19:26:36 +0100
REM compiler GCC version 9.3.0
REM options -cpp -mtune=generic -march=x86-64 -g -O0
REM seed 1202006583 2129867989 565270131 287045394 607604537 389681471 2103096014 228971213 -1350402422 -92519038 -1938658640 -1238298596 -1053882325 1417650463 1547254157 1587456218 247933888 1048122245 -2096941699 -146625322 79899291 1423891399 798100373 1174998440 -1319983874 -291005255 -288146754 -136663953 462498641 157053331 -166312333 -1021078342 -623226246
REM
CELL 1.54180   50.00000   50.00000   50.00000   90.00000   90.00000   90.00000
LATT -1
SFAC C  
C      1  0.4680350000000  0.4864070000000  0.5399130000000 1.0
C      1  0.4954790000000  0.5430850000000  0.4686320000000 1.0
C      1  0.5389090000000  0.5472490000000  0.5402150000000 1.0
C      1  0.4880490000000  0.4586090000000  0.5038910000000 1.0
C      1  0.5394520000000  0.5246500000000  0.4668300000000 1.0
C      1  0.5299900000000  0.4772490000000  0.4780750000000 1.0
C      1  0.5067330000000  0.4738170000000  0.4613200000000 1.0
C      1  0.4582950000000  0.4678130000000  0.4683670000000 1.0
C      1  0.4749290000000  0.5275090000000  0.5144930000000 1.0
C      1  0.5161130000000  0.5316340000000  0.4534280000000 1.0
C      1  0.5359680000000  0.4571930000000  0.4957690000000 1.0
C      1  0.5400240000000  0.5037940000000  0.4844140000000 1.0
C      1  0.4557070000000  0.5060850000000  0.5209050000000 1.0
C      1  0.5078230000000  0.5147940000000  0.4290840000000 1.0
C      1  0.5220870000000  0.4891480000000  0.5280950000000 1.0
C      1  0.5047100000000  0.4925680000000  0.4416930000000 1.0
C      1  0.5409520000000  0.5069380000000  0.5140840000000 1.0
C      1  0.4652170000000  0.4659620000000  0.5195510000000 1.0
C      1  0.4465570000000  0.4843910000000  0.5037570000000 1.0
C      1  0.5033080000000  0.5018540000000  0.5451190000000 1.0
C      1  0.5126160000000  0.5493730000000  0.5424300000000 1.0
C      1  0.4371380000000  0.4787350000000  0.4786570000000 1.0
C      1  0.5516690000000  0.5283990000000  0.5272290000000 1.0
C      1  0.5155520000000  0.4648800000000  0.5129030000000 1.0
C      1  0.4840770000000  0.4612710000000  0.4748770000000 1.0
C      1  0.4945890000000  0.5300950000000  0.5362880000000 1.0
C      1  0.4843630000000  0.4885730000000  0.5609240000000 1.0
C      1  0.4816590000000  0.5379250000000  0.4890570000000 1.0
END
