TITL C-66701-487-4 199.755555796166 125000 -1068.76493757068 0 0 153 (C1) n - 1
REM
REM in /rds/project/t2_vol4/rds-t2-cs072/BORA/CARBON/from-Arr/AIRSS/Generating-Clusters/GAP-ML-2020/Only-C1/SD-CG/HFTN-CG
REM
REM
REM
REM
REM
REM ./C.cell (11c1c37f851c82e70ff6c80c92926a4b)
REM AIRSS Version 0.9.1 bugfix July 2018 build 013d7b7c2542+ Fri, 06 Jul 2018 19:26:36 +0100
REM compiler GCC version 9.3.0
REM options -cpp -mtune=generic -march=x86-64 -g -O0
REM seed -1602574139 -150277553 -1135017431 805617469 1652085496 -684347918 842909668 -964685375 -976341638 1935807455 1284268709 1836350676 -1959421622 1576746706 -316881749 891802566 -1417766456 1713341319 921854945 1770161562 -1909967103 565047255 -593045639 2078334462 1482570585 1101808376 -91580248 -91310394 134818573 -981873912 1676932787 -67002871 427997470
REM
CELL 1.54180   50.00000   50.00000   50.00000   90.00000   90.00000   90.00000
LATT -1
SFAC C  
C      1  0.4455440000000  0.5293660000000  0.4152970000000 1.0
C      1  0.5185360000000  0.5456080000000  0.4924220000000 1.0
C      1  0.5329430000000  0.4467990000000  0.5276890000000 1.0
C      1  0.4424680000000  0.4668960000000  0.4943700000000 1.0
C      1  0.5945070000000  0.4488720000000  0.4857160000000 1.0
C      1  0.5660930000000  0.5223880000000  0.4377600000000 1.0
C      1  0.5409880000000  0.5962900000000  0.5062730000000 1.0
C      1  0.4996000000000  0.4555800000000  0.4947590000000 1.0
C      1  0.4768840000000  0.4491420000000  0.4734030000000 1.0
C      1  0.4932520000000  0.5908380000000  0.4407610000000 1.0
C      1  0.4511460000000  0.5725100000000  0.4383230000000 1.0
C      1  0.4085630000000  0.4403150000000  0.4869770000000 1.0
C      1  0.5078420000000  0.5105200000000  0.6005260000000 1.0
C      1  0.5436160000000  0.5319480000000  0.5785470000000 1.0
C      1  0.4519690000000  0.5659000000000  0.5819700000000 1.0
C      1  0.4755600000000  0.5307250000000  0.5027540000000 1.0
C      1  0.4978920000000  0.4830580000000  0.4441220000000 1.0
C      1  0.5446590000000  0.5440230000000  0.4781750000000 1.0
C      1  0.5268760000000  0.4907970000000  0.5931680000000 1.0
C      1  0.5531830000000  0.4891810000000  0.5484210000000 1.0
C      1  0.5689200000000  0.4963440000000  0.4262500000000 1.0
C      1  0.4751390000000  0.5761430000000  0.4238400000000 1.0
C      1  0.4540750000000  0.5855870000000  0.4638380000000 1.0
C      1  0.5312740000000  0.4089000000000  0.4897100000000 1.0
C      1  0.4486890000000  0.5293440000000  0.4993590000000 1.0
C      1  0.5603520000000  0.5702110000000  0.4721890000000 1.0
C      1  0.5433080000000  0.4615400000000  0.5050920000000 1.0
C      1  0.5476620000000  0.4221730000000  0.5370590000000 1.0
C      1  0.5041410000000  0.5868650000000  0.5380360000000 1.0
C      1  0.4876250000000  0.5553670000000  0.4093750000000 1.0
C      1  0.4394790000000  0.4375460000000  0.5303030000000 1.0
C      1  0.4714300000000  0.5119820000000  0.5419650000000 1.0
C      1  0.5213220000000  0.4629510000000  0.5930600000000 1.0
C      1  0.4150490000000  0.4453580000000  0.4595810000000 1.0
C      1  0.5149910000000  0.5559710000000  0.4218260000000 1.0
C      1  0.4786310000000  0.4065100000000  0.4879790000000 1.0
C      1  0.5774890000000  0.5690890000000  0.5162360000000 1.0
C      1  0.4902160000000  0.4272930000000  0.5780410000000 1.0
C      1  0.5689750000000  0.5023270000000  0.4972940000000 1.0
C      1  0.4921380000000  0.5287990000000  0.4556880000000 1.0
C      1  0.4804400000000  0.5037430000000  0.4516940000000 1.0
C      1  0.5552000000000  0.4509150000000  0.4274960000000 1.0
C      1  0.4802660000000  0.5967920000000  0.4655640000000 1.0
C      1  0.4928130000000  0.5400010000000  0.4812500000000 1.0
C      1  0.5089120000000  0.4214770000000  0.4469210000000 1.0
C      1  0.5300370000000  0.4352040000000  0.4276040000000 1.0
C      1  0.5178270000000  0.5370810000000  0.5916480000000 1.0
C      1  0.4511440000000  0.4767580000000  0.5669150000000 1.0
C      1  0.4502740000000  0.5083320000000  0.5621550000000 1.0
C      1  0.4725000000000  0.4281940000000  0.5580270000000 1.0
C      1  0.4357660000000  0.4376470000000  0.5001770000000 1.0
C      1  0.5238420000000  0.5018700000000  0.5015350000000 1.0
C      1  0.5340540000000  0.4212650000000  0.5631760000000 1.0
C      1  0.4277670000000  0.4896850000000  0.4394400000000 1.0
C      1  0.5063760000000  0.5293840000000  0.5382070000000 1.0
C      1  0.5897810000000  0.5456360000000  0.5011390000000 1.0
C      1  0.5884610000000  0.5279930000000  0.4558710000000 1.0
C      1  0.5235740000000  0.5985630000000  0.4841740000000 1.0
C      1  0.5028790000000  0.4398730000000  0.5209320000000 1.0
C      1  0.5400770000000  0.5263330000000  0.4535830000000 1.0
C      1  0.4189780000000  0.5582270000000  0.4821870000000 1.0
C      1  0.4937670000000  0.4536260000000  0.5911520000000 1.0
C      1  0.4735230000000  0.4740340000000  0.5894110000000 1.0
C      1  0.4633280000000  0.4600980000000  0.4142550000000 1.0
C      1  0.5365900000000  0.5858260000000  0.4606000000000 1.0
C      1  0.5228140000000  0.5290710000000  0.5154400000000 1.0
C      1  0.4585020000000  0.4717160000000  0.4729310000000 1.0
C      1  0.4357440000000  0.5168570000000  0.4757330000000 1.0
C      1  0.3943580000000  0.4629270000000  0.4976510000000 1.0
C      1  0.4412170000000  0.5752880000000  0.5583010000000 1.0
C      1  0.5682020000000  0.4483840000000  0.5695170000000 1.0
C      1  0.5479130000000  0.4891270000000  0.5138290000000 1.0
C      1  0.4664940000000  0.5847060000000  0.5661590000000 1.0
C      1  0.5949410000000  0.5132660000000  0.5387640000000 1.0
C      1  0.4907150000000  0.4596200000000  0.4255880000000 1.0
C      1  0.4391570000000  0.4315760000000  0.4529850000000 1.0
C      1  0.4566390000000  0.4634620000000  0.5386460000000 1.0
C      1  0.5196760000000  0.5807100000000  0.4383510000000 1.0
C      1  0.4832840000000  0.5912210000000  0.5150920000000 1.0
C      1  0.4234220000000  0.5144360000000  0.5450160000000 1.0
C      1  0.5522410000000  0.4774790000000  0.4130990000000 1.0
C      1  0.4398060000000  0.5784700000000  0.4871880000000 1.0
C      1  0.4524230000000  0.4965030000000  0.4594660000000 1.0
C      1  0.5065530000000  0.4947810000000  0.3908130000000 1.0
C      1  0.5166470000000  0.5331850000000  0.4384090000000 1.0
C      1  0.4108720000000  0.5086150000000  0.4931770000000 1.0
C      1  0.5210320000000  0.4773020000000  0.4595520000000 1.0
C      1  0.4367420000000  0.5017790000000  0.4152180000000 1.0
C      1  0.4196990000000  0.4956290000000  0.5205680000000 1.0
C      1  0.4717300000000  0.5006770000000  0.5131440000000 1.0
C      1  0.5318540000000  0.4043750000000  0.5177170000000 1.0
C      1  0.4575060000000  0.4860160000000  0.4033610000000 1.0
C      1  0.5748860000000  0.4375290000000  0.4702560000000 1.0
C      1  0.5263590000000  0.4774940000000  0.3994020000000 1.0
C      1  0.4565520000000  0.4378140000000  0.4314810000000 1.0
C      1  0.4937860000000  0.5790190000000  0.5642960000000 1.0
C      1  0.4263800000000  0.5405710000000  0.4604900000000 1.0
C      1  0.5997850000000  0.4976610000000  0.4950500000000 1.0
C      1  0.5078170000000  0.4133420000000  0.5594980000000 1.0
C      1  0.4101700000000  0.4985240000000  0.5647340000000 1.0
C      1  0.4854950000000  0.4545790000000  0.5401410000000 1.0
C      1  0.4974790000000  0.5563850000000  0.5846290000000 1.0
C      1  0.5334800000000  0.5002810000000  0.4701430000000 1.0
C      1  0.6042330000000  0.5209910000000  0.5126750000000 1.0
C      1  0.5848400000000  0.5328300000000  0.5538470000000 1.0
C      1  0.4702780000000  0.5464690000000  0.5900490000000 1.0
C      1  0.4159160000000  0.4537260000000  0.5428790000000 1.0
C      1  0.4089090000000  0.4744490000000  0.4542890000000 1.0
C      1  0.4591570000000  0.4156890000000  0.5366600000000 1.0
C      1  0.5397350000000  0.4481400000000  0.5750100000000 1.0
C      1  0.4720950000000  0.5317240000000  0.4031880000000 1.0
C      1  0.4211110000000  0.4725250000000  0.5653910000000 1.0
C      1  0.4371890000000  0.5480550000000  0.4354540000000 1.0
C      1  0.5895140000000  0.4623280000000  0.5313240000000 1.0
C      1  0.5067350000000  0.4073560000000  0.4738100000000 1.0
C      1  0.5045210000000  0.4077960000000  0.5297980000000 1.0
C      1  0.5635350000000  0.5311210000000  0.4996360000000 1.0
C      1  0.5326940000000  0.5856950000000  0.5311920000000 1.0
C      1  0.4993610000000  0.4845270000000  0.5096050000000 1.0
C      1  0.4563660000000  0.4256460000000  0.4797570000000 1.0
C      1  0.4984170000000  0.5044750000000  0.5511610000000 1.0
C      1  0.4806420000000  0.5006060000000  0.5982950000000 1.0
C      1  0.4780360000000  0.4039060000000  0.5172080000000 1.0
C      1  0.4809070000000  0.5039810000000  0.3960930000000 1.0
C      1  0.5456120000000  0.5036230000000  0.5753180000000 1.0
C      1  0.5330580000000  0.4669480000000  0.5491840000000 1.0
C      1  0.6003070000000  0.4674230000000  0.5040740000000 1.0
C      1  0.4032590000000  0.4700720000000  0.5233150000000 1.0
C      1  0.5608230000000  0.4905400000000  0.4728310000000 1.0
C      1  0.5874360000000  0.5510140000000  0.4718530000000 1.0
C      1  0.5488840000000  0.5371450000000  0.5236840000000 1.0
C      1  0.4950860000000  0.5990330000000  0.4896080000000 1.0
C      1  0.3979960000000  0.4852300000000  0.4795060000000 1.0
C      1  0.4378980000000  0.5666930000000  0.5319770000000 1.0
C      1  0.4266160000000  0.5398480000000  0.5240140000000 1.0
C      1  0.5759770000000  0.4538260000000  0.4464820000000 1.0
C      1  0.5651550000000  0.5844150000000  0.4970020000000 1.0
C      1  0.4624240000000  0.5195220000000  0.5880090000000 1.0
C      1  0.5263310000000  0.4562220000000  0.4806950000000 1.0
C      1  0.4079510000000  0.5395460000000  0.5013940000000 1.0
C      1  0.5613530000000  0.5467020000000  0.5603110000000 1.0
C      1  0.4482240000000  0.4830660000000  0.5168060000000 1.0
C      1  0.4852130000000  0.4374760000000  0.4446070000000 1.0
C      1  0.5751180000000  0.4400810000000  0.5446360000000 1.0
C      1  0.5048780000000  0.4785090000000  0.5407390000000 1.0
C      1  0.5542900000000  0.5640810000000  0.5362990000000 1.0
C      1  0.4537670000000  0.5816700000000  0.5126860000000 1.0
C      1  0.5829550000000  0.4869000000000  0.5447030000000 1.0
C      1  0.5461580000000  0.4315240000000  0.4782400000000 1.0
C      1  0.5146490000000  0.4526250000000  0.4107380000000 1.0
C      1  0.4806730000000  0.5386210000000  0.5309480000000 1.0
C      1  0.5985800000000  0.5025330000000  0.4646540000000 1.0
C      1  0.5815650000000  0.4830810000000  0.4492610000000 1.0
END
