TITL C-66583-1348-1 0.138888960647945 125000 -791.027973681598 0 0 114 (C1) n - 1
REM
REM in /rds/project/t2_vol4/rds-t2-cs072/BORA/CARBON/from-Arr/AIRSS/Generating-Clusters/GAP-ML-2020/Only-C1/SD-CG/HFTN-CG
REM
REM
REM
REM
REM
REM ./C.cell (11c1c37f851c82e70ff6c80c92926a4b)
REM AIRSS Version 0.9.1 bugfix July 2018 build 013d7b7c2542+ Fri, 06 Jul 2018 19:26:36 +0100
REM compiler GCC version 9.3.0
REM options -cpp -mtune=generic -march=x86-64 -g -O0
REM seed -1216331547 1843539571 738477688 -368569004 1301315738 -2143102449 1472419462 1034853879 -2110879932 -183179251 -699070198 -1016752799 -1053085163 894242022 1590500536 1786731649 -1594274866 -1769790528 1738064357 -517669980 1683014145 -1149192243 1908108533 1840951563 1689328882 -2081117367 -122625751 -1074848794 -780743968 181007559 1952805150 1092428589 -1273392659
REM
CELL 1.54180   50.00000   50.00000   50.00000   90.00000   90.00000   90.00000
LATT -1
SFAC C  
C      1  0.5417830000000  0.5810760000000  0.4551160000000 1.0
C      1  0.5299740000000  0.5105170000000  0.4710190000000 1.0
C      1  0.5794920000000  0.5325150000000  0.5348630000000 1.0
C      1  0.4188500000000  0.4462340000000  0.4969560000000 1.0
C      1  0.5074750000000  0.4601520000000  0.4213910000000 1.0
C      1  0.4169690000000  0.5151860000000  0.4599080000000 1.0
C      1  0.5656360000000  0.4435110000000  0.4823580000000 1.0
C      1  0.4673180000000  0.3910310000000  0.4864880000000 1.0
C      1  0.4746180000000  0.5458680000000  0.5744830000000 1.0
C      1  0.5437280000000  0.4255690000000  0.4775170000000 1.0
C      1  0.5216670000000  0.5365540000000  0.4663680000000 1.0
C      1  0.5051270000000  0.4287220000000  0.5520770000000 1.0
C      1  0.5024320000000  0.4727810000000  0.5616220000000 1.0
C      1  0.5169640000000  0.4672630000000  0.5360520000000 1.0
C      1  0.4655540000000  0.5256460000000  0.4780920000000 1.0
C      1  0.5144360000000  0.5946750000000  0.5098650000000 1.0
C      1  0.4669990000000  0.4777950000000  0.4884680000000 1.0
C      1  0.4533500000000  0.5285040000000  0.5762170000000 1.0
C      1  0.5410500000000  0.4947490000000  0.4225530000000 1.0
C      1  0.4230960000000  0.4496720000000  0.5262110000000 1.0
C      1  0.4796710000000  0.4524180000000  0.4988830000000 1.0
C      1  0.5297230000000  0.5401040000000  0.5142920000000 1.0
C      1  0.4357270000000  0.4284360000000  0.4823220000000 1.0
C      1  0.4615610000000  0.4781290000000  0.4244740000000 1.0
C      1  0.4869860000000  0.4861370000000  0.4695330000000 1.0
C      1  0.4976870000000  0.5079010000000  0.5086720000000 1.0
C      1  0.5025830000000  0.5270100000000  0.4455190000000 1.0
C      1  0.5380800000000  0.5576430000000  0.5377110000000 1.0
C      1  0.4884970000000  0.4992350000000  0.5561380000000 1.0
C      1  0.4676520000000  0.5397830000000  0.5237160000000 1.0
C      1  0.5116690000000  0.5477310000000  0.4923230000000 1.0
C      1  0.5171010000000  0.5524340000000  0.5844800000000 1.0
C      1  0.4924510000000  0.4168790000000  0.5299960000000 1.0
C      1  0.5407380000000  0.5394300000000  0.4211510000000 1.0
C      1  0.5407370000000  0.5541440000000  0.4471740000000 1.0
C      1  0.4735400000000  0.5655030000000  0.4515780000000 1.0
C      1  0.5194180000000  0.5804710000000  0.5344300000000 1.0
C      1  0.5412900000000  0.5134820000000  0.5735550000000 1.0
C      1  0.5795440000000  0.5097080000000  0.4821880000000 1.0
C      1  0.5047550000000  0.4380160000000  0.4393660000000 1.0
C      1  0.5637800000000  0.4504180000000  0.5099890000000 1.0
C      1  0.4143430000000  0.4625770000000  0.4722910000000 1.0
C      1  0.5469430000000  0.4647940000000  0.5665410000000 1.0
C      1  0.4773990000000  0.4965050000000  0.5282120000000 1.0
C      1  0.4948160000000  0.5110680000000  0.5952680000000 1.0
C      1  0.5314670000000  0.4329450000000  0.4519980000000 1.0
C      1  0.5489520000000  0.4527670000000  0.4418780000000 1.0
C      1  0.5475210000000  0.4316800000000  0.5241570000000 1.0
C      1  0.5261300000000  0.4699920000000  0.4918390000000 1.0
C      1  0.4533980000000  0.5129000000000  0.5235860000000 1.0
C      1  0.4315660000000  0.5602160000000  0.5443690000000 1.0
C      1  0.4686320000000  0.5027230000000  0.5783980000000 1.0
C      1  0.5782340000000  0.5388570000000  0.4771150000000 1.0
C      1  0.4959030000000  0.5073240000000  0.4080980000000 1.0
C      1  0.5203080000000  0.5149250000000  0.5253730000000 1.0
C      1  0.5306920000000  0.5396430000000  0.5631830000000 1.0
C      1  0.4778710000000  0.4367050000000  0.4479460000000 1.0
C      1  0.4729910000000  0.5829520000000  0.5222720000000 1.0
C      1  0.5743750000000  0.4907820000000  0.4598390000000 1.0
C      1  0.5526360000000  0.4777000000000  0.5091250000000 1.0
C      1  0.5745590000000  0.4972490000000  0.5072760000000 1.0
C      1  0.5221260000000  0.5001650000000  0.5905370000000 1.0
C      1  0.4573300000000  0.5087220000000  0.4312940000000 1.0
C      1  0.4343340000000  0.4459970000000  0.4575670000000 1.0
C      1  0.5065600000000  0.4598710000000  0.5092570000000 1.0
C      1  0.4556430000000  0.4535410000000  0.4392070000000 1.0
C      1  0.5319170000000  0.5980680000000  0.4892120000000 1.0
C      1  0.4792110000000  0.5097870000000  0.4558110000000 1.0
C      1  0.5707990000000  0.5454160000000  0.4510640000000 1.0
C      1  0.4272390000000  0.4872030000000  0.5574380000000 1.0
C      1  0.5364880000000  0.4893720000000  0.5312950000000 1.0
C      1  0.4872560000000  0.5907610000000  0.4988210000000 1.0
C      1  0.5760150000000  0.5059070000000  0.5354550000000 1.0
C      1  0.5076450000000  0.4072650000000  0.5079070000000 1.0
C      1  0.5679990000000  0.4628010000000  0.4610870000000 1.0
C      1  0.4903890000000  0.4057170000000  0.4846690000000 1.0
C      1  0.5116580000000  0.4925160000000  0.4831040000000 1.0
C      1  0.4876280000000  0.4478800000000  0.5641030000000 1.0
C      1  0.4950950000000  0.5388520000000  0.5927640000000 1.0
C      1  0.5065340000000  0.5239190000000  0.5494910000000 1.0
C      1  0.4539030000000  0.5459630000000  0.4591940000000 1.0
C      1  0.4739950000000  0.5257290000000  0.4141680000000 1.0
C      1  0.4313400000000  0.5121500000000  0.5442300000000 1.0
C      1  0.5541700000000  0.4933600000000  0.5549010000000 1.0
C      1  0.4856800000000  0.4327920000000  0.4744960000000 1.0
C      1  0.4933710000000  0.5736230000000  0.5411280000000 1.0
C      1  0.4200660000000  0.5080500000000  0.4867560000000 1.0
C      1  0.4601180000000  0.4533920000000  0.5610890000000 1.0
C      1  0.4069690000000  0.4897950000000  0.4697290000000 1.0
C      1  0.5247680000000  0.4737050000000  0.5815800000000 1.0
C      1  0.5655070000000  0.5022100000000  0.4348550000000 1.0
C      1  0.5342660000000  0.4683660000000  0.4237070000000 1.0
C      1  0.5674690000000  0.5293200000000  0.4284980000000 1.0
C      1  0.5651210000000  0.5542190000000  0.5241690000000 1.0
C      1  0.4880570000000  0.4796470000000  0.4132150000000 1.0
C      1  0.5210160000000  0.5167890000000  0.4206570000000 1.0
C      1  0.4847880000000  0.5470780000000  0.4320870000000 1.0
C      1  0.4367110000000  0.5269680000000  0.4441240000000 1.0
C      1  0.5554570000000  0.5826630000000  0.4821610000000 1.0
C      1  0.5166600000000  0.5928380000000  0.4645220000000 1.0
C      1  0.4319050000000  0.5361110000000  0.5585320000000 1.0
C      1  0.4480620000000  0.4412930000000  0.5378730000000 1.0
C      1  0.4856210000000  0.5338340000000  0.4990830000000 1.0
C      1  0.5332810000000  0.4431360000000  0.5468430000000 1.0
C      1  0.4509170000000  0.4788610000000  0.5721940000000 1.0
C      1  0.4133400000000  0.4690300000000  0.5427850000000 1.0
C      1  0.4530290000000  0.4116340000000  0.4979300000000 1.0
C      1  0.4663630000000  0.4291380000000  0.5194660000000 1.0
C      1  0.4889550000000  0.5848480000000  0.4684010000000 1.0
C      1  0.5340730000000  0.4159750000000  0.5036460000000 1.0
C      1  0.4503210000000  0.5653690000000  0.5263080000000 1.0
C      1  0.4859410000000  0.5454950000000  0.5472330000000 1.0
C      1  0.4488770000000  0.5047290000000  0.4952460000000 1.0
C      1  0.5695740000000  0.5607900000000  0.4952280000000 1.0
END
