TITL C-66600-1450-6 0.0301182034856488 125000 -634.131462157796 0 0 92 (C1) n - 1
REM
REM in /rds/project/t2_vol4/rds-t2-cs072/BORA/CARBON/from-Arr/AIRSS/Generating-Clusters/GAP-ML-2020/Only-C1/SD-CG/HFTN-CG
REM
REM
REM
REM
REM
REM ./C.cell (11c1c37f851c82e70ff6c80c92926a4b)
REM AIRSS Version 0.9.1 bugfix July 2018 build 013d7b7c2542+ Fri, 06 Jul 2018 19:26:36 +0100
REM compiler GCC version 9.3.0
REM options -cpp -mtune=generic -march=x86-64 -g -O0
REM seed 1892780331 862563061 1944174273 -476563593 1578919819 995416756 -1143021766 2038406403 -1340076233 -936097791 1689004393 -239158904 1961117297 -827237362 2099668019 1583664629 -1677040511 1285655067 919485395 1935830060 -1703136561 -1231734820 1019277900 1123331573 313083269 2062809221 1132759210 -49442500 2089450588 1934299482 -1708723511 -227521095 273435349
REM
CELL 1.54180   50.00000   50.00000   50.00000   90.00000   90.00000   90.00000
LATT -1
SFAC C  
C      1  0.4605410000000  0.5807970000000  0.5214190000000 1.0
C      1  0.5816860000000  0.5142590000000  0.5154250000000 1.0
C      1  0.5430620000000  0.4783820000000  0.5484280000000 1.0
C      1  0.5432220000000  0.4558500000000  0.4504880000000 1.0
C      1  0.5231620000000  0.5379980000000  0.4585340000000 1.0
C      1  0.5497920000000  0.5397760000000  0.4715960000000 1.0
C      1  0.5462220000000  0.4404850000000  0.5591910000000 1.0
C      1  0.5603990000000  0.4994650000000  0.4477200000000 1.0
C      1  0.4570740000000  0.4673060000000  0.5444080000000 1.0
C      1  0.5232530000000  0.5334190000000  0.5804610000000 1.0
C      1  0.4462140000000  0.5021570000000  0.5033990000000 1.0
C      1  0.4783830000000  0.5315570000000  0.4847810000000 1.0
C      1  0.4581410000000  0.5680440000000  0.4558760000000 1.0
C      1  0.5038640000000  0.4164030000000  0.5239220000000 1.0
C      1  0.5349130000000  0.4989800000000  0.5084950000000 1.0
C      1  0.4294050000000  0.5147920000000  0.5417890000000 1.0
C      1  0.4306410000000  0.4475190000000  0.4638870000000 1.0
C      1  0.4880340000000  0.5914730000000  0.5153900000000 1.0
C      1  0.4811240000000  0.4721460000000  0.5618420000000 1.0
C      1  0.5145260000000  0.5075990000000  0.4610630000000 1.0
C      1  0.4929790000000  0.5169920000000  0.5053600000000 1.0
C      1  0.5644550000000  0.4732470000000  0.4582900000000 1.0
C      1  0.5682350000000  0.5189150000000  0.4668660000000 1.0
C      1  0.5114840000000  0.5792190000000  0.5231860000000 1.0
C      1  0.4215850000000  0.5269650000000  0.4731010000000 1.0
C      1  0.4889180000000  0.5046690000000  0.4450700000000 1.0
C      1  0.5283220000000  0.4717030000000  0.4322350000000 1.0
C      1  0.5877530000000  0.4940770000000  0.5326770000000 1.0
C      1  0.4540170000000  0.5467550000000  0.4371330000000 1.0
C      1  0.4493330000000  0.4927580000000  0.5312210000000 1.0
C      1  0.4513330000000  0.5908830000000  0.4958060000000 1.0
C      1  0.5628400000000  0.4645460000000  0.5624210000000 1.0
C      1  0.5026290000000  0.4602510000000  0.4306000000000 1.0
C      1  0.5119390000000  0.4996450000000  0.4894860000000 1.0
C      1  0.4736880000000  0.4238590000000  0.4849160000000 1.0
C      1  0.4445760000000  0.4598030000000  0.4847540000000 1.0
C      1  0.5540000000000  0.4290780000000  0.5333890000000 1.0
C      1  0.4837700000000  0.5011130000000  0.5753050000000 1.0
C      1  0.5111930000000  0.5099640000000  0.5779240000000 1.0
C      1  0.5227700000000  0.5291920000000  0.4286590000000 1.0
C      1  0.4946500000000  0.5259540000000  0.4237150000000 1.0
C      1  0.5345380000000  0.5007350000000  0.4361380000000 1.0
C      1  0.4759110000000  0.5218220000000  0.5557060000000 1.0
C      1  0.4322610000000  0.5488750000000  0.4871590000000 1.0
C      1  0.5759440000000  0.4760880000000  0.4836070000000 1.0
C      1  0.4953200000000  0.4451880000000  0.5634040000000 1.0
C      1  0.5395430000000  0.4725800000000  0.5191880000000 1.0
C      1  0.4848770000000  0.4296710000000  0.5408400000000 1.0
C      1  0.4614940000000  0.5517190000000  0.5290570000000 1.0
C      1  0.4103710000000  0.5175460000000  0.5223560000000 1.0
C      1  0.4820940000000  0.4791230000000  0.4312020000000 1.0
C      1  0.4635190000000  0.4865740000000  0.4847340000000 1.0
C      1  0.5247580000000  0.4205560000000  0.4878910000000 1.0
C      1  0.4545820000000  0.4723030000000  0.4328860000000 1.0
C      1  0.4550860000000  0.5356940000000  0.5031190000000 1.0
C      1  0.5760120000000  0.4457360000000  0.5239690000000 1.0
C      1  0.5296970000000  0.5168990000000  0.5325680000000 1.0
C      1  0.4738220000000  0.5419910000000  0.4185520000000 1.0
C      1  0.4753220000000  0.4317330000000  0.4569480000000 1.0
C      1  0.5832680000000  0.4680410000000  0.5419210000000 1.0
C      1  0.4679950000000  0.5105060000000  0.4646730000000 1.0
C      1  0.5207000000000  0.4380280000000  0.5687890000000 1.0
C      1  0.4844080000000  0.5762790000000  0.4678200000000 1.0
C      1  0.4982400000000  0.4836750000000  0.5394320000000 1.0
C      1  0.4943710000000  0.4771370000000  0.4923460000000 1.0
C      1  0.5489300000000  0.5371440000000  0.5423230000000 1.0
C      1  0.5262430000000  0.4342680000000  0.4620680000000 1.0
C      1  0.5088120000000  0.4683900000000  0.5166750000000 1.0
C      1  0.5215260000000  0.4967690000000  0.5528610000000 1.0
C      1  0.4176750000000  0.5097390000000  0.4966210000000 1.0
C      1  0.4786760000000  0.5045140000000  0.5307000000000 1.0
C      1  0.4486970000000  0.5343270000000  0.5499350000000 1.0
C      1  0.4899000000000  0.5460460000000  0.5428150000000 1.0
C      1  0.5106730000000  0.5663990000000  0.5496110000000 1.0
C      1  0.5484680000000  0.5498460000000  0.4977470000000 1.0
C      1  0.4565160000000  0.4398060000000  0.5018640000000 1.0
C      1  0.5647790000000  0.5388150000000  0.5195530000000 1.0
C      1  0.4413420000000  0.5194050000000  0.4507370000000 1.0
C      1  0.5325740000000  0.4204330000000  0.5168020000000 1.0
C      1  0.4619970000000  0.4432110000000  0.5296590000000 1.0
C      1  0.5021070000000  0.5533490000000  0.4763150000000 1.0
C      1  0.4791730000000  0.5959870000000  0.4879290000000 1.0
C      1  0.4388560000000  0.4948330000000  0.4358000000000 1.0
C      1  0.4521000000000  0.4470300000000  0.4470590000000 1.0
C      1  0.4973300000000  0.4144130000000  0.4959710000000 1.0
C      1  0.5641100000000  0.4599020000000  0.5036350000000 1.0
C      1  0.5198170000000  0.5574690000000  0.5033940000000 1.0
C      1  0.4391460000000  0.5741270000000  0.4769120000000 1.0
C      1  0.5011550000000  0.4370500000000  0.4474150000000 1.0
C      1  0.5085770000000  0.5347500000000  0.5218400000000 1.0
C      1  0.5322920000000  0.5509970000000  0.5609760000000 1.0
C      1  0.5802680000000  0.5044880000000  0.4882510000000 1.0
END
