TITL C-66157-5959-3 133.924394835572 125000 -907.7125561421 0 0 131 (C1) n - 1
REM
REM in /rds/project/t2_vol4/rds-t2-cs072/BORA/CARBON/from-Arr/AIRSS/Generating-Clusters/GAP-ML-2020/Only-C1/SD-CG/HFTN-CG
REM
REM
REM
REM
REM
REM ./C.cell (11c1c37f851c82e70ff6c80c92926a4b)
REM AIRSS Version 0.9.1 bugfix July 2018 build 013d7b7c2542+ Fri, 06 Jul 2018 19:26:36 +0100
REM compiler GCC version 9.3.0
REM options -cpp -mtune=generic -march=x86-64 -g -O0
REM seed 608872067 316204934 -1997611163 1981130256 1366131317 -897241765 -244296751 -1606174105 1213434305 1278255634 -1787536899 1891205670 2047514352 807415570 -1054362098 -1525346584 -1133428897 -1044901720 649354975 900162093 -1210953950 1580346105 -1939389839 159667865 -1478193549 1257964804 323423362 1030154209 185322625 296916135 -1238540339 -1398824412 -345111845
REM
CELL 1.54180   50.00000   50.00000   50.00000   90.00000   90.00000   90.00000
LATT -1
SFAC C  
C      1  0.4232630000000  0.5037420000000  0.4355560000000 1.0
C      1  0.4235980000000  0.5426880000000  0.4577330000000 1.0
C      1  0.4387880000000  0.5609830000000  0.4738620000000 1.0
C      1  0.4092050000000  0.4993800000000  0.4607340000000 1.0
C      1  0.4305960000000  0.5590110000000  0.5015060000000 1.0
C      1  0.4907060000000  0.5502630000000  0.4960350000000 1.0
C      1  0.4798780000000  0.4651260000000  0.5836900000000 1.0
C      1  0.4865220000000  0.4954370000000  0.5829600000000 1.0
C      1  0.4461660000000  0.4746490000000  0.4603940000000 1.0
C      1  0.4409970000000  0.4819620000000  0.4322280000000 1.0
C      1  0.5290410000000  0.5879090000000  0.5387900000000 1.0
C      1  0.5799010000000  0.5041800000000  0.4795290000000 1.0
C      1  0.5090280000000  0.5299390000000  0.4841920000000 1.0
C      1  0.5174450000000  0.4016260000000  0.5106600000000 1.0
C      1  0.5448300000000  0.4690870000000  0.5187420000000 1.0
C      1  0.5681240000000  0.4431190000000  0.4737510000000 1.0
C      1  0.5404780000000  0.4142250000000  0.4990300000000 1.0
C      1  0.4867140000000  0.5881760000000  0.5415360000000 1.0
C      1  0.5607890000000  0.5547740000000  0.5548810000000 1.0
C      1  0.4606560000000  0.5498330000000  0.5593620000000 1.0
C      1  0.5777390000000  0.5394580000000  0.5148110000000 1.0
C      1  0.5034460000000  0.5037280000000  0.4093920000000 1.0
C      1  0.5291950000000  0.5655610000000  0.4308160000000 1.0
C      1  0.4724630000000  0.5234160000000  0.4580580000000 1.0
C      1  0.5314870000000  0.4580110000000  0.4230260000000 1.0
C      1  0.4893050000000  0.4330770000000  0.4260530000000 1.0
C      1  0.4797340000000  0.5725690000000  0.4549230000000 1.0
C      1  0.4621640000000  0.5145420000000  0.5906160000000 1.0
C      1  0.5210990000000  0.4982470000000  0.4506630000000 1.0
C      1  0.4880780000000  0.5382700000000  0.5502360000000 1.0
C      1  0.4105050000000  0.5243820000000  0.4754860000000 1.0
C      1  0.4633500000000  0.5411760000000  0.5872380000000 1.0
C      1  0.5269580000000  0.5864990000000  0.4502680000000 1.0
C      1  0.5285600000000  0.4900190000000  0.4796250000000 1.0
C      1  0.4896660000000  0.5085170000000  0.5535810000000 1.0
C      1  0.5215120000000  0.5241500000000  0.4143920000000 1.0
C      1  0.5282980000000  0.4630100000000  0.4927740000000 1.0
C      1  0.4963910000000  0.4101010000000  0.4674080000000 1.0
C      1  0.4337790000000  0.5298550000000  0.4337380000000 1.0
C      1  0.5524130000000  0.4203970000000  0.5243290000000 1.0
C      1  0.4264810000000  0.4329610000000  0.5013150000000 1.0
C      1  0.4467690000000  0.4158570000000  0.4896780000000 1.0
C      1  0.5686180000000  0.4907290000000  0.5205690000000 1.0
C      1  0.5455710000000  0.5128930000000  0.4311750000000 1.0
C      1  0.5370240000000  0.5374120000000  0.5613110000000 1.0
C      1  0.5151280000000  0.4319950000000  0.4605170000000 1.0
C      1  0.4700750000000  0.5488130000000  0.4738890000000 1.0
C      1  0.5493010000000  0.4621900000000  0.5740230000000 1.0
C      1  0.5092130000000  0.5767550000000  0.4951100000000 1.0
C      1  0.5653620000000  0.5337020000000  0.4419360000000 1.0
C      1  0.4146150000000  0.4941840000000  0.5359040000000 1.0
C      1  0.4155390000000  0.4587760000000  0.4927470000000 1.0
C      1  0.5539260000000  0.5808150000000  0.4599810000000 1.0
C      1  0.4353390000000  0.4390550000000  0.5275420000000 1.0
C      1  0.5563360000000  0.5599570000000  0.4393050000000 1.0
C      1  0.4177010000000  0.4731360000000  0.4692790000000 1.0
C      1  0.4659750000000  0.5117020000000  0.5144720000000 1.0
C      1  0.4262170000000  0.4818400000000  0.5097270000000 1.0
C      1  0.4731990000000  0.4644700000000  0.4984810000000 1.0
C      1  0.4691110000000  0.4159980000000  0.5346300000000 1.0
C      1  0.5359720000000  0.5373530000000  0.4810910000000 1.0
C      1  0.4765920000000  0.4150540000000  0.4472250000000 1.0
C      1  0.5337760000000  0.5217920000000  0.5341060000000 1.0
C      1  0.5221730000000  0.4752720000000  0.5365560000000 1.0
C      1  0.5067870000000  0.5029330000000  0.4976200000000 1.0
C      1  0.4414530000000  0.5261800000000  0.5513550000000 1.0
C      1  0.4637300000000  0.5311650000000  0.4285290000000 1.0
C      1  0.4397550000000  0.5088540000000  0.4985820000000 1.0
C      1  0.5618860000000  0.5800450000000  0.4858140000000 1.0
C      1  0.4174520000000  0.5216850000000  0.5328820000000 1.0
C      1  0.4610110000000  0.5763580000000  0.5430720000000 1.0
C      1  0.5516100000000  0.5136870000000  0.5751030000000 1.0
C      1  0.5496530000000  0.5114540000000  0.4869350000000 1.0
C      1  0.5000290000000  0.4553390000000  0.5040330000000 1.0
C      1  0.5807520000000  0.5368350000000  0.5455660000000 1.0
C      1  0.4281280000000  0.4850100000000  0.5592930000000 1.0
C      1  0.5042280000000  0.5847200000000  0.4662010000000 1.0
C      1  0.4801980000000  0.5373630000000  0.5192490000000 1.0
C      1  0.5403350000000  0.4891880000000  0.5848480000000 1.0
C      1  0.5858110000000  0.5277270000000  0.4622320000000 1.0
C      1  0.4537220000000  0.4745620000000  0.5469440000000 1.0
C      1  0.5097700000000  0.5789800000000  0.5576330000000 1.0
C      1  0.5383170000000  0.5643550000000  0.4920380000000 1.0
C      1  0.4863900000000  0.4628630000000  0.4278470000000 1.0
C      1  0.4670200000000  0.4511400000000  0.5619290000000 1.0
C      1  0.5281280000000  0.4102460000000  0.5371090000000 1.0
C      1  0.4917600000000  0.4568440000000  0.4574300000000 1.0
C      1  0.4936500000000  0.4012910000000  0.4952620000000 1.0
C      1  0.4562410000000  0.5843950000000  0.4695730000000 1.0
C      1  0.5067130000000  0.5933100000000  0.5205440000000 1.0
C      1  0.5758330000000  0.5118190000000  0.5600400000000 1.0
C      1  0.5695480000000  0.4605300000000  0.5537270000000 1.0
C      1  0.4815620000000  0.5556480000000  0.4300280000000 1.0
C      1  0.5383070000000  0.4368080000000  0.4798080000000 1.0
C      1  0.5644360000000  0.4465730000000  0.5260360000000 1.0
C      1  0.4651110000000  0.4820090000000  0.4185970000000 1.0
C      1  0.5032160000000  0.4552110000000  0.5309940000000 1.0
C      1  0.4756720000000  0.5077890000000  0.4125430000000 1.0
C      1  0.5116630000000  0.4793390000000  0.4261280000000 1.0
C      1  0.4679270000000  0.4062600000000  0.5076840000000 1.0
C      1  0.5914890000000  0.5294590000000  0.4889240000000 1.0
C      1  0.4893050000000  0.4344630000000  0.5478340000000 1.0
C      1  0.4487050000000  0.4645910000000  0.5199940000000 1.0
C      1  0.4586200000000  0.5013510000000  0.4733660000000 1.0
C      1  0.4195290000000  0.5319280000000  0.5048110000000 1.0
C      1  0.5268060000000  0.4434720000000  0.5773040000000 1.0
C      1  0.5598430000000  0.4636350000000  0.4283760000000 1.0
C      1  0.4637110000000  0.5028680000000  0.5420530000000 1.0
C      1  0.4488770000000  0.4286250000000  0.5492890000000 1.0
C      1  0.5127760000000  0.5022050000000  0.5312160000000 1.0
C      1  0.4654970000000  0.4541530000000  0.4703770000000 1.0
C      1  0.5033370000000  0.5224100000000  0.4560740000000 1.0
C      1  0.4790000000000  0.4933560000000  0.4949600000000 1.0
C      1  0.5179090000000  0.4333810000000  0.4308560000000 1.0
C      1  0.5654270000000  0.5670950000000  0.5115900000000 1.0
C      1  0.5848600000000  0.4815970000000  0.4980520000000 1.0
C      1  0.4382990000000  0.5084700000000  0.5746920000000 1.0
C      1  0.5559880000000  0.5172220000000  0.5155220000000 1.0
C      1  0.4576030000000  0.4256840000000  0.4650240000000 1.0
C      1  0.5154980000000  0.4245860000000  0.5586490000000 1.0
C      1  0.5596040000000  0.4902850000000  0.4222120000000 1.0
C      1  0.5138100000000  0.4860660000000  0.5944910000000 1.0
C      1  0.5549170000000  0.5761050000000  0.5368130000000 1.0
C      1  0.5070290000000  0.4582940000000  0.5913340000000 1.0
C      1  0.5091210000000  0.5452400000000  0.4297380000000 1.0
C      1  0.5785700000000  0.4864010000000  0.5475910000000 1.0
C      1  0.5108480000000  0.5515640000000  0.5637570000000 1.0
C      1  0.4475860000000  0.5776610000000  0.5167720000000 1.0
C      1  0.5743390000000  0.4497910000000  0.4480470000000 1.0
C      1  0.4602580000000  0.5920660000000  0.4960010000000 1.0
C      1  0.5801610000000  0.4536540000000  0.4978980000000 1.0
END
