TITL C-66595-2532-4 -54.5767152359947 125000 -711.565597334454 0 0 102 (C1) n - 1
REM
REM in /rds/project/t2_vol4/rds-t2-cs072/BORA/CARBON/from-Arr/AIRSS/Generating-Clusters/GAP-ML-2020/Only-C1/SD-CG/HFTN-CG
REM
REM
REM
REM
REM
REM ./C.cell (11c1c37f851c82e70ff6c80c92926a4b)
REM AIRSS Version 0.9.1 bugfix July 2018 build 013d7b7c2542+ Fri, 06 Jul 2018 19:26:36 +0100
REM compiler GCC version 9.3.0
REM options -cpp -mtune=generic -march=x86-64 -g -O0
REM seed 118738104 -195786128 1104816461 -310535995 1766484986 1471305337 -2037319992 1829081405 -1388399849 78304411 1574758790 604702355 467502154 -2026577489 1156250019 -1149580597 -2035227310 -185559148 -1169160877 -402535703 -1957517876 -1986974351 -44904451 -1188950028 -645141327 1187907864 1955166489 -1887236223 -1992011064 -792850717 766497510 -1737233192 -1066297843
REM
CELL 1.54180   50.00000   50.00000   50.00000   90.00000   90.00000   90.00000
LATT -1
SFAC C  
C      1  0.4766290000000  0.4110140000000  0.5275950000000 1.0
C      1  0.5531340000000  0.5366280000000  0.4561420000000 1.0
C      1  0.5177140000000  0.4251900000000  0.4535510000000 1.0
C      1  0.4728230000000  0.4713320000000  0.5185490000000 1.0
C      1  0.5219740000000  0.4790960000000  0.5081860000000 1.0
C      1  0.4228440000000  0.5189560000000  0.4513820000000 1.0
C      1  0.4610850000000  0.4372590000000  0.4619750000000 1.0
C      1  0.5011730000000  0.4542480000000  0.5853990000000 1.0
C      1  0.4806780000000  0.4491190000000  0.5642700000000 1.0
C      1  0.5423320000000  0.4724380000000  0.5727510000000 1.0
C      1  0.5347430000000  0.5866530000000  0.4965720000000 1.0
C      1  0.4835850000000  0.5908710000000  0.4850910000000 1.0
C      1  0.5249740000000  0.5886480000000  0.5239070000000 1.0
C      1  0.5690380000000  0.4683360000000  0.4849150000000 1.0
C      1  0.4896870000000  0.4540110000000  0.4998990000000 1.0
C      1  0.5332550000000  0.5128830000000  0.4128360000000 1.0
C      1  0.4254510000000  0.4742760000000  0.4743290000000 1.0
C      1  0.4205830000000  0.5370280000000  0.4923230000000 1.0
C      1  0.5517580000000  0.5139280000000  0.4319490000000 1.0
C      1  0.4388590000000  0.4681750000000  0.5202200000000 1.0
C      1  0.4133310000000  0.5120010000000  0.5049260000000 1.0
C      1  0.4709920000000  0.4708900000000  0.4245020000000 1.0
C      1  0.4964650000000  0.5864730000000  0.5304090000000 1.0
C      1  0.5556790000000  0.4423750000000  0.4809840000000 1.0
C      1  0.4750470000000  0.5884910000000  0.5123510000000 1.0
C      1  0.5162440000000  0.4596460000000  0.4218690000000 1.0
C      1  0.5441650000000  0.4273030000000  0.5028640000000 1.0
C      1  0.4956250000000  0.5428770000000  0.4888680000000 1.0
C      1  0.4398930000000  0.4794000000000  0.5492450000000 1.0
C      1  0.5045440000000  0.5182800000000  0.5646460000000 1.0
C      1  0.5057030000000  0.5068600000000  0.4098520000000 1.0
C      1  0.5101920000000  0.4544640000000  0.5232660000000 1.0
C      1  0.5282130000000  0.4499560000000  0.5745990000000 1.0
C      1  0.5564450000000  0.4864820000000  0.4410420000000 1.0
C      1  0.4873240000000  0.5735430000000  0.4424090000000 1.0
C      1  0.5126410000000  0.5324970000000  0.5120970000000 1.0
C      1  0.5288140000000  0.5536590000000  0.4508650000000 1.0
C      1  0.5129420000000  0.5903730000000  0.4779110000000 1.0
C      1  0.5110400000000  0.4135610000000  0.5496830000000 1.0
C      1  0.4390150000000  0.4490950000000  0.4769510000000 1.0
C      1  0.5538030000000  0.5354120000000  0.5548110000000 1.0
C      1  0.4923560000000  0.4769410000000  0.5976180000000 1.0
C      1  0.4767240000000  0.5163740000000  0.5727910000000 1.0
C      1  0.4943860000000  0.4679780000000  0.5435290000000 1.0
C      1  0.4676750000000  0.5798440000000  0.4625660000000 1.0
C      1  0.5070170000000  0.5029540000000  0.5189320000000 1.0
C      1  0.4831630000000  0.4215230000000  0.5542360000000 1.0
C      1  0.4221180000000  0.4843700000000  0.5004700000000 1.0
C      1  0.5600980000000  0.5708200000000  0.4927900000000 1.0
C      1  0.4445080000000  0.5652390000000  0.4700990000000 1.0
C      1  0.5426340000000  0.4405320000000  0.4550870000000 1.0
C      1  0.5806520000000  0.5344210000000  0.5026330000000 1.0
C      1  0.5730950000000  0.5586750000000  0.5161940000000 1.0
C      1  0.5379020000000  0.5261590000000  0.5029880000000 1.0
C      1  0.4611480000000  0.4206680000000  0.5064950000000 1.0
C      1  0.4885140000000  0.5461300000000  0.4337710000000 1.0
C      1  0.4890520000000  0.5654350000000  0.5484750000000 1.0
C      1  0.4996150000000  0.4891370000000  0.4661480000000 1.0
C      1  0.4410270000000  0.4422950000000  0.5046040000000 1.0
C      1  0.5421110000000  0.5798530000000  0.5430760000000 1.0
C      1  0.5425710000000  0.5136480000000  0.4761070000000 1.0
C      1  0.5077800000000  0.5443220000000  0.5442060000000 1.0
C      1  0.5421390000000  0.4620550000000  0.4355090000000 1.0
C      1  0.4558650000000  0.5297160000000  0.5581450000000 1.0
C      1  0.5492930000000  0.4715950000000  0.5249960000000 1.0
C      1  0.4536270000000  0.5703090000000  0.5218140000000 1.0
C      1  0.4252980000000  0.5425760000000  0.4636630000000 1.0
C      1  0.5630120000000  0.5110540000000  0.5443650000000 1.0
C      1  0.4664420000000  0.5090750000000  0.4889950000000 1.0
C      1  0.4359210000000  0.5089460000000  0.5493710000000 1.0
C      1  0.5711210000000  0.5482800000000  0.4766620000000 1.0
C      1  0.5078120000000  0.4704460000000  0.4841270000000 1.0
C      1  0.4722230000000  0.4898960000000  0.5836060000000 1.0
C      1  0.5117950000000  0.4947650000000  0.5478680000000 1.0
C      1  0.5205380000000  0.4104630000000  0.5000180000000 1.0
C      1  0.5015890000000  0.4378380000000  0.4339600000000 1.0
C      1  0.4577090000000  0.4695210000000  0.5687550000000 1.0
C      1  0.5610210000000  0.5599860000000  0.5414160000000 1.0
C      1  0.4294550000000  0.4928810000000  0.4511300000000 1.0
C      1  0.4180950000000  0.5160280000000  0.5310320000000 1.0
C      1  0.5167100000000  0.5102860000000  0.4628120000000 1.0
C      1  0.4738860000000  0.4446730000000  0.4371250000000 1.0
C      1  0.4785190000000  0.4983570000000  0.5121910000000 1.0
C      1  0.5329600000000  0.4305180000000  0.5541230000000 1.0
C      1  0.5769550000000  0.5089240000000  0.5182530000000 1.0
C      1  0.5619370000000  0.4900590000000  0.4684250000000 1.0
C      1  0.4434990000000  0.5554410000000  0.4992310000000 1.0
C      1  0.5145690000000  0.5790020000000  0.4520520000000 1.0
C      1  0.4562670000000  0.4890010000000  0.4413700000000 1.0
C      1  0.5058150000000  0.5365160000000  0.4591150000000 1.0
C      1  0.4968690000000  0.4790250000000  0.4134280000000 1.0
C      1  0.5411670000000  0.4422360000000  0.5276840000000 1.0
C      1  0.5051850000000  0.4145380000000  0.4765030000000 1.0
C      1  0.5268760000000  0.5371090000000  0.5635790000000 1.0
C      1  0.4723490000000  0.4957250000000  0.4642050000000 1.0
C      1  0.4781050000000  0.4256680000000  0.4826140000000 1.0
C      1  0.5050350000000  0.4048240000000  0.5230610000000 1.0
C      1  0.4620960000000  0.5561990000000  0.5460480000000 1.0
C      1  0.5716810000000  0.4815410000000  0.5100420000000 1.0
C      1  0.4889450000000  0.5291550000000  0.4133280000000 1.0
C      1  0.4686170000000  0.5368460000000  0.4912750000000 1.0
C      1  0.5444220000000  0.4878830000000  0.5492960000000 1.0
END
