TITL C-66697-480-10 -0.055463711095681 125000 -395.088254556184 0 0 58 (C1) n - 1
REM
REM in /rds/project/t2_vol4/rds-t2-cs072/BORA/CARBON/from-Arr/AIRSS/Generating-Clusters/GAP-ML-2020/Only-C1/SD-CG/HFTN-CG
REM
REM
REM
REM
REM
REM ./C.cell (11c1c37f851c82e70ff6c80c92926a4b)
REM AIRSS Version 0.9.1 bugfix July 2018 build 013d7b7c2542+ Fri, 06 Jul 2018 19:26:36 +0100
REM compiler GCC version 9.3.0
REM options -cpp -mtune=generic -march=x86-64 -g -O0
REM seed 210231802 -400482319 96649592 1363418573 -1672522876 1800140450 1665338237 -1039126911 -1120024302 -1351462370 -1445752870 -1385664521 -2123709687 -1142475386 -528693214 353973624 -1403241323 1604459974 1062947137 1184228788 -1142133300 1031209835 -631768156 931234062 379629525 -1681908063 561164151 -1570680668 188789466 -288934565 692805564 663126707 1790050772
REM
CELL 1.54180   50.00000   50.00000   50.00000   90.00000   90.00000   90.00000
LATT -1
SFAC C  
C      1  0.5043890000000  0.4357820000000  0.5045060000000 1.0
C      1  0.4260320000000  0.5165930000000  0.4905850000000 1.0
C      1  0.4691960000000  0.5064080000000  0.5010950000000 1.0
C      1  0.5189640000000  0.4333730000000  0.5285120000000 1.0
C      1  0.4610490000000  0.4584190000000  0.5012100000000 1.0
C      1  0.5572390000000  0.4984490000000  0.4633610000000 1.0
C      1  0.5480360000000  0.5379220000000  0.4883460000000 1.0
C      1  0.4619880000000  0.4535050000000  0.4737240000000 1.0
C      1  0.4633080000000  0.5516730000000  0.5105020000000 1.0
C      1  0.5030230000000  0.5294950000000  0.5658520000000 1.0
C      1  0.5309810000000  0.4793950000000  0.4371770000000 1.0
C      1  0.5424320000000  0.4501940000000  0.5287840000000 1.0
C      1  0.5182340000000  0.5258410000000  0.4511990000000 1.0
C      1  0.4891040000000  0.4604420000000  0.5063570000000 1.0
C      1  0.4935970000000  0.4752770000000  0.5291500000000 1.0
C      1  0.4872750000000  0.4471820000000  0.4607860000000 1.0
C      1  0.4864620000000  0.5028990000000  0.5245840000000 1.0
C      1  0.5207870000000  0.5454750000000  0.5519790000000 1.0
C      1  0.4659800000000  0.5078770000000  0.5498140000000 1.0
C      1  0.5436070000000  0.5348660000000  0.5376530000000 1.0
C      1  0.4753030000000  0.5345280000000  0.5562280000000 1.0
C      1  0.5058370000000  0.5192400000000  0.5131530000000 1.0
C      1  0.5105880000000  0.4462460000000  0.5552370000000 1.0
C      1  0.5050220000000  0.5625100000000  0.5348450000000 1.0
C      1  0.4795040000000  0.4975650000000  0.4745690000000 1.0
C      1  0.5465780000000  0.5063250000000  0.5370760000000 1.0
C      1  0.4906320000000  0.5149000000000  0.4521710000000 1.0
C      1  0.5012370000000  0.4818350000000  0.4842930000000 1.0
C      1  0.5481760000000  0.4710980000000  0.4590850000000 1.0
C      1  0.5386500000000  0.5077760000000  0.4432360000000 1.0
C      1  0.5332240000000  0.4912280000000  0.5570230000000 1.0
C      1  0.5589380000000  0.5111760000000  0.4878850000000 1.0
C      1  0.5084080000000  0.5020850000000  0.5693400000000 1.0
C      1  0.5391140000000  0.4543980000000  0.4794990000000 1.0
C      1  0.5072120000000  0.5609490000000  0.4864880000000 1.0
C      1  0.4774370000000  0.5541420000000  0.5348150000000 1.0
C      1  0.4531790000000  0.4794580000000  0.4635900000000 1.0
C      1  0.4319700000000  0.4909560000000  0.4832690000000 1.0
C      1  0.4832540000000  0.4880670000000  0.5671890000000 1.0
C      1  0.5184360000000  0.5004830000000  0.4972050000000 1.0
C      1  0.4778560000000  0.5592970000000  0.4851910000000 1.0
C      1  0.5195540000000  0.5656070000000  0.5113990000000 1.0
C      1  0.4849670000000  0.4631460000000  0.4368020000000 1.0
C      1  0.4670300000000  0.5364670000000  0.4400270000000 1.0
C      1  0.5091290000000  0.4696360000000  0.4265220000000 1.0
C      1  0.5258940000000  0.5451100000000  0.4708350000000 1.0
C      1  0.4619640000000  0.4824340000000  0.4362240000000 1.0
C      1  0.5128940000000  0.4393350000000  0.4770520000000 1.0
C      1  0.5343330000000  0.4631510000000  0.5538620000000 1.0
C      1  0.4459550000000  0.4826880000000  0.5081020000000 1.0
C      1  0.4438240000000  0.5038200000000  0.5308270000000 1.0
C      1  0.4460550000000  0.5267080000000  0.5089760000000 1.0
C      1  0.5483040000000  0.4645670000000  0.5056250000000 1.0
C      1  0.5478700000000  0.4940170000000  0.5093700000000 1.0
C      1  0.4882480000000  0.4627280000000  0.5548840000000 1.0
C      1  0.4675740000000  0.5547900000000  0.4593920000000 1.0
C      1  0.5436410000000  0.5497640000000  0.5131770000000 1.0
C      1  0.4705280000000  0.5107020000000  0.4303630000000 1.0
END
