TITL C-66137-5893-3 -0.126796498242632 125000 -683.094056760817 0 0 98 (C1) n - 1
REM
REM in /rds/project/t2_vol4/rds-t2-cs072/BORA/CARBON/from-Arr/AIRSS/Generating-Clusters/GAP-ML-2020/Only-C1/SD-CG/HFTN-CG
REM
REM
REM
REM
REM
REM ./C.cell (11c1c37f851c82e70ff6c80c92926a4b)
REM AIRSS Version 0.9.1 bugfix July 2018 build 013d7b7c2542+ Fri, 06 Jul 2018 19:26:36 +0100
REM compiler GCC version 9.3.0
REM options -cpp -mtune=generic -march=x86-64 -g -O0
REM seed -1780551358 -868262368 2055569279 -271898106 655723345 -1011208275 -1169597396 -1917269330 942143439 1826830372 1160459981 1820983829 -1227527127 410377167 -1662305997 1468770201 -1228066892 -246560998 -1601976790 691771856 1610384131 957099754 -592876927 888625881 372966573 -1814179531 -1399543006 1490395030 1410971828 955535393 -2099669491 672730199 -1948187982
REM
CELL 1.54180   50.00000   50.00000   50.00000   90.00000   90.00000   90.00000
LATT -1
SFAC C  
C      1  0.5723490000000  0.5171010000000  0.5225750000000 1.0
C      1  0.5091890000000  0.4297970000000  0.4995060000000 1.0
C      1  0.4879850000000  0.5074090000000  0.5558500000000 1.0
C      1  0.5286670000000  0.4441910000000  0.4300990000000 1.0
C      1  0.5639340000000  0.4566950000000  0.4628440000000 1.0
C      1  0.4937320000000  0.4898910000000  0.5891380000000 1.0
C      1  0.5225240000000  0.5469270000000  0.5727180000000 1.0
C      1  0.5215220000000  0.4862630000000  0.4110730000000 1.0
C      1  0.4571440000000  0.4723510000000  0.5393300000000 1.0
C      1  0.4749210000000  0.4676340000000  0.5853650000000 1.0
C      1  0.4621450000000  0.4216860000000  0.4879780000000 1.0
C      1  0.4959360000000  0.5225620000000  0.4683740000000 1.0
C      1  0.4748860000000  0.5519080000000  0.5555780000000 1.0
C      1  0.4795390000000  0.4226950000000  0.5607440000000 1.0
C      1  0.5070200000000  0.5957790000000  0.4846720000000 1.0
C      1  0.5513980000000  0.4831130000000  0.5471040000000 1.0
C      1  0.4861840000000  0.4315140000000  0.4437210000000 1.0
C      1  0.4463570000000  0.5118600000000  0.4446290000000 1.0
C      1  0.4612520000000  0.4679900000000  0.4303130000000 1.0
C      1  0.4114300000000  0.4850950000000  0.5378790000000 1.0
C      1  0.4920980000000  0.5520570000000  0.4638610000000 1.0
C      1  0.5288300000000  0.4381900000000  0.5209250000000 1.0
C      1  0.4520870000000  0.5397640000000  0.4429190000000 1.0
C      1  0.4497460000000  0.5402160000000  0.5622910000000 1.0
C      1  0.5522660000000  0.4593640000000  0.4363880000000 1.0
C      1  0.5670390000000  0.5226140000000  0.4551970000000 1.0
C      1  0.4790690000000  0.5978060000000  0.4788180000000 1.0
C      1  0.4306550000000  0.4592260000000  0.4973210000000 1.0
C      1  0.4634770000000  0.4322170000000  0.4609450000000 1.0
C      1  0.4518590000000  0.5235790000000  0.4882630000000 1.0
C      1  0.5145740000000  0.4275080000000  0.4485100000000 1.0
C      1  0.4840820000000  0.5654020000000  0.5055660000000 1.0
C      1  0.5181090000000  0.5229080000000  0.4894220000000 1.0
C      1  0.4665010000000  0.4953750000000  0.4320910000000 1.0
C      1  0.5375570000000  0.5856950000000  0.5502730000000 1.0
C      1  0.5482840000000  0.4847810000000  0.4224640000000 1.0
C      1  0.4836030000000  0.4520010000000  0.4238830000000 1.0
C      1  0.5417290000000  0.4968960000000  0.5704250000000 1.0
C      1  0.5363280000000  0.5286130000000  0.4221820000000 1.0
C      1  0.4928200000000  0.4594320000000  0.5009980000000 1.0
C      1  0.5024860000000  0.5247060000000  0.5175890000000 1.0
C      1  0.5256690000000  0.6024170000000  0.5034110000000 1.0
C      1  0.4781240000000  0.4253350000000  0.5338210000000 1.0
C      1  0.5365690000000  0.5250120000000  0.5577110000000 1.0
C      1  0.5507860000000  0.4378520000000  0.4799350000000 1.0
C      1  0.5761570000000  0.4766800000000  0.4803730000000 1.0
C      1  0.4525960000000  0.4744180000000  0.5692940000000 1.0
C      1  0.4381850000000  0.4980210000000  0.5740610000000 1.0
C      1  0.5253530000000  0.4260890000000  0.4748130000000 1.0
C      1  0.5374140000000  0.5836300000000  0.5220970000000 1.0
C      1  0.5119730000000  0.4814540000000  0.5065290000000 1.0
C      1  0.5134790000000  0.4560840000000  0.5409950000000 1.0
C      1  0.5707390000000  0.4690460000000  0.5074100000000 1.0
C      1  0.5236460000000  0.4941120000000  0.4831580000000 1.0
C      1  0.4301970000000  0.4697720000000  0.5248350000000 1.0
C      1  0.5141720000000  0.4553050000000  0.5701390000000 1.0
C      1  0.5067180000000  0.4830540000000  0.4617490000000 1.0
C      1  0.4840130000000  0.4160120000000  0.5071140000000 1.0
C      1  0.4534150000000  0.5203550000000  0.5821500000000 1.0
C      1  0.4963690000000  0.5048060000000  0.4428890000000 1.0
C      1  0.4759910000000  0.5054130000000  0.4844750000000 1.0
C      1  0.5452180000000  0.5564340000000  0.5151670000000 1.0
C      1  0.5330760000000  0.5729530000000  0.5713650000000 1.0
C      1  0.5074940000000  0.5652680000000  0.4854130000000 1.0
C      1  0.4398450000000  0.4336100000000  0.4967170000000 1.0
C      1  0.4824640000000  0.4752630000000  0.4762060000000 1.0
C      1  0.5117780000000  0.5143780000000  0.4171720000000 1.0
C      1  0.4680930000000  0.5006840000000  0.5344470000000 1.0
C      1  0.5540640000000  0.5355060000000  0.5339020000000 1.0
C      1  0.4924540000000  0.5391570000000  0.4177830000000 1.0
C      1  0.5705340000000  0.4886510000000  0.5282580000000 1.0
C      1  0.4940850000000  0.5426370000000  0.5752890000000 1.0
C      1  0.5241350000000  0.4830000000000  0.5336690000000 1.0
C      1  0.4345020000000  0.4736870000000  0.4722870000000 1.0
C      1  0.5497980000000  0.5463120000000  0.4616090000000 1.0
C      1  0.5094130000000  0.4608260000000  0.4158150000000 1.0
C      1  0.5528500000000  0.4459900000000  0.5074210000000 1.0
C      1  0.4471050000000  0.4562170000000  0.4526810000000 1.0
C      1  0.5832400000000  0.5213450000000  0.4979610000000 1.0
C      1  0.4789150000000  0.5455260000000  0.5253300000000 1.0
C      1  0.5137630000000  0.5110790000000  0.5425940000000 1.0
C      1  0.4326870000000  0.5303260000000  0.5412190000000 1.0
C      1  0.4639570000000  0.5759000000000  0.4851680000000 1.0
C      1  0.4603650000000  0.5502040000000  0.4697920000000 1.0
C      1  0.4216430000000  0.5056730000000  0.5515720000000 1.0
C      1  0.4873320000000  0.5002330000000  0.5114710000000 1.0
C      1  0.5197360000000  0.4813150000000  0.5810990000000 1.0
C      1  0.4819220000000  0.4543850000000  0.5296140000000 1.0
C      1  0.4665410000000  0.5432840000000  0.4192960000000 1.0
C      1  0.5573140000000  0.5112620000000  0.4304770000000 1.0
C      1  0.5047430000000  0.5562200000000  0.4379320000000 1.0
C      1  0.5342630000000  0.5495410000000  0.4880560000000 1.0
C      1  0.4824800000000  0.5171140000000  0.5846740000000 1.0
C      1  0.5323400000000  0.5502540000000  0.4392950000000 1.0
C      1  0.4383670000000  0.5031810000000  0.4703000000000 1.0
C      1  0.4524580000000  0.5266920000000  0.5196100000000 1.0
C      1  0.4883630000000  0.4439560000000  0.5768930000000 1.0
C      1  0.5797920000000  0.5062570000000  0.4756660000000 1.0
END
