TITL C-66704-9750-7 -0.137711987023082 125000 -141.546206513657 0 0 22 (C1) n - 1
REM
REM in /rds/project/t2_vol4/rds-t2-cs072/BORA/CARBON/from-Arr/AIRSS/Generating-Clusters/GAP-ML-2020/Only-C1/SD-CG/HFTN-CG
REM
REM
REM
REM
REM
REM ./C.cell (11c1c37f851c82e70ff6c80c92926a4b)
REM AIRSS Version 0.9.1 bugfix July 2018 build 013d7b7c2542+ Fri, 06 Jul 2018 19:26:36 +0100
REM compiler GCC version 9.3.0
REM options -cpp -mtune=generic -march=x86-64 -g -O0
REM seed 2110727865 634976237 969820504 908057224 -1108852029 1158842141 925531349 151335040 -1943889603 -775339055 1803650604 -421318436 477932677 27961400 -1840381499 -1869999669 -1371593687 678719069 -361298346 -392840149 1707519106 2085260683 305186850 596617391 -1304014072 -650916651 -927214778 -1431703222 1941979200 185283043 666257613 -983194752 2105651510
REM
CELL 1.54180   50.00000   50.00000   50.00000   90.00000   90.00000   90.00000
LATT -1
SFAC C  
C      1  0.4760380000000  0.4939330000000  0.4826910000000 1.0
C      1  0.5005880000000  0.4476340000000  0.5344770000000 1.0
C      1  0.4962870000000  0.5165940000000  0.5445510000000 1.0
C      1  0.4615960000000  0.5350750000000  0.4637500000000 1.0
C      1  0.4768990000000  0.4756430000000  0.5039920000000 1.0
C      1  0.4539530000000  0.5134440000000  0.4808750000000 1.0
C      1  0.5354290000000  0.4804080000000  0.4883430000000 1.0
C      1  0.4978490000000  0.5061750000000  0.4690120000000 1.0
C      1  0.5085260000000  0.5547610000000  0.4657970000000 1.0
C      1  0.4992140000000  0.4586510000000  0.5091910000000 1.0
C      1  0.5212850000000  0.4576880000000  0.4920530000000 1.0
C      1  0.4616940000000  0.4829560000000  0.5287290000000 1.0
C      1  0.5324130000000  0.5441820000000  0.4679850000000 1.0
C      1  0.5532710000000  0.4920420000000  0.5085540000000 1.0
C      1  0.5219450000000  0.5186970000000  0.5388640000000 1.0
C      1  0.4895010000000  0.5342010000000  0.4635120000000 1.0
C      1  0.4336310000000  0.5133180000000  0.4982520000000 1.0
C      1  0.5407190000000  0.5058720000000  0.5260300000000 1.0
C      1  0.4945990000000  0.4466080000000  0.5585930000000 1.0
C      1  0.5256610000000  0.4999240000000  0.4698090000000 1.0
C      1  0.4756680000000  0.5009250000000  0.5415530000000 1.0
C      1  0.5432340000000  0.5212700000000  0.4633880000000 1.0
END
