TITL C-66159-6934-9 16.6995277563213 125000 -202.172327595448 0 0 30 (C1) n - 1
REM
REM in /rds/project/t2_vol4/rds-t2-cs072/BORA/CARBON/from-Arr/AIRSS/Generating-Clusters/GAP-ML-2020/Only-C1/SD-CG/HFTN-CG
REM
REM
REM
REM
REM
REM ./C.cell (11c1c37f851c82e70ff6c80c92926a4b)
REM AIRSS Version 0.9.1 bugfix July 2018 build 013d7b7c2542+ Fri, 06 Jul 2018 19:26:36 +0100
REM compiler GCC version 9.3.0
REM options -cpp -mtune=generic -march=x86-64 -g -O0
REM seed -1024684758 816792492 787880903 804670596 -635090558 -2002941869 1478826493 940607067 -1620767937 769945970 1152618624 1450515975 -1443194473 530517084 163423406 1625299807 -792758188 2097002791 -252284019 1431820176 -1643035631 558094588 1224635984 627805089 1626352595 858285527 -26269546 1035496595 632445961 1570584072 1991600540 996561922 612158918
REM
CELL 1.54180   50.00000   50.00000   50.00000   90.00000   90.00000   90.00000
LATT -1
SFAC C  
C      1  0.5061580000000  0.4613530000000  0.4705480000000 1.0
C      1  0.4928990000000  0.5619740000000  0.5174810000000 1.0
C      1  0.4484550000000  0.4754670000000  0.5091480000000 1.0
C      1  0.4943190000000  0.5271630000000  0.4466060000000 1.0
C      1  0.4709140000000  0.4909420000000  0.4572020000000 1.0
C      1  0.4756670000000  0.5451480000000  0.5340610000000 1.0
C      1  0.5260620000000  0.4559420000000  0.5123300000000 1.0
C      1  0.4594010000000  0.4633110000000  0.4863940000000 1.0
C      1  0.4984790000000  0.4820870000000  0.4531380000000 1.0
C      1  0.4786050000000  0.5172440000000  0.5208860000000 1.0
C      1  0.4743360000000  0.5195750000000  0.4647470000000 1.0
C      1  0.5261480000000  0.5341840000000  0.4927530000000 1.0
C      1  0.5033040000000  0.5544890000000  0.5410940000000 1.0
C      1  0.5015080000000  0.5485320000000  0.4936080000000 1.0
C      1  0.5130370000000  0.5072470000000  0.4526040000000 1.0
C      1  0.5103970000000  0.4844890000000  0.5434480000000 1.0
C      1  0.5318660000000  0.5128780000000  0.4726710000000 1.0
C      1  0.5042110000000  0.5113690000000  0.5387500000000 1.0
C      1  0.4855700000000  0.4508040000000  0.4886400000000 1.0
C      1  0.5468750000000  0.4974940000000  0.5147160000000 1.0
C      1  0.5310720000000  0.4643160000000  0.4854220000000 1.0
C      1  0.4975610000000  0.4504190000000  0.5150950000000 1.0
C      1  0.5435260000000  0.4902050000000  0.4866960000000 1.0
C      1  0.5219710000000  0.5328520000000  0.5414180000000 1.0
C      1  0.4514510000000  0.4736800000000  0.4619080000000 1.0
C      1  0.5360490000000  0.5247210000000  0.5181790000000 1.0
C      1  0.4668410000000  0.4884430000000  0.5243920000000 1.0
C      1  0.4873170000000  0.4689560000000  0.5344160000000 1.0
C      1  0.5348120000000  0.4762430000000  0.5304930000000 1.0
C      1  0.4811870000000  0.5284720000000  0.4911530000000 1.0
END
