TITL C-66151-5778-6 0.0689192837216371 125000 -841.669693672145 0 0 122 (C1) n - 1
REM
REM in /rds/project/t2_vol4/rds-t2-cs072/BORA/CARBON/from-Arr/AIRSS/Generating-Clusters/GAP-ML-2020/Only-C1/SD-CG/HFTN-CG
REM
REM
REM
REM
REM
REM ./C.cell (11c1c37f851c82e70ff6c80c92926a4b)
REM AIRSS Version 0.9.1 bugfix July 2018 build 013d7b7c2542+ Fri, 06 Jul 2018 19:26:36 +0100
REM compiler GCC version 9.3.0
REM options -cpp -mtune=generic -march=x86-64 -g -O0
REM seed -341849528 -1821585815 1009674029 -1093570603 -1113593249 813612982 -1761091959 1456007165 214551303 -1063977866 -1194407969 487066679 -1938971042 -432689704 -1206971078 105323508 -1985357338 -1576700431 2132108031 -904463488 651138808 1017507767 2067582351 -1104103725 -115883184 263041094 -1222260275 1596298039 830185709 1667091187 1651978866 -1127834240 752202356
REM
CELL 1.54180   50.00000   50.00000   50.00000   90.00000   90.00000   90.00000
LATT -1
SFAC C  
C      1  0.5061320000000  0.5614170000000  0.4644310000000 1.0
C      1  0.5199020000000  0.5247020000000  0.4950880000000 1.0
C      1  0.5444950000000  0.4446740000000  0.5039840000000 1.0
C      1  0.5120150000000  0.5012780000000  0.5107840000000 1.0
C      1  0.5097270000000  0.4270860000000  0.4401570000000 1.0
C      1  0.5651230000000  0.5121410000000  0.4300550000000 1.0
C      1  0.4899480000000  0.5380310000000  0.5316340000000 1.0
C      1  0.5025780000000  0.5520900000000  0.4359710000000 1.0
C      1  0.5475440000000  0.5361630000000  0.4343010000000 1.0
C      1  0.4955140000000  0.5336660000000  0.4815780000000 1.0
C      1  0.4306010000000  0.4765870000000  0.5109040000000 1.0
C      1  0.5562390000000  0.5363160000000  0.5724490000000 1.0
C      1  0.4028250000000  0.5124150000000  0.5202150000000 1.0
C      1  0.4155810000000  0.5017760000000  0.4682850000000 1.0
C      1  0.5312040000000  0.5501290000000  0.5745090000000 1.0
C      1  0.5571140000000  0.5707550000000  0.5124780000000 1.0
C      1  0.4219050000000  0.4762820000000  0.4502150000000 1.0
C      1  0.4427010000000  0.4268870000000  0.5228510000000 1.0
C      1  0.5601080000000  0.4641970000000  0.5856980000000 1.0
C      1  0.5712040000000  0.4703110000000  0.4415930000000 1.0
C      1  0.5409690000000  0.5145340000000  0.4779340000000 1.0
C      1  0.4839470000000  0.4984450000000  0.5106050000000 1.0
C      1  0.4499760000000  0.5022480000000  0.5825110000000 1.0
C      1  0.4038560000000  0.5371320000000  0.5093110000000 1.0
C      1  0.4942530000000  0.4167480000000  0.4640330000000 1.0
C      1  0.5809390000000  0.4984250000000  0.4496250000000 1.0
C      1  0.5346240000000  0.4863550000000  0.5204650000000 1.0
C      1  0.5084070000000  0.5867710000000  0.5121290000000 1.0
C      1  0.4981730000000  0.4810260000000  0.5739750000000 1.0
C      1  0.4504010000000  0.4611500000000  0.5541750000000 1.0
C      1  0.4315050000000  0.5525740000000  0.4577560000000 1.0
C      1  0.5321340000000  0.5729020000000  0.5555580000000 1.0
C      1  0.4811410000000  0.5779710000000  0.4614370000000 1.0
C      1  0.4980060000000  0.4503240000000  0.5274080000000 1.0
C      1  0.4569700000000  0.5296880000000  0.5732820000000 1.0
C      1  0.4402600000000  0.5363760000000  0.5508980000000 1.0
C      1  0.5714300000000  0.5473360000000  0.5504580000000 1.0
C      1  0.4965800000000  0.4410210000000  0.4209610000000 1.0
C      1  0.4360350000000  0.4585000000000  0.4674570000000 1.0
C      1  0.5419580000000  0.4637700000000  0.4788810000000 1.0
C      1  0.5106080000000  0.4010660000000  0.4813470000000 1.0
C      1  0.5860360000000  0.5115310000000  0.4737500000000 1.0
C      1  0.4480820000000  0.4763450000000  0.4865900000000 1.0
C      1  0.5731110000000  0.4585130000000  0.5387950000000 1.0
C      1  0.4450040000000  0.4326920000000  0.4751630000000 1.0
C      1  0.5338900000000  0.5695160000000  0.4709780000000 1.0
C      1  0.5844600000000  0.4939560000000  0.4981610000000 1.0
C      1  0.5289950000000  0.4571980000000  0.5271060000000 1.0
C      1  0.4627500000000  0.5817970000000  0.4826460000000 1.0
C      1  0.4476300000000  0.5219850000000  0.5026550000000 1.0
C      1  0.5384400000000  0.4163840000000  0.5022360000000 1.0
C      1  0.4204670000000  0.5263020000000  0.4508100000000 1.0
C      1  0.5103280000000  0.5335080000000  0.3973100000000 1.0
C      1  0.5371310000000  0.4093870000000  0.4738270000000 1.0
C      1  0.5223720000000  0.5041970000000  0.5697430000000 1.0
C      1  0.5041650000000  0.4853120000000  0.4150070000000 1.0
C      1  0.4412960000000  0.5581470000000  0.5324050000000 1.0
C      1  0.5501830000000  0.4896970000000  0.4932850000000 1.0
C      1  0.5705400000000  0.4875590000000  0.5735810000000 1.0
C      1  0.4379080000000  0.5657790000000  0.4820680000000 1.0
C      1  0.5683450000000  0.5355150000000  0.4777910000000 1.0
C      1  0.4469900000000  0.5235970000000  0.4320840000000 1.0
C      1  0.4628870000000  0.5073810000000  0.4123920000000 1.0
C      1  0.4431520000000  0.5003460000000  0.5243470000000 1.0
C      1  0.4940670000000  0.4845230000000  0.4687120000000 1.0
C      1  0.4299030000000  0.5493890000000  0.5063040000000 1.0
C      1  0.4749780000000  0.4314550000000  0.4787970000000 1.0
C      1  0.4767030000000  0.5283880000000  0.5046150000000 1.0
C      1  0.4574890000000  0.4791270000000  0.4133820000000 1.0
C      1  0.4323970000000  0.4754640000000  0.4256030000000 1.0
C      1  0.5821060000000  0.5329770000000  0.5273370000000 1.0
C      1  0.5470960000000  0.4496880000000  0.5495740000000 1.0
C      1  0.5271630000000  0.4860860000000  0.4350240000000 1.0
C      1  0.4756210000000  0.5652210000000  0.4366810000000 1.0
C      1  0.4704600000000  0.4958660000000  0.5355990000000 1.0
C      1  0.5342440000000  0.5802050000000  0.4974410000000 1.0
C      1  0.4875030000000  0.5122670000000  0.4612120000000 1.0
C      1  0.4665140000000  0.4188510000000  0.5392290000000 1.0
C      1  0.4782260000000  0.4975320000000  0.5898200000000 1.0
C      1  0.5023340000000  0.5228050000000  0.4392580000000 1.0
C      1  0.4360240000000  0.4537360000000  0.5300110000000 1.0
C      1  0.5298880000000  0.5145860000000  0.4472910000000 1.0
C      1  0.5521850000000  0.5086690000000  0.5775680000000 1.0
C      1  0.4432560000000  0.5054130000000  0.4779350000000 1.0
C      1  0.5542370000000  0.5528230000000  0.4583310000000 1.0
C      1  0.5730420000000  0.5481570000000  0.5039400000000 1.0
C      1  0.5889300000000  0.4661410000000  0.4968400000000 1.0
C      1  0.5177230000000  0.5280640000000  0.5251710000000 1.0
C      1  0.4600660000000  0.5102010000000  0.4555560000000 1.0
C      1  0.4347960000000  0.4883750000000  0.5647910000000 1.0
C      1  0.5086810000000  0.4533760000000  0.5818670000000 1.0
C      1  0.4068090000000  0.4933670000000  0.4997650000000 1.0
C      1  0.4251590000000  0.5102120000000  0.5444140000000 1.0
C      1  0.4806150000000  0.4706650000000  0.5477440000000 1.0
C      1  0.4639010000000  0.5756740000000  0.5301460000000 1.0
C      1  0.5101030000000  0.5812610000000  0.5403340000000 1.0
C      1  0.5880600000000  0.5046600000000  0.5258890000000 1.0
C      1  0.4848040000000  0.4646940000000  0.4131150000000 1.0
C      1  0.4942580000000  0.4195530000000  0.5289560000000 1.0
C      1  0.4746490000000  0.5215860000000  0.5494100000000 1.0
C      1  0.4652240000000  0.4332830000000  0.5638500000000 1.0
C      1  0.5312050000000  0.5082900000000  0.5413880000000 1.0
C      1  0.5737040000000  0.4500920000000  0.5121490000000 1.0
C      1  0.5116280000000  0.5301960000000  0.5808590000000 1.0
C      1  0.5183570000000  0.4726140000000  0.4619110000000 1.0
C      1  0.4861880000000  0.4508750000000  0.4995140000000 1.0
C      1  0.5565570000000  0.5698780000000  0.5409160000000 1.0
C      1  0.4842810000000  0.5262290000000  0.5860490000000 1.0
C      1  0.5552330000000  0.4854640000000  0.4237730000000 1.0
C      1  0.4775570000000  0.5861280000000  0.5069540000000 1.0
C      1  0.5831530000000  0.4843010000000  0.5470370000000 1.0
C      1  0.4506980000000  0.5523290000000  0.4360260000000 1.0
C      1  0.5253310000000  0.5479960000000  0.4145630000000 1.0
C      1  0.5391800000000  0.4270800000000  0.4512900000000 1.0
C      1  0.4882340000000  0.4356850000000  0.5788090000000 1.0
C      1  0.4778710000000  0.4763500000000  0.4913130000000 1.0
C      1  0.5383840000000  0.4501890000000  0.5769440000000 1.0
C      1  0.4932880000000  0.5120640000000  0.4114680000000 1.0
C      1  0.4350140000000  0.4199490000000  0.4976310000000 1.0
C      1  0.5577170000000  0.4497610000000  0.4565280000000 1.0
C      1  0.4867050000000  0.5658390000000  0.5425730000000 1.0
C      1  0.5117100000000  0.4064460000000  0.5106740000000 1.0
END
