TITL C-66596-1364-4 -92.2421491650362 125000 -670.564766463527 0 0 96 (C1) n - 1
REM
REM in /rds/project/t2_vol4/rds-t2-cs072/BORA/CARBON/from-Arr/AIRSS/Generating-Clusters/GAP-ML-2020/Only-C1/SD-CG/HFTN-CG
REM
REM
REM
REM
REM
REM ./C.cell (11c1c37f851c82e70ff6c80c92926a4b)
REM AIRSS Version 0.9.1 bugfix July 2018 build 013d7b7c2542+ Fri, 06 Jul 2018 19:26:36 +0100
REM compiler GCC version 9.3.0
REM options -cpp -mtune=generic -march=x86-64 -g -O0
REM seed -987758264 644397042 1285513873 -1804968423 522681845 -1716036476 1501653194 -168824630 1163516164 -1295029687 -663215655 -1760880416 -1897126071 2144084983 1650673081 -250505204 -655804218 -1977184386 -1042022105 -1790059033 1993836389 485357962 67708056 -626635805 -1446096002 -65519899 2039613370 862964733 -501596228 -1843763062 1179310180 1209046550 -409560284
REM
CELL 1.54180   50.00000   50.00000   50.00000   90.00000   90.00000   90.00000
LATT -1
SFAC C  
C      1  0.5292290000000  0.5234340000000  0.5723990000000 1.0
C      1  0.4299450000000  0.5142180000000  0.5321500000000 1.0
C      1  0.5132370000000  0.4462060000000  0.4485320000000 1.0
C      1  0.4587800000000  0.5106230000000  0.4228130000000 1.0
C      1  0.5667020000000  0.5196330000000  0.5374170000000 1.0
C      1  0.4294670000000  0.5198490000000  0.4598760000000 1.0
C      1  0.5395670000000  0.4971070000000  0.5790270000000 1.0
C      1  0.5209910000000  0.4883040000000  0.5306410000000 1.0
C      1  0.4947250000000  0.4799530000000  0.5908060000000 1.0
C      1  0.4822260000000  0.5752160000000  0.4746290000000 1.0
C      1  0.5014940000000  0.5281200000000  0.5789610000000 1.0
C      1  0.5266960000000  0.4515680000000  0.5743350000000 1.0
C      1  0.4551830000000  0.5614330000000  0.5302530000000 1.0
C      1  0.4912690000000  0.5511830000000  0.4334150000000 1.0
C      1  0.5871870000000  0.5201700000000  0.4891080000000 1.0
C      1  0.5809220000000  0.4964760000000  0.4754660000000 1.0
C      1  0.5521750000000  0.4588560000000  0.4743710000000 1.0
C      1  0.4890520000000  0.4271310000000  0.4944320000000 1.0
C      1  0.5002450000000  0.4843540000000  0.4856110000000 1.0
C      1  0.5064460000000  0.4738120000000  0.5110810000000 1.0
C      1  0.4921390000000  0.4927990000000  0.4420940000000 1.0
C      1  0.4822180000000  0.5646910000000  0.5439140000000 1.0
C      1  0.5697060000000  0.4911730000000  0.5398410000000 1.0
C      1  0.4664780000000  0.4366240000000  0.4793780000000 1.0
C      1  0.5027180000000  0.5717450000000  0.4965930000000 1.0
C      1  0.4417760000000  0.5385700000000  0.5447050000000 1.0
C      1  0.5293000000000  0.5242470000000  0.4992940000000 1.0
C      1  0.4488550000000  0.4896880000000  0.5272460000000 1.0
C      1  0.5210210000000  0.5169350000000  0.5270710000000 1.0
C      1  0.5270350000000  0.5703380000000  0.4581600000000 1.0
C      1  0.5105910000000  0.5067810000000  0.4195360000000 1.0
C      1  0.4288130000000  0.4769790000000  0.4798630000000 1.0
C      1  0.5492960000000  0.4545960000000  0.5584680000000 1.0
C      1  0.5158060000000  0.4611390000000  0.4206870000000 1.0
C      1  0.4550090000000  0.4638030000000  0.5680900000000 1.0
C      1  0.5760440000000  0.5296320000000  0.5139730000000 1.0
C      1  0.5561800000000  0.5451280000000  0.4981540000000 1.0
C      1  0.4881770000000  0.4649330000000  0.4130450000000 1.0
C      1  0.4420530000000  0.4742070000000  0.4539410000000 1.0
C      1  0.4930700000000  0.4273210000000  0.4381000000000 1.0
C      1  0.4190360000000  0.5054750000000  0.4835640000000 1.0
C      1  0.5395120000000  0.5333570000000  0.5458510000000 1.0
C      1  0.4479860000000  0.4606730000000  0.5406110000000 1.0
C      1  0.5318040000000  0.5617840000000  0.5322700000000 1.0
C      1  0.4545280000000  0.5658010000000  0.4769210000000 1.0
C      1  0.5581680000000  0.4818480000000  0.5631420000000 1.0
C      1  0.5149840000000  0.5335930000000  0.4329200000000 1.0
C      1  0.4579840000000  0.5106050000000  0.5830950000000 1.0
C      1  0.4755910000000  0.4988630000000  0.5379670000000 1.0
C      1  0.5048480000000  0.5702050000000  0.5272840000000 1.0
C      1  0.5457000000000  0.5690600000000  0.5079120000000 1.0
C      1  0.5053870000000  0.5395100000000  0.4885370000000 1.0
C      1  0.5082780000000  0.5235190000000  0.4616010000000 1.0
C      1  0.4950120000000  0.4788600000000  0.5363770000000 1.0
C      1  0.4148020000000  0.5128520000000  0.5097300000000 1.0
C      1  0.5437690000000  0.4843310000000  0.4633490000000 1.0
C      1  0.5304800000000  0.4857280000000  0.4179740000000 1.0
C      1  0.5734990000000  0.5421420000000  0.4743810000000 1.0
C      1  0.5222890000000  0.4765520000000  0.5880110000000 1.0
C      1  0.5518420000000  0.4883360000000  0.4356220000000 1.0
C      1  0.4758580000000  0.5024190000000  0.4860640000000 1.0
C      1  0.5279590000000  0.4305310000000  0.5218660000000 1.0
C      1  0.5715030000000  0.4717590000000  0.4906000000000 1.0
C      1  0.5693110000000  0.5058760000000  0.4487900000000 1.0
C      1  0.4898620000000  0.5212350000000  0.5279410000000 1.0
C      1  0.4812480000000  0.4573480000000  0.5780380000000 1.0
C      1  0.5040740000000  0.4277500000000  0.5393480000000 1.0
C      1  0.4812090000000  0.4261050000000  0.5219770000000 1.0
C      1  0.4837730000000  0.5251420000000  0.5013820000000 1.0
C      1  0.5633480000000  0.5349310000000  0.4494210000000 1.0
C      1  0.4450410000000  0.4879150000000  0.5768060000000 1.0
C      1  0.4820110000000  0.4935000000000  0.4146340000000 1.0
C      1  0.5514410000000  0.4468350000000  0.5312220000000 1.0
C      1  0.5289620000000  0.5781320000000  0.4858150000000 1.0
C      1  0.4550560000000  0.4384510000000  0.5246960000000 1.0
C      1  0.4981150000000  0.5712840000000  0.4516210000000 1.0
C      1  0.4455620000000  0.5445940000000  0.4572770000000 1.0
C      1  0.4563980000000  0.5350350000000  0.5682760000000 1.0
C      1  0.5392690000000  0.5492410000000  0.4418900000000 1.0
C      1  0.5181930000000  0.4284370000000  0.4938750000000 1.0
C      1  0.4741850000000  0.4446560000000  0.4280080000000 1.0
C      1  0.4393650000000  0.4996210000000  0.4413020000000 1.0
C      1  0.4812460000000  0.5134280000000  0.4579630000000 1.0
C      1  0.4673300000000  0.5345670000000  0.4389280000000 1.0
C      1  0.4220010000000  0.4519560000000  0.4912360000000 1.0
C      1  0.5023700000000  0.4400230000000  0.5657560000000 1.0
C      1  0.4823590000000  0.5472950000000  0.5673930000000 1.0
C      1  0.4943430000000  0.4690850000000  0.4598890000000 1.0
C      1  0.5677660000000  0.4689350000000  0.5191890000000 1.0
C      1  0.4519710000000  0.4892410000000  0.4974590000000 1.0
C      1  0.4497710000000  0.5695450000000  0.5043580000000 1.0
C      1  0.4658510000000  0.4556600000000  0.4554590000000 1.0
C      1  0.5234750000000  0.5026970000000  0.4777560000000 1.0
C      1  0.4857180000000  0.5067580000000  0.5897980000000 1.0
C      1  0.4445310000000  0.4386150000000  0.4980630000000 1.0
C      1  0.5322050000000  0.4393280000000  0.4713090000000 1.0
END
