TITL C-66157-5959-2 -0.0896107158193039 125000 -714.232247704361 0 0 102 (C1) n - 1
REM
REM in /rds/project/t2_vol4/rds-t2-cs072/BORA/CARBON/from-Arr/AIRSS/Generating-Clusters/GAP-ML-2020/Only-C1/SD-CG/HFTN-CG
REM
REM
REM
REM
REM
REM ./C.cell (11c1c37f851c82e70ff6c80c92926a4b)
REM AIRSS Version 0.9.1 bugfix July 2018 build 013d7b7c2542+ Fri, 06 Jul 2018 19:26:36 +0100
REM compiler GCC version 9.3.0
REM options -cpp -mtune=generic -march=x86-64 -g -O0
REM seed 882890992 1508250641 355064275 1244029113 -397598988 -849085601 -1335872579 725438310 1396049250 949404845 1491779521 1063924429 240020100 1429843892 102177729 -1231973734 128259815 -1319194847 -1645207083 928517907 626670934 -1730539270 1488677626 -2035503984 1275148807 -2071683643 1666759408 -808432640 1031261753 1876348056 2117353243 1205877148 -1943551241
REM
CELL 1.54180   50.00000   50.00000   50.00000   90.00000   90.00000   90.00000
LATT -1
SFAC C  
C      1  0.5387570000000  0.4102320000000  0.4636510000000 1.0
C      1  0.5018370000000  0.4463270000000  0.4618940000000 1.0
C      1  0.4705500000000  0.5037810000000  0.5026590000000 1.0
C      1  0.5418900000000  0.4973750000000  0.4761800000000 1.0
C      1  0.5179940000000  0.5137670000000  0.4763610000000 1.0
C      1  0.4118730000000  0.5133280000000  0.5017940000000 1.0
C      1  0.4914000000000  0.4983290000000  0.4003890000000 1.0
C      1  0.5340420000000  0.5004680000000  0.4266320000000 1.0
C      1  0.5652560000000  0.4775240000000  0.5239840000000 1.0
C      1  0.4174050000000  0.4739280000000  0.4788080000000 1.0
C      1  0.5537990000000  0.4318930000000  0.5092320000000 1.0
C      1  0.4938860000000  0.4518450000000  0.5723760000000 1.0
C      1  0.4769500000000  0.4756540000000  0.4110640000000 1.0
C      1  0.4214300000000  0.4965240000000  0.4607840000000 1.0
C      1  0.5387300000000  0.5694090000000  0.4906570000000 1.0
C      1  0.5309200000000  0.5292930000000  0.4270160000000 1.0
C      1  0.4897230000000  0.5199810000000  0.5188150000000 1.0
C      1  0.4725980000000  0.5738680000000  0.4905520000000 1.0
C      1  0.5387880000000  0.4300560000000  0.4435720000000 1.0
C      1  0.5372840000000  0.4411730000000  0.5307890000000 1.0
C      1  0.5525470000000  0.5550570000000  0.4697390000000 1.0
C      1  0.5121730000000  0.5955450000000  0.5227370000000 1.0
C      1  0.4669520000000  0.5846330000000  0.5358030000000 1.0
C      1  0.5356570000000  0.4808640000000  0.4517000000000 1.0
C      1  0.4970750000000  0.5655450000000  0.4788360000000 1.0
C      1  0.5325300000000  0.4194470000000  0.4905580000000 1.0
C      1  0.5159110000000  0.5251950000000  0.5026520000000 1.0
C      1  0.5703790000000  0.4544290000000  0.5022940000000 1.0
C      1  0.4732290000000  0.4778380000000  0.5106470000000 1.0
C      1  0.4521650000000  0.4422000000000  0.4613340000000 1.0
C      1  0.5536500000000  0.4607930000000  0.5454640000000 1.0
C      1  0.5749370000000  0.5313280000000  0.5305320000000 1.0
C      1  0.5530010000000  0.4739610000000  0.5701140000000 1.0
C      1  0.4416340000000  0.4598510000000  0.5458680000000 1.0
C      1  0.5738310000000  0.4613060000000  0.4748670000000 1.0
C      1  0.5478750000000  0.4553430000000  0.4602150000000 1.0
C      1  0.4893760000000  0.4425030000000  0.5451280000000 1.0
C      1  0.5030020000000  0.4639120000000  0.4215100000000 1.0
C      1  0.4781610000000  0.4751830000000  0.5762300000000 1.0
C      1  0.4525520000000  0.4794390000000  0.4259070000000 1.0
C      1  0.5856830000000  0.4856390000000  0.4676720000000 1.0
C      1  0.5735430000000  0.5037070000000  0.5403990000000 1.0
C      1  0.4507120000000  0.4556150000000  0.4381740000000 1.0
C      1  0.4334230000000  0.4356220000000  0.5031620000000 1.0
C      1  0.5191810000000  0.5018460000000  0.5845180000000 1.0
C      1  0.5169300000000  0.4874290000000  0.4084970000000 1.0
C      1  0.4306480000000  0.4482750000000  0.4794320000000 1.0
C      1  0.4673410000000  0.5199610000000  0.5710130000000 1.0
C      1  0.5139410000000  0.5541580000000  0.5008370000000 1.0
C      1  0.5794220000000  0.5380000000000  0.5048970000000 1.0
C      1  0.4966650000000  0.4712680000000  0.5245800000000 1.0
C      1  0.4450970000000  0.5034050000000  0.5647900000000 1.0
C      1  0.4383950000000  0.5503070000000  0.5186240000000 1.0
C      1  0.5420930000000  0.5452450000000  0.5661120000000 1.0
C      1  0.4959160000000  0.5001130000000  0.4644600000000 1.0
C      1  0.4830350000000  0.5911400000000  0.5153240000000 1.0
C      1  0.5603830000000  0.5524980000000  0.5453190000000 1.0
C      1  0.5134380000000  0.4385660000000  0.4340440000000 1.0
C      1  0.5111290000000  0.4266100000000  0.5327590000000 1.0
C      1  0.4775500000000  0.4332820000000  0.4715640000000 1.0
C      1  0.4233360000000  0.4785550000000  0.5313240000000 1.0
C      1  0.5195390000000  0.5635730000000  0.5632120000000 1.0
C      1  0.4266200000000  0.5050910000000  0.5431360000000 1.0
C      1  0.4605820000000  0.4388440000000  0.5383260000000 1.0
C      1  0.5735110000000  0.5358860000000  0.4784810000000 1.0
C      1  0.5340850000000  0.5497870000000  0.4487860000000 1.0
C      1  0.5162400000000  0.4518800000000  0.5874120000000 1.0
C      1  0.4523270000000  0.4759580000000  0.5669950000000 1.0
C      1  0.5071590000000  0.5619280000000  0.4527150000000 1.0
C      1  0.4841710000000  0.5248030000000  0.4044590000000 1.0
C      1  0.5053780000000  0.4748420000000  0.4518030000000 1.0
C      1  0.4683390000000  0.5465120000000  0.5621870000000 1.0
C      1  0.4800060000000  0.4203420000000  0.4966610000000 1.0
C      1  0.5065130000000  0.4162940000000  0.5072490000000 1.0
C      1  0.4717700000000  0.5025170000000  0.4757740000000 1.0
C      1  0.4947380000000  0.5551380000000  0.5543170000000 1.0
C      1  0.4182080000000  0.5209290000000  0.4756050000000 1.0
C      1  0.5617780000000  0.5008840000000  0.5658310000000 1.0
C      1  0.5417340000000  0.5188340000000  0.5766450000000 1.0
C      1  0.4942270000000  0.5493300000000  0.5251520000000 1.0
C      1  0.4914310000000  0.5555850000000  0.4304430000000 1.0
C      1  0.4921510000000  0.5010100000000  0.5708310000000 1.0
C      1  0.4124800000000  0.4846660000000  0.5049210000000 1.0
C      1  0.5028360000000  0.4983070000000  0.5377360000000 1.0
C      1  0.5300840000000  0.4749870000000  0.5871460000000 1.0
C      1  0.5256410000000  0.5862540000000  0.5467030000000 1.0
C      1  0.4365890000000  0.5414270000000  0.4682490000000 1.0
C      1  0.4479130000000  0.5576750000000  0.4912970000000 1.0
C      1  0.5272800000000  0.5072510000000  0.5226640000000 1.0
C      1  0.5505030000000  0.5789540000000  0.5351430000000 1.0
C      1  0.4225320000000  0.5267500000000  0.5239230000000 1.0
C      1  0.4379750000000  0.5023660000000  0.4383380000000 1.0
C      1  0.5396350000000  0.5895690000000  0.5096980000000 1.0
C      1  0.4668750000000  0.5404280000000  0.4241320000000 1.0
C      1  0.4526800000000  0.5611150000000  0.5411390000000 1.0
C      1  0.5708120000000  0.5079950000000  0.4710240000000 1.0
C      1  0.5238650000000  0.4467000000000  0.4820810000000 1.0
C      1  0.5397510000000  0.4862490000000  0.5065570000000 1.0
C      1  0.5079190000000  0.5389500000000  0.4129990000000 1.0
C      1  0.5215250000000  0.4630880000000  0.5082620000000 1.0
C      1  0.4568470000000  0.4260480000000  0.5136360000000 1.0
C      1  0.4461390000000  0.5308820000000  0.4414870000000 1.0
END
