TITL C-66715-9796-9 -0.0435953060982958 125000 -180.840411843924 0 0 28 (C1) n - 1
REM
REM in /rds/project/t2_vol4/rds-t2-cs072/BORA/CARBON/from-Arr/AIRSS/Generating-Clusters/GAP-ML-2020/Only-C1/SD-CG/HFTN-CG
REM
REM
REM
REM
REM
REM ./C.cell (11c1c37f851c82e70ff6c80c92926a4b)
REM AIRSS Version 0.9.1 bugfix July 2018 build 013d7b7c2542+ Fri, 06 Jul 2018 19:26:36 +0100
REM compiler GCC version 9.3.0
REM options -cpp -mtune=generic -march=x86-64 -g -O0
REM seed -113259522 -545992926 -96063979 -1278720700 -440588718 321427650 -779389067 -107921098 -1081938028 -536952681 1656559251 -1597890297 -875622802 -1251963663 42876316 -1379644076 -1173818392 -1676719082 -929006220 -726891945 1053697350 800868832 1014253353 -802023808 -415258486 -256331473 1466115985 -2094764242 1051998956 -403536588 -1368972875 -507170933 -976175173
REM
CELL 1.54180   50.00000   50.00000   50.00000   90.00000   90.00000   90.00000
LATT -1
SFAC C  
C      1  0.4913180000000  0.4872910000000  0.5438970000000 1.0
C      1  0.4682730000000  0.4700390000000  0.4490500000000 1.0
C      1  0.4811570000000  0.4644560000000  0.4698800000000 1.0
C      1  0.4499180000000  0.5041520000000  0.5209290000000 1.0
C      1  0.4792310000000  0.4306610000000  0.5168780000000 1.0
C      1  0.5190690000000  0.5076300000000  0.5135830000000 1.0
C      1  0.4959730000000  0.4512770000000  0.5156800000000 1.0
C      1  0.5010270000000  0.5376110000000  0.5718300000000 1.0
C      1  0.4266210000000  0.5055810000000  0.5107610000000 1.0
C      1  0.5621160000000  0.5061630000000  0.5294640000000 1.0
C      1  0.5510960000000  0.4855170000000  0.5417630000000 1.0
C      1  0.4766400000000  0.5036350000000  0.5260480000000 1.0
C      1  0.4919730000000  0.5451220000000  0.4752440000000 1.0
C      1  0.4981670000000  0.5268400000000  0.5222370000000 1.0
C      1  0.4779970000000  0.5345180000000  0.4566650000000 1.0
C      1  0.4653090000000  0.5190670000000  0.4400150000000 1.0
C      1  0.4978610000000  0.4679200000000  0.4914510000000 1.0
C      1  0.5134910000000  0.4915790000000  0.4910500000000 1.0
C      1  0.5233640000000  0.5003420000000  0.4668630000000 1.0
C      1  0.5362950000000  0.5423010000000  0.4993910000000 1.0
C      1  0.5454520000000  0.5209020000000  0.5133920000000 1.0
C      1  0.5024740000000  0.5395130000000  0.5471680000000 1.0
C      1  0.5162380000000  0.4968280000000  0.4430860000000 1.0
C      1  0.4760940000000  0.4938850000000  0.4354160000000 1.0
C      1  0.5077510000000  0.5418150000000  0.4970080000000 1.0
C      1  0.5018930000000  0.4915590000000  0.4216040000000 1.0
C      1  0.5082320000000  0.4668620000000  0.5397070000000 1.0
C      1  0.5349720000000  0.4669370000000  0.5499410000000 1.0
END
