TITL C-68078-2803-5 405.982324028865 125000 -905.545244143751 0 0 130 (C1) n - 1
REM
REM in /rds/project/t2_vol4/rds-t2-cs072/BORA/CARBON/from-Arr/AIRSS/Generating-Clusters/GAP-ML-2020/Only-C1/SD-CG/HFTN-CG
REM
REM
REM
REM
REM
REM ./C.cell (11c1c37f851c82e70ff6c80c92926a4b)
REM AIRSS Version 0.9.1 bugfix July 2018 build 013d7b7c2542+ Fri, 06 Jul 2018 19:26:36 +0100
REM compiler GCC version 9.3.0
REM options -cpp -mtune=generic -march=x86-64 -g -O0
REM seed 1981668246 -1341102816 365882062 -83167105 2065583012 1874487893 536686935 -479270249 -1834336428 1492858920 640199360 -395547809 2002868593 -1045007167 1963805172 1737883043 1314746568 -1308590975 2011981445 -865870153 61624858 1358052748 230886080 1647645248 -322862876 -229499135 -1794482776 1088161402 1486827391 1079198403 2036603990 -1042025173 868031845
REM
CELL 1.54180   50.00000   50.00000   50.00000   90.00000   90.00000   90.00000
LATT -1
SFAC C  
C      1  0.4356930000000  0.4696230000000  0.4721070000000 1.0
C      1  0.4124760000000  0.4818400000000  0.5115550000000 1.0
C      1  0.4795810000000  0.5904050000000  0.5520540000000 1.0
C      1  0.4577290000000  0.5207320000000  0.4863370000000 1.0
C      1  0.5422600000000  0.5402540000000  0.4622850000000 1.0
C      1  0.5187360000000  0.5215830000000  0.4784370000000 1.0
C      1  0.5047010000000  0.6007680000000  0.5096050000000 1.0
C      1  0.5836100000000  0.4526740000000  0.4912350000000 1.0
C      1  0.4872270000000  0.5046910000000  0.5249380000000 1.0
C      1  0.5480200000000  0.5615870000000  0.5574240000000 1.0
C      1  0.4626190000000  0.4801400000000  0.4559980000000 1.0
C      1  0.5971150000000  0.4897570000000  0.5192810000000 1.0
C      1  0.4787200000000  0.4743140000000  0.4048710000000 1.0
C      1  0.4573940000000  0.5739270000000  0.5574530000000 1.0
C      1  0.5253360000000  0.5277970000000  0.4189920000000 1.0
C      1  0.4353070000000  0.4503300000000  0.5443240000000 1.0
C      1  0.5016890000000  0.5803310000000  0.5675960000000 1.0
C      1  0.5433650000000  0.5447790000000  0.5140750000000 1.0
C      1  0.4998900000000  0.5397530000000  0.4272630000000 1.0
C      1  0.5301580000000  0.4807480000000  0.4606630000000 1.0
C      1  0.5820410000000  0.5272720000000  0.4962210000000 1.0
C      1  0.5036840000000  0.5643230000000  0.4423890000000 1.0
C      1  0.5018770000000  0.5396660000000  0.5383520000000 1.0
C      1  0.4409850000000  0.4728880000000  0.5613340000000 1.0
C      1  0.4490950000000  0.4738030000000  0.4024210000000 1.0
C      1  0.5774180000000  0.4655460000000  0.5385960000000 1.0
C      1  0.5302450000000  0.4137680000000  0.5427850000000 1.0
C      1  0.4884860000000  0.5831320000000  0.4590740000000 1.0
C      1  0.5058480000000  0.4878060000000  0.5956450000000 1.0
C      1  0.5394610000000  0.5160020000000  0.5235920000000 1.0
C      1  0.4639680000000  0.5527740000000  0.5748620000000 1.0
C      1  0.4546580000000  0.5894810000000  0.5128020000000 1.0
C      1  0.3985930000000  0.5548530000000  0.5133560000000 1.0
C      1  0.5132600000000  0.5137420000000  0.5357330000000 1.0
C      1  0.5632990000000  0.4848710000000  0.4163410000000 1.0
C      1  0.5547050000000  0.5782950000000  0.4898450000000 1.0
C      1  0.5342670000000  0.5232340000000  0.5862410000000 1.0
C      1  0.4424180000000  0.5245430000000  0.4591890000000 1.0
C      1  0.4571440000000  0.4813450000000  0.5133710000000 1.0
C      1  0.5946840000000  0.4804610000000  0.4924060000000 1.0
C      1  0.5138800000000  0.4558470000000  0.5612080000000 1.0
C      1  0.4941420000000  0.4680000000000  0.5798430000000 1.0
C      1  0.4452250000000  0.5840250000000  0.4865020000000 1.0
C      1  0.4907530000000  0.5116240000000  0.5963880000000 1.0
C      1  0.4955980000000  0.4564290000000  0.4829380000000 1.0
C      1  0.4511250000000  0.4299520000000  0.4542300000000 1.0
C      1  0.5091040000000  0.4984460000000  0.4616530000000 1.0
C      1  0.5657890000000  0.4470710000000  0.5170900000000 1.0
C      1  0.5710590000000  0.4380600000000  0.4687340000000 1.0
C      1  0.4561670000000  0.5446680000000  0.5202390000000 1.0
C      1  0.4680380000000  0.5051670000000  0.5815890000000 1.0
C      1  0.6045460000000  0.4726070000000  0.5391750000000 1.0
C      1  0.5126490000000  0.4365240000000  0.4607410000000 1.0
C      1  0.5696330000000  0.5089250000000  0.4306890000000 1.0
C      1  0.4950440000000  0.4128140000000  0.4671020000000 1.0
C      1  0.5349730000000  0.4548710000000  0.4167850000000 1.0
C      1  0.4602490000000  0.5788660000000  0.4615300000000 1.0
C      1  0.5002720000000  0.4584150000000  0.5312680000000 1.0
C      1  0.5392080000000  0.4738040000000  0.5695800000000 1.0
C      1  0.5777280000000  0.4397430000000  0.4420670000000 1.0
C      1  0.5596460000000  0.5480820000000  0.4876950000000 1.0
C      1  0.4362880000000  0.5255180000000  0.5087040000000 1.0
C      1  0.4891710000000  0.3999760000000  0.5096680000000 1.0
C      1  0.4653170000000  0.4523490000000  0.4402720000000 1.0
C      1  0.4321080000000  0.5001970000000  0.5239090000000 1.0
C      1  0.4553760000000  0.5068800000000  0.4387260000000 1.0
C      1  0.5295270000000  0.5654520000000  0.4536170000000 1.0
C      1  0.5282470000000  0.5964600000000  0.5278870000000 1.0
C      1  0.5397020000000  0.4794260000000  0.4873510000000 1.0
C      1  0.5608680000000  0.4831630000000  0.5542830000000 1.0
C      1  0.4147820000000  0.5391530000000  0.4935340000000 1.0
C      1  0.4913380000000  0.4992320000000  0.4067410000000 1.0
C      1  0.4790950000000  0.5190390000000  0.4228460000000 1.0
C      1  0.5520670000000  0.5866980000000  0.5163610000000 1.0
C      1  0.5135640000000  0.5520550000000  0.5151980000000 1.0
C      1  0.5009310000000  0.5403320000000  0.4936140000000 1.0
C      1  0.4420390000000  0.5709070000000  0.5324150000000 1.0
C      1  0.4471370000000  0.4578650000000  0.4981320000000 1.0
C      1  0.4873880000000  0.4528800000000  0.4214570000000 1.0
C      1  0.4797590000000  0.5977860000000  0.5236310000000 1.0
C      1  0.5879550000000  0.5080540000000  0.4510010000000 1.0
C      1  0.4370990000000  0.4903640000000  0.4201850000000 1.0
C      1  0.5070910000000  0.3990010000000  0.4875360000000 1.0
C      1  0.5370100000000  0.4820740000000  0.4055070000000 1.0
C      1  0.5070760000000  0.5950190000000  0.4805770000000 1.0
C      1  0.4722140000000  0.4409110000000  0.4953620000000 1.0
C      1  0.5407990000000  0.4312260000000  0.4770150000000 1.0
C      1  0.4733500000000  0.5439480000000  0.4943020000000 1.0
C      1  0.5563560000000  0.4215730000000  0.5304560000000 1.0
C      1  0.5268880000000  0.5824620000000  0.5547220000000 1.0
C      1  0.4663430000000  0.4173050000000  0.4757110000000 1.0
C      1  0.4241110000000  0.4568660000000  0.5188010000000 1.0
C      1  0.4807890000000  0.4243830000000  0.5481550000000 1.0
C      1  0.4157820000000  0.4888170000000  0.4839160000000 1.0
C      1  0.5617730000000  0.5123660000000  0.5444810000000 1.0
C      1  0.5321390000000  0.4941760000000  0.5887330000000 1.0
C      1  0.5329400000000  0.5848040000000  0.4733340000000 1.0
C      1  0.5515970000000  0.5344720000000  0.5664400000000 1.0
C      1  0.4727610000000  0.5292330000000  0.5375910000000 1.0
C      1  0.5393190000000  0.4031020000000  0.5189940000000 1.0
C      1  0.5132940000000  0.4595750000000  0.5059350000000 1.0
C      1  0.4343660000000  0.5007850000000  0.5533640000000 1.0
C      1  0.5192550000000  0.5035690000000  0.4046570000000 1.0
C      1  0.5841080000000  0.5154650000000  0.5226670000000 1.0
C      1  0.5125960000000  0.4446010000000  0.4305940000000 1.0
C      1  0.4425750000000  0.5548080000000  0.4570860000000 1.0
C      1  0.4743280000000  0.4987820000000  0.4966430000000 1.0
C      1  0.4554840000000  0.5233010000000  0.5637340000000 1.0
C      1  0.4291950000000  0.4485500000000  0.4506820000000 1.0
C      1  0.4918610000000  0.5570500000000  0.5830260000000 1.0
C      1  0.5403640000000  0.4534140000000  0.4998870000000 1.0
C      1  0.5486620000000  0.5285750000000  0.4350550000000 1.0
C      1  0.5071700000000  0.5345700000000  0.5926560000000 1.0
C      1  0.4160300000000  0.5159660000000  0.4739410000000 1.0
C      1  0.4874030000000  0.4308510000000  0.5204530000000 1.0
C      1  0.4612960000000  0.3998810000000  0.5003190000000 1.0
C      1  0.4787050000000  0.4785130000000  0.5355810000000 1.0
C      1  0.4692770000000  0.4784960000000  0.5686220000000 1.0
C      1  0.5586910000000  0.5635520000000  0.5316330000000 1.0
C      1  0.5095160000000  0.4255710000000  0.5586980000000 1.0
C      1  0.5629630000000  0.4561370000000  0.4259120000000 1.0
C      1  0.4372900000000  0.4608940000000  0.4250320000000 1.0
C      1  0.4111280000000  0.5695480000000  0.5299160000000 1.0
C      1  0.5348020000000  0.5047300000000  0.4981140000000 1.0
C      1  0.4862940000000  0.4837450000000  0.4737040000000 1.0
C      1  0.5338400000000  0.4053450000000  0.4912970000000 1.0
C      1  0.4466890000000  0.4074470000000  0.5214970000000 1.0
C      1  0.5917740000000  0.5061140000000  0.4776730000000 1.0
C      1  0.4280470000000  0.5615790000000  0.4800270000000 1.0
C      1  0.4523090000000  0.4252850000000  0.5423420000000 1.0
END
