TITL C-68077-2867-12 -0.0680660183890245 125000 -410.91981685336 0 0 60 (C1) n - 1
REM
REM in /rds/project/t2_vol4/rds-t2-cs072/BORA/CARBON/from-Arr/AIRSS/Generating-Clusters/GAP-ML-2020/Only-C1/SD-CG/HFTN-CG
REM
REM
REM
REM
REM
REM ./C.cell (11c1c37f851c82e70ff6c80c92926a4b)
REM AIRSS Version 0.9.1 bugfix July 2018 build 013d7b7c2542+ Fri, 06 Jul 2018 19:26:36 +0100
REM compiler GCC version 9.3.0
REM options -cpp -mtune=generic -march=x86-64 -g -O0
REM seed -779249380 2106648128 1268568515 805603267 92609499 -1373949176 -2035724641 -1523016946 -545424434 1126861387 -205321753 -1108335914 -717316344 19038110 1362148076 1643283544 2129547479 -698025043 495889140 -383247610 -1070144104 2005699529 1478064377 173634594 -1722441601 1168562485 215792833 -285915823 1099328736 -602514236 288582549 -1207442794 -158259765
REM
CELL 1.54180   50.00000   50.00000   50.00000   90.00000   90.00000   90.00000
LATT -1
SFAC C  
C      1  0.5446090000000  0.5107050000000  0.4602700000000 1.0
C      1  0.5191200000000  0.5289920000000  0.5318750000000 1.0
C      1  0.5376980000000  0.4535430000000  0.5274100000000 1.0
C      1  0.4626000000000  0.4317730000000  0.5041540000000 1.0
C      1  0.4357460000000  0.4797070000000  0.5142350000000 1.0
C      1  0.4955650000000  0.5351880000000  0.5160180000000 1.0
C      1  0.5051450000000  0.5105210000000  0.5517560000000 1.0
C      1  0.5504850000000  0.5483460000000  0.5062820000000 1.0
C      1  0.4968900000000  0.5773870000000  0.5294050000000 1.0
C      1  0.5604930000000  0.4965150000000  0.5376540000000 1.0
C      1  0.4504290000000  0.4986610000000  0.4440180000000 1.0
C      1  0.4680630000000  0.5516570000000  0.4789520000000 1.0
C      1  0.4512060000000  0.4454810000000  0.4810410000000 1.0
C      1  0.5348800000000  0.5325900000000  0.4453200000000 1.0
C      1  0.4812330000000  0.5539800000000  0.5307530000000 1.0
C      1  0.5139840000000  0.5188390000000  0.4327430000000 1.0
C      1  0.5150420000000  0.4841670000000  0.5566310000000 1.0
C      1  0.5498000000000  0.4833480000000  0.4635670000000 1.0
C      1  0.5242110000000  0.5191770000000  0.4809860000000 1.0
C      1  0.4635680000000  0.5344090000000  0.5403830000000 1.0
C      1  0.5091960000000  0.4659380000000  0.4393840000000 1.0
C      1  0.5581450000000  0.5001880000000  0.5092400000000 1.0
C      1  0.5297740000000  0.5644450000000  0.4915940000000 1.0
C      1  0.4509440000000  0.4679610000000  0.5352950000000 1.0
C      1  0.4866420000000  0.4853910000000  0.5128890000000 1.0
C      1  0.5483290000000  0.4553510000000  0.5007280000000 1.0
C      1  0.5034700000000  0.4769980000000  0.4938510000000 1.0
C      1  0.5144400000000  0.4370390000000  0.5252530000000 1.0
C      1  0.4743510000000  0.5056030000000  0.4339770000000 1.0
C      1  0.4470490000000  0.5402310000000  0.4918180000000 1.0
C      1  0.5399320000000  0.4761550000000  0.5450000000000 1.0
C      1  0.4378500000000  0.4940030000000  0.4683810000000 1.0
C      1  0.5004730000000  0.5022700000000  0.4810840000000 1.0
C      1  0.5021030000000  0.4926270000000  0.4300480000000 1.0
C      1  0.5346390000000  0.5538150000000  0.5424650000000 1.0
C      1  0.4859570000000  0.4240220000000  0.4885000000000 1.0
C      1  0.5222370000000  0.5782290000000  0.5429640000000 1.0
C      1  0.5675160000000  0.5219740000000  0.5434760000000 1.0
C      1  0.4433180000000  0.5315270000000  0.5212740000000 1.0
C      1  0.5390320000000  0.5218710000000  0.5059060000000 1.0
C      1  0.5315990000000  0.4434860000000  0.4811430000000 1.0
C      1  0.4386340000000  0.4702250000000  0.4864120000000 1.0
C      1  0.4836190000000  0.5122150000000  0.5023250000000 1.0
C      1  0.4883940000000  0.5313670000000  0.4382410000000 1.0
C      1  0.5125780000000  0.5802390000000  0.5057880000000 1.0
C      1  0.4913280000000  0.4438030000000  0.5408650000000 1.0
C      1  0.4760070000000  0.5107500000000  0.5527830000000 1.0
C      1  0.4889340000000  0.4475990000000  0.4439940000000 1.0
C      1  0.5609440000000  0.5471900000000  0.5338440000000 1.0
C      1  0.4680440000000  0.4832650000000  0.5530780000000 1.0
C      1  0.4893020000000  0.5490420000000  0.4615670000000 1.0
C      1  0.5319300000000  0.4613520000000  0.4575850000000 1.0
C      1  0.4309570000000  0.5161580000000  0.4853520000000 1.0
C      1  0.4300070000000  0.5074630000000  0.5133620000000 1.0
C      1  0.5584950000000  0.4792910000000  0.4906560000000 1.0
C      1  0.4752100000000  0.4371870000000  0.4642680000000 1.0
C      1  0.5116400000000  0.4295650000000  0.4973120000000 1.0
C      1  0.5189270000000  0.5479980000000  0.4691090000000 1.0
C      1  0.4922290000000  0.4674520000000  0.5567160000000 1.0
C      1  0.4650560000000  0.4437290000000  0.5290180000000 1.0
END
