TITL C-68052-2925-4 57.7179309838728 125000 -779.153070319217 0 0 111 (C1) n - 1
REM
REM in /rds/project/t2_vol4/rds-t2-cs072/BORA/CARBON/from-Arr/AIRSS/Generating-Clusters/GAP-ML-2020/Only-C1/SD-CG/HFTN-CG
REM
REM
REM
REM
REM
REM ./C.cell (11c1c37f851c82e70ff6c80c92926a4b)
REM AIRSS Version 0.9.1 bugfix July 2018 build 013d7b7c2542+ Fri, 06 Jul 2018 19:26:36 +0100
REM compiler GCC version 9.3.0
REM options -cpp -mtune=generic -march=x86-64 -g -O0
REM seed 2000659772 1243960614 -1309581776 -406906164 1543430899 -733312995 -1631707499 697213105 2119518598 -1567178785 -944750899 -830817130 -89775999 340264318 -549928868 -1066647192 -2124627294 -1150287598 1795699279 -138169971 947900466 -217256825 407314114 -2084643533 -2065988391 -1785313238 -1295712827 676578840 -256237319 1300648501 1956825219 -1414577485 1460983429
REM
CELL 1.54180   50.00000   50.00000   50.00000   90.00000   90.00000   90.00000
LATT -1
SFAC C  
C      1  0.6076880000000  0.5052890000000  0.4912470000000 1.0
C      1  0.5428200000000  0.5308470000000  0.4771950000000 1.0
C      1  0.4786560000000  0.4931900000000  0.4843550000000 1.0
C      1  0.4258890000000  0.4613000000000  0.5220390000000 1.0
C      1  0.5213470000000  0.5460650000000  0.5732230000000 1.0
C      1  0.5225740000000  0.4926810000000  0.5442610000000 1.0
C      1  0.4848280000000  0.4646570000000  0.4799360000000 1.0
C      1  0.5504740000000  0.4735770000000  0.5647500000000 1.0
C      1  0.4624930000000  0.5036380000000  0.5881270000000 1.0
C      1  0.5804170000000  0.4655730000000  0.4794400000000 1.0
C      1  0.5178750000000  0.4336940000000  0.5538560000000 1.0
C      1  0.5764640000000  0.4799380000000  0.4545640000000 1.0
C      1  0.4420790000000  0.4997840000000  0.4392190000000 1.0
C      1  0.5793860000000  0.4909240000000  0.5249790000000 1.0
C      1  0.4823090000000  0.4545420000000  0.5398510000000 1.0
C      1  0.5111910000000  0.5728990000000  0.4538900000000 1.0
C      1  0.4789540000000  0.4817210000000  0.5312940000000 1.0
C      1  0.4947160000000  0.4174800000000  0.4669580000000 1.0
C      1  0.5624230000000  0.4448410000000  0.5367220000000 1.0
C      1  0.5459210000000  0.5405980000000  0.4489460000000 1.0
C      1  0.4943310000000  0.5405500000000  0.5831290000000 1.0
C      1  0.5705410000000  0.4722450000000  0.5434190000000 1.0
C      1  0.4329250000000  0.4544060000000  0.4953110000000 1.0
C      1  0.5617250000000  0.4457170000000  0.4864710000000 1.0
C      1  0.5919210000000  0.4842990000000  0.4997090000000 1.0
C      1  0.5626640000000  0.5157870000000  0.5235330000000 1.0
C      1  0.5121880000000  0.4446490000000  0.4280790000000 1.0
C      1  0.5799480000000  0.5086740000000  0.4555980000000 1.0
C      1  0.4646920000000  0.5014100000000  0.4582520000000 1.0
C      1  0.5123730000000  0.5305840000000  0.4849170000000 1.0
C      1  0.5212340000000  0.5512190000000  0.4379790000000 1.0
C      1  0.4281840000000  0.5412060000000  0.4782200000000 1.0
C      1  0.5574140000000  0.4326670000000  0.5117970000000 1.0
C      1  0.4710530000000  0.5546870000000  0.5720640000000 1.0
C      1  0.5522120000000  0.5593280000000  0.5387310000000 1.0
C      1  0.4548770000000  0.5728860000000  0.4682580000000 1.0
C      1  0.4595410000000  0.4430490000000  0.4836920000000 1.0
C      1  0.4651070000000  0.4330710000000  0.5346670000000 1.0
C      1  0.4442560000000  0.5615320000000  0.4941290000000 1.0
C      1  0.5474930000000  0.5011600000000  0.4772310000000 1.0
C      1  0.5331080000000  0.4964370000000  0.5727620000000 1.0
C      1  0.4728950000000  0.4893480000000  0.4038420000000 1.0
C      1  0.5348080000000  0.4138480000000  0.5120700000000 1.0
C      1  0.5599670000000  0.5622440000000  0.5097480000000 1.0
C      1  0.4916110000000  0.4683810000000  0.5839470000000 1.0
C      1  0.4251600000000  0.4947240000000  0.4616640000000 1.0
C      1  0.4927560000000  0.5259570000000  0.5302650000000 1.0
C      1  0.4455400000000  0.5487600000000  0.4562870000000 1.0
C      1  0.5077610000000  0.4920330000000  0.5892090000000 1.0
C      1  0.4591170000000  0.5094500000000  0.4163580000000 1.0
C      1  0.5248820000000  0.5837280000000  0.4783580000000 1.0
C      1  0.4430450000000  0.4682760000000  0.5648910000000 1.0
C      1  0.4848600000000  0.4194540000000  0.5183600000000 1.0
C      1  0.4278460000000  0.4662130000000  0.4688380000000 1.0
C      1  0.4465150000000  0.4479720000000  0.4565700000000 1.0
C      1  0.4679250000000  0.5440350000000  0.4989900000000 1.0
C      1  0.5121430000000  0.4181610000000  0.5297630000000 1.0
C      1  0.4849530000000  0.5746750000000  0.4696610000000 1.0
C      1  0.5059650000000  0.5311550000000  0.4241600000000 1.0
C      1  0.4678720000000  0.4509880000000  0.4373390000000 1.0
C      1  0.5076320000000  0.5020110000000  0.4763840000000 1.0
C      1  0.5004770000000  0.4588250000000  0.4071040000000 1.0
C      1  0.5621110000000  0.5207940000000  0.4369230000000 1.0
C      1  0.5329870000000  0.5044410000000  0.5196690000000 1.0
C      1  0.5173430000000  0.5027810000000  0.4221870000000 1.0
C      1  0.4178560000000  0.4885380000000  0.5304100000000 1.0
C      1  0.4782570000000  0.5768300000000  0.5563300000000 1.0
C      1  0.4653510000000  0.5844280000000  0.5314100000000 1.0
C      1  0.5547120000000  0.4752830000000  0.4366280000000 1.0
C      1  0.4671090000000  0.4963860000000  0.5099430000000 1.0
C      1  0.5099180000000  0.4860300000000  0.4481490000000 1.0
C      1  0.4915790000000  0.5907460000000  0.5192100000000 1.0
C      1  0.5471380000000  0.5001580000000  0.4248480000000 1.0
C      1  0.5486010000000  0.5787770000000  0.4905780000000 1.0
C      1  0.4636150000000  0.4756210000000  0.5838960000000 1.0
C      1  0.5226980000000  0.4164940000000  0.4735040000000 1.0
C      1  0.4420220000000  0.4488980000000  0.5424890000000 1.0
C      1  0.4297090000000  0.4927110000000  0.5567390000000 1.0
C      1  0.4695080000000  0.5318050000000  0.4539450000000 1.0
C      1  0.4990980000000  0.5897400000000  0.4915350000000 1.0
C      1  0.5335760000000  0.3974410000000  0.4895140000000 1.0
C      1  0.4186270000000  0.5150700000000  0.4828450000000 1.0
C      1  0.4456900000000  0.5426630000000  0.5642470000000 1.0
C      1  0.5431740000000  0.4457150000000  0.5581390000000 1.0
C      1  0.5580990000000  0.5333050000000  0.5478730000000 1.0
C      1  0.5045440000000  0.5824760000000  0.5451840000000 1.0
C      1  0.5660310000000  0.5347830000000  0.4985020000000 1.0
C      1  0.4147850000000  0.5341330000000  0.5275330000000 1.0
C      1  0.4894650000000  0.5140460000000  0.5919670000000 1.0
C      1  0.4865400000000  0.5443440000000  0.4765600000000 1.0
C      1  0.4953460000000  0.5000380000000  0.5437220000000 1.0
C      1  0.5310180000000  0.4601130000000  0.4454360000000 1.0
C      1  0.4682640000000  0.5240730000000  0.5170080000000 1.0
C      1  0.5022450000000  0.4870500000000  0.4019690000000 1.0
C      1  0.4968560000000  0.4493100000000  0.5641760000000 1.0
C      1  0.4308640000000  0.5519910000000  0.5405670000000 1.0
C      1  0.5148320000000  0.5282540000000  0.5134020000000 1.0
C      1  0.4773890000000  0.4204090000000  0.4903640000000 1.0
C      1  0.4420100000000  0.5715090000000  0.5221210000000 1.0
C      1  0.5348760000000  0.4450570000000  0.4719040000000 1.0
C      1  0.5149570000000  0.4611180000000  0.4910690000000 1.0
C      1  0.4821970000000  0.4759400000000  0.4499360000000 1.0
C      1  0.4125820000000  0.5116810000000  0.5123040000000 1.0
C      1  0.5406150000000  0.5251590000000  0.5694210000000 1.0
C      1  0.4423110000000  0.5152060000000  0.5714400000000 1.0
C      1  0.5276910000000  0.5676840000000  0.5538910000000 1.0
C      1  0.5884630000000  0.5207230000000  0.4805840000000 1.0
C      1  0.4907770000000  0.4319790000000  0.4432240000000 1.0
C      1  0.5275060000000  0.4882190000000  0.4943420000000 1.0
C      1  0.4715950000000  0.4605880000000  0.4097200000000 1.0
C      1  0.4774460000000  0.5304250000000  0.4260360000000 1.0
END
