TITL C-68062-2845-12 -0.137578204846616 125000 -393.757716222862 0 0 59 (C1) n - 1
REM
REM in /rds/project/t2_vol4/rds-t2-cs072/BORA/CARBON/from-Arr/AIRSS/Generating-Clusters/GAP-ML-2020/Only-C1/SD-CG/HFTN-CG
REM
REM
REM
REM
REM
REM ./C.cell (11c1c37f851c82e70ff6c80c92926a4b)
REM AIRSS Version 0.9.1 bugfix July 2018 build 013d7b7c2542+ Fri, 06 Jul 2018 19:26:36 +0100
REM compiler GCC version 9.3.0
REM options -cpp -mtune=generic -march=x86-64 -g -O0
REM seed -1349715831 1384191920 -1348749269 1882443918 335137565 890621405 446956427 -1609694613 1147084852 -244982623 334340682 -405544005 2091453653 -1241843177 390347263 844382626 -2064101994 133272635 -504654782 -1738281144 1176783972 917404366 53577000 -68346993 974648941 1514782964 -902015752 -1790858523 -1370457941 707776321 825337457 1286329089 1297261488
REM
CELL 1.54180   50.00000   50.00000   50.00000   90.00000   90.00000   90.00000
LATT -1
SFAC C  
C      1  0.5177860000000  0.4864770000000  0.4741540000000 1.0
C      1  0.4652570000000  0.5273420000000  0.4461820000000 1.0
C      1  0.4655850000000  0.5080170000000  0.4788710000000 1.0
C      1  0.5463500000000  0.5369120000000  0.5261930000000 1.0
C      1  0.4443860000000  0.4836490000000  0.5395200000000 1.0
C      1  0.5080350000000  0.4696530000000  0.4307250000000 1.0
C      1  0.4675120000000  0.4527020000000  0.4649460000000 1.0
C      1  0.4826400000000  0.5246580000000  0.4973210000000 1.0
C      1  0.4983290000000  0.4707980000000  0.4924790000000 1.0
C      1  0.5227770000000  0.4602230000000  0.5560870000000 1.0
C      1  0.4522800000000  0.4573730000000  0.5347970000000 1.0
C      1  0.5750880000000  0.5038130000000  0.5203830000000 1.0
C      1  0.4965780000000  0.4360830000000  0.5178450000000 1.0
C      1  0.4502200000000  0.4871880000000  0.4925340000000 1.0
C      1  0.4661410000000  0.4723300000000  0.4438560000000 1.0
C      1  0.4368010000000  0.4970400000000  0.5146740000000 1.0
C      1  0.5489410000000  0.4740360000000  0.5537250000000 1.0
C      1  0.5222000000000  0.5558520000000  0.4765250000000 1.0
C      1  0.5287540000000  0.5068840000000  0.4927480000000 1.0
C      1  0.5374140000000  0.5355040000000  0.4616600000000 1.0
C      1  0.5537810000000  0.5170080000000  0.4810620000000 1.0
C      1  0.5032260000000  0.4843580000000  0.5182510000000 1.0
C      1  0.4868470000000  0.5303820000000  0.5602310000000 1.0
C      1  0.5127160000000  0.4458170000000  0.4474510000000 1.0
C      1  0.4249740000000  0.5323330000000  0.4834160000000 1.0
C      1  0.4498940000000  0.5412870000000  0.5256690000000 1.0
C      1  0.4321060000000  0.5251700000000  0.5103240000000 1.0
C      1  0.4954850000000  0.5623630000000  0.4667290000000 1.0
C      1  0.4914190000000  0.4361040000000  0.4648470000000 1.0
C      1  0.5431830000000  0.4704970000000  0.4709120000000 1.0
C      1  0.5361210000000  0.4986880000000  0.5641620000000 1.0
C      1  0.4864510000000  0.5011710000000  0.5684070000000 1.0
C      1  0.4667780000000  0.4637020000000  0.4914950000000 1.0
C      1  0.5203030000000  0.5480310000000  0.5189930000000 1.0
C      1  0.4753580000000  0.4995080000000  0.4514120000000 1.0
C      1  0.5148610000000  0.5705130000000  0.5024970000000 1.0
C      1  0.5112240000000  0.5301380000000  0.4946390000000 1.0
C      1  0.4586700000000  0.5011810000000  0.5576230000000 1.0
C      1  0.4702650000000  0.5511410000000  0.5071880000000 1.0
C      1  0.5569000000000  0.4814840000000  0.5269500000000 1.0
C      1  0.4889100000000  0.5092740000000  0.5206630000000 1.0
C      1  0.4828810000000  0.4638740000000  0.4231320000000 1.0
C      1  0.5063030000000  0.4964020000000  0.4479750000000 1.0
C      1  0.5766500000000  0.4818840000000  0.5046420000000 1.0
C      1  0.4687310000000  0.4471530000000  0.5160360000000 1.0
C      1  0.5115890000000  0.4419820000000  0.5399280000000 1.0
C      1  0.5055980000000  0.5301180000000  0.5390040000000 1.0
C      1  0.5647150000000  0.4869870000000  0.4790850000000 1.0
C      1  0.5640270000000  0.5267790000000  0.5070500000000 1.0
C      1  0.4590970000000  0.5293220000000  0.5500950000000 1.0
C      1  0.4860720000000  0.5707520000000  0.4944880000000 1.0
C      1  0.5320360000000  0.5159400000000  0.5417980000000 1.0
C      1  0.5304990000000  0.4943710000000  0.5191760000000 1.0
C      1  0.5099820000000  0.4858840000000  0.5696280000000 1.0
C      1  0.4904650000000  0.5417380000000  0.4482870000000 1.0
C      1  0.5153300000000  0.5248690000000  0.4457230000000 1.0
C      1  0.4450430000000  0.5287820000000  0.4668210000000 1.0
C      1  0.5070310000000  0.4413560000000  0.4893370000000 1.0
C      1  0.5314030000000  0.4451210000000  0.4696510000000 1.0
END
