TITL C-68061-3076-1 -0.093949809344438 125000 -678.138384204397 0 0 96 (C1) n - 1
REM
REM in /rds/project/t2_vol4/rds-t2-cs072/BORA/CARBON/from-Arr/AIRSS/Generating-Clusters/GAP-ML-2020/Only-C1/SD-CG/HFTN-CG
REM
REM
REM
REM
REM
REM ./C.cell (11c1c37f851c82e70ff6c80c92926a4b)
REM AIRSS Version 0.9.1 bugfix July 2018 build 013d7b7c2542+ Fri, 06 Jul 2018 19:26:36 +0100
REM compiler GCC version 9.3.0
REM options -cpp -mtune=generic -march=x86-64 -g -O0
REM seed -1273906715 217574943 2125236485 1128349339 1292649503 -1587229165 191991213 427886653 -26505013 1795946205 -2010437678 -2098595699 -1197171544 1899826117 -1985135943 -1516170292 -245538668 -1588943669 -904478168 -1275527668 -1974415051 -2076089507 1982106997 -1912231877 -1317123036 -566621304 2102180606 846846271 -1228757962 27748069 1519988455 -1528782121 1570700932
REM
CELL 1.54180   50.00000   50.00000   50.00000   90.00000   90.00000   90.00000
LATT -1
SFAC C  
C      1  0.5430210000000  0.5116000000000  0.5786760000000 1.0
C      1  0.4368850000000  0.4672250000000  0.5439520000000 1.0
C      1  0.5469050000000  0.4464120000000  0.5176240000000 1.0
C      1  0.5570600000000  0.5191690000000  0.5302980000000 1.0
C      1  0.4757920000000  0.4854660000000  0.4234460000000 1.0
C      1  0.4573680000000  0.5611810000000  0.4691950000000 1.0
C      1  0.4998870000000  0.5068280000000  0.5945060000000 1.0
C      1  0.5045240000000  0.5231310000000  0.5377630000000 1.0
C      1  0.4596880000000  0.4340060000000  0.5216160000000 1.0
C      1  0.4372620000000  0.5520850000000  0.5135490000000 1.0
C      1  0.4840730000000  0.4670820000000  0.4458510000000 1.0
C      1  0.4707540000000  0.5535940000000  0.5426420000000 1.0
C      1  0.4426410000000  0.5402140000000  0.4541700000000 1.0
C      1  0.4968110000000  0.4964850000000  0.4071550000000 1.0
C      1  0.4269950000000  0.5176400000000  0.4648700000000 1.0
C      1  0.4909460000000  0.5613740000000  0.4335730000000 1.0
C      1  0.4192270000000  0.5151110000000  0.4917460000000 1.0
C      1  0.5545940000000  0.5589970000000  0.4995070000000 1.0
C      1  0.5233680000000  0.4921630000000  0.5886380000000 1.0
C      1  0.5657150000000  0.4756920000000  0.5534070000000 1.0
C      1  0.5003120000000  0.4414430000000  0.5360440000000 1.0
C      1  0.5629440000000  0.4843850000000  0.4629910000000 1.0
C      1  0.5052940000000  0.4932060000000  0.5300750000000 1.0
C      1  0.4341190000000  0.4937480000000  0.4513990000000 1.0
C      1  0.4711820000000  0.4676830000000  0.5841760000000 1.0
C      1  0.5063510000000  0.5752300000000  0.4748000000000 1.0
C      1  0.4630230000000  0.5155270000000  0.5693530000000 1.0
C      1  0.5197930000000  0.4260710000000  0.4520100000000 1.0
C      1  0.5721080000000  0.4957690000000  0.4871250000000 1.0
C      1  0.4462130000000  0.4440400000000  0.4537600000000 1.0
C      1  0.4740800000000  0.4963340000000  0.5870930000000 1.0
C      1  0.5327740000000  0.4515140000000  0.4435300000000 1.0
C      1  0.4913800000000  0.4214280000000  0.4577940000000 1.0
C      1  0.5300230000000  0.4376760000000  0.5393570000000 1.0
C      1  0.4377320000000  0.4520760000000  0.5189950000000 1.0
C      1  0.5153430000000  0.4705680000000  0.4866590000000 1.0
C      1  0.4277200000000  0.4938110000000  0.5382890000000 1.0
C      1  0.5698060000000  0.5369670000000  0.5090570000000 1.0
C      1  0.5385110000000  0.5772280000000  0.5450960000000 1.0
C      1  0.5128170000000  0.4718980000000  0.4560990000000 1.0
C      1  0.4918450000000  0.5315420000000  0.5119150000000 1.0
C      1  0.5382660000000  0.4477010000000  0.4895500000000 1.0
C      1  0.5394100000000  0.4474860000000  0.5651050000000 1.0
C      1  0.5519620000000  0.5573470000000  0.4707610000000 1.0
C      1  0.5634240000000  0.5319230000000  0.4618300000000 1.0
C      1  0.4708850000000  0.4759110000000  0.4716040000000 1.0
C      1  0.4277420000000  0.4680880000000  0.4969840000000 1.0
C      1  0.4527130000000  0.5009410000000  0.4302800000000 1.0
C      1  0.5324080000000  0.5658480000000  0.5178740000000 1.0
C      1  0.5381350000000  0.5546970000000  0.5597960000000 1.0
C      1  0.5290750000000  0.5677680000000  0.4578170000000 1.0
C      1  0.5333880000000  0.4622100000000  0.4164550000000 1.0
C      1  0.5658350000000  0.4529150000000  0.5695630000000 1.0
C      1  0.4821600000000  0.5607130000000  0.5140610000000 1.0
C      1  0.5531940000000  0.4579230000000  0.4648520000000 1.0
C      1  0.4973000000000  0.4194690000000  0.4867010000000 1.0
C      1  0.4800730000000  0.4877750000000  0.5159920000000 1.0
C      1  0.5396560000000  0.5106270000000  0.4200850000000 1.0
C      1  0.4401960000000  0.5169800000000  0.5519460000000 1.0
C      1  0.4410010000000  0.5270190000000  0.5038890000000 1.0
C      1  0.5057780000000  0.4690570000000  0.5468390000000 1.0
C      1  0.4721220000000  0.4367770000000  0.5472450000000 1.0
C      1  0.4701100000000  0.5127070000000  0.5032780000000 1.0
C      1  0.5237080000000  0.4944960000000  0.5044280000000 1.0
C      1  0.4200610000000  0.4927150000000  0.5093580000000 1.0
C      1  0.5184320000000  0.5001080000000  0.4518060000000 1.0
C      1  0.5548580000000  0.4935810000000  0.5117940000000 1.0
C      1  0.4864750000000  0.4664820000000  0.4955780000000 1.0
C      1  0.4448070000000  0.5434460000000  0.5391990000000 1.0
C      1  0.5070590000000  0.5734000000000  0.5031770000000 1.0
C      1  0.5239230000000  0.5343130000000  0.4154770000000 1.0
C      1  0.4754440000000  0.5050110000000  0.4751700000000 1.0
C      1  0.4777360000000  0.5409110000000  0.4190530000000 1.0
C      1  0.5035110000000  0.5334680000000  0.5846430000000 1.0
C      1  0.5506150000000  0.5074840000000  0.4477620000000 1.0
C      1  0.4861130000000  0.4378190000000  0.5076880000000 1.0
C      1  0.5192710000000  0.5576720000000  0.4323810000000 1.0
C      1  0.4545840000000  0.5295890000000  0.4301640000000 1.0
C      1  0.5315580000000  0.5379200000000  0.5809200000000 1.0
C      1  0.5617150000000  0.4692060000000  0.5260110000000 1.0
C      1  0.5173240000000  0.4655740000000  0.5754160000000 1.0
C      1  0.5136550000000  0.5201940000000  0.4934400000000 1.0
C      1  0.5319130000000  0.5373120000000  0.5354400000000 1.0
C      1  0.4719520000000  0.4385750000000  0.4463730000000 1.0
C      1  0.5249720000000  0.4236220000000  0.4798100000000 1.0
C      1  0.4574750000000  0.5635360000000  0.4975820000000 1.0
C      1  0.4825710000000  0.5703160000000  0.4589730000000 1.0
C      1  0.4397780000000  0.4686100000000  0.4683140000000 1.0
C      1  0.4980940000000  0.5249610000000  0.4069230000000 1.0
C      1  0.5771690000000  0.5229890000000  0.4848160000000 1.0
C      1  0.5012900000000  0.5147730000000  0.4688920000000 1.0
C      1  0.5607470000000  0.5046760000000  0.5572400000000 1.0
C      1  0.5247240000000  0.4867910000000  0.4095290000000 1.0
C      1  0.4947420000000  0.4543530000000  0.5895680000000 1.0
C      1  0.4567980000000  0.4562460000000  0.5621270000000 1.0
C      1  0.4852040000000  0.5343690000000  0.5606430000000 1.0
END
