TITL C-68073-3016-2 0.216899798303654 125000 -595.175862855799 0 0 87 (C1) n - 1
REM
REM in /rds/project/t2_vol4/rds-t2-cs072/BORA/CARBON/from-Arr/AIRSS/Generating-Clusters/GAP-ML-2020/Only-C1/SD-CG/HFTN-CG
REM
REM
REM
REM
REM
REM ./C.cell (11c1c37f851c82e70ff6c80c92926a4b)
REM AIRSS Version 0.9.1 bugfix July 2018 build 013d7b7c2542+ Fri, 06 Jul 2018 19:26:36 +0100
REM compiler GCC version 9.3.0
REM options -cpp -mtune=generic -march=x86-64 -g -O0
REM seed 523816083 877975723 -1146853054 1733932133 1919270130 -1842404339 644577382 1090724507 -943712900 -74897883 -710752434 1329148677 1552849097 929957502 1979729371 -1207695532 -557833248 -380278629 127290456 -1317800939 -997215929 1325937421 -502764101 320826024 215604601 1190248599 878392939 1522901492 478228026 958011508 -1910770022 1046061810 627074890
REM
CELL 1.54180   50.00000   50.00000   50.00000   90.00000   90.00000   90.00000
LATT -1
SFAC C  
C      1  0.5283650000000  0.4461020000000  0.5471350000000 1.0
C      1  0.4374280000000  0.5486240000000  0.4769940000000 1.0
C      1  0.4013910000000  0.4759630000000  0.5400220000000 1.0
C      1  0.4856480000000  0.5051150000000  0.5155200000000 1.0
C      1  0.4771210000000  0.4191120000000  0.5049370000000 1.0
C      1  0.4848220000000  0.5380480000000  0.4846560000000 1.0
C      1  0.4366680000000  0.5093040000000  0.5173320000000 1.0
C      1  0.5116250000000  0.5031760000000  0.5610820000000 1.0
C      1  0.4627930000000  0.5102810000000  0.5367250000000 1.0
C      1  0.5419430000000  0.4525180000000  0.5035050000000 1.0
C      1  0.5881110000000  0.5007840000000  0.5194290000000 1.0
C      1  0.4845450000000  0.5492000000000  0.4558410000000 1.0
C      1  0.5800070000000  0.5012060000000  0.4722430000000 1.0
C      1  0.4380460000000  0.4256500000000  0.4762750000000 1.0
C      1  0.5349650000000  0.4752160000000  0.4546050000000 1.0
C      1  0.5430290000000  0.4447460000000  0.4522060000000 1.0
C      1  0.5547940000000  0.5640070000000  0.5054510000000 1.0
C      1  0.5199620000000  0.5350620000000  0.4280140000000 1.0
C      1  0.5453770000000  0.5321390000000  0.5695530000000 1.0
C      1  0.5118780000000  0.5342100000000  0.4946920000000 1.0
C      1  0.4536410000000  0.5444070000000  0.4535610000000 1.0
C      1  0.5644030000000  0.4576340000000  0.5214970000000 1.0
C      1  0.4547140000000  0.4932160000000  0.4375400000000 1.0
C      1  0.4953170000000  0.4804420000000  0.5523030000000 1.0
C      1  0.5397920000000  0.5049420000000  0.5681550000000 1.0
C      1  0.4829430000000  0.4820440000000  0.4383220000000 1.0
C      1  0.5783380000000  0.4734150000000  0.4808660000000 1.0
C      1  0.4404950000000  0.5675570000000  0.5421860000000 1.0
C      1  0.4748240000000  0.5077140000000  0.4881130000000 1.0
C      1  0.4660720000000  0.4870510000000  0.5543390000000 1.0
C      1  0.5557740000000  0.4551900000000  0.4758530000000 1.0
C      1  0.5609700000000  0.4869240000000  0.5587420000000 1.0
C      1  0.5098460000000  0.5675710000000  0.4559910000000 1.0
C      1  0.4748150000000  0.5350630000000  0.5478310000000 1.0
C      1  0.5835020000000  0.4738900000000  0.5092840000000 1.0
C      1  0.5106230000000  0.5203470000000  0.5204030000000 1.0
C      1  0.5033060000000  0.4183160000000  0.5119900000000 1.0
C      1  0.5385910000000  0.5652190000000  0.5314070000000 1.0
C      1  0.5544850000000  0.5392510000000  0.4616300000000 1.0
C      1  0.4335250000000  0.4447350000000  0.5175530000000 1.0
C      1  0.5209560000000  0.4778190000000  0.5051550000000 1.0
C      1  0.5335600000000  0.5004300000000  0.5195130000000 1.0
C      1  0.4939200000000  0.4775710000000  0.5199680000000 1.0
C      1  0.5503830000000  0.5090390000000  0.4982470000000 1.0
C      1  0.5128790000000  0.5838360000000  0.4780310000000 1.0
C      1  0.5527800000000  0.4611220000000  0.5473300000000 1.0
C      1  0.5323750000000  0.5526490000000  0.4461960000000 1.0
C      1  0.4266010000000  0.4613530000000  0.5391060000000 1.0
C      1  0.4696080000000  0.4659250000000  0.5074730000000 1.0
C      1  0.4750240000000  0.5640060000000  0.5042100000000 1.0
C      1  0.5045660000000  0.5296290000000  0.5491490000000 1.0
C      1  0.5788430000000  0.5183160000000  0.4961750000000 1.0
C      1  0.4981970000000  0.5018660000000  0.4243840000000 1.0
C      1  0.4493210000000  0.4900180000000  0.4971260000000 1.0
C      1  0.4319080000000  0.4743490000000  0.4776620000000 1.0
C      1  0.4142270000000  0.4957670000000  0.5299860000000 1.0
C      1  0.5047090000000  0.4533120000000  0.5626760000000 1.0
C      1  0.4602500000000  0.4459920000000  0.5759630000000 1.0
C      1  0.4668590000000  0.5589730000000  0.5353520000000 1.0
C      1  0.5367920000000  0.5828260000000  0.4933500000000 1.0
C      1  0.5473820000000  0.4965820000000  0.4379960000000 1.0
C      1  0.4470250000000  0.5686750000000  0.4949250000000 1.0
C      1  0.4964790000000  0.5833660000000  0.5021020000000 1.0
C      1  0.5300230000000  0.5477060000000  0.5531760000000 1.0
C      1  0.4287920000000  0.4479560000000  0.4889150000000 1.0
C      1  0.5198870000000  0.5832640000000  0.5187460000000 1.0
C      1  0.4760360000000  0.4420790000000  0.4622470000000 1.0
C      1  0.5826460000000  0.4995930000000  0.5458570000000 1.0
C      1  0.5190580000000  0.4523870000000  0.4412850000000 1.0
C      1  0.4615370000000  0.4398370000000  0.5184690000000 1.0
C      1  0.4913080000000  0.4522800000000  0.4398960000000 1.0
C      1  0.5169860000000  0.4893570000000  0.4768030000000 1.0
C      1  0.4851750000000  0.4396960000000  0.5772550000000 1.0
C      1  0.4650840000000  0.4206350000000  0.4774050000000 1.0
C      1  0.4282960000000  0.5346270000000  0.5025010000000 1.0
C      1  0.4888840000000  0.4879870000000  0.4703650000000 1.0
C      1  0.4360970000000  0.4793640000000  0.4515070000000 1.0
C      1  0.5653200000000  0.5136150000000  0.4516400000000 1.0
C      1  0.5291820000000  0.5170530000000  0.4791300000000 1.0
C      1  0.5251260000000  0.4326710000000  0.5200140000000 1.0
C      1  0.4804490000000  0.4623930000000  0.4810110000000 1.0
C      1  0.4484070000000  0.4654200000000  0.5592230000000 1.0
C      1  0.4885060000000  0.5291620000000  0.4315190000000 1.0
C      1  0.5673510000000  0.5448290000000  0.4884810000000 1.0
C      1  0.4316330000000  0.5590340000000  0.5182680000000 1.0
C      1  0.4589960000000  0.5220690000000  0.4362090000000 1.0
C      1  0.5260840000000  0.5081710000000  0.4242160000000 1.0
END
