TITL C-68077-2867-10 1314.54240698004 125000 -677.373898770026 0 0 98 (C1) n - 1
REM
REM in /rds/project/t2_vol4/rds-t2-cs072/BORA/CARBON/from-Arr/AIRSS/Generating-Clusters/GAP-ML-2020/Only-C1/SD-CG/HFTN-CG
REM
REM
REM
REM
REM
REM ./C.cell (11c1c37f851c82e70ff6c80c92926a4b)
REM AIRSS Version 0.9.1 bugfix July 2018 build 013d7b7c2542+ Fri, 06 Jul 2018 19:26:36 +0100
REM compiler GCC version 9.3.0
REM options -cpp -mtune=generic -march=x86-64 -g -O0
REM seed 986899994 -1347362398 153163643 -1831953636 -709932749 -811826144 -637625599 1000312464 292717066 396202436 -741810900 -307218970 -163325603 -1372601433 -1980318577 -1725205853 -235834609 -786452460 -1263811064 1855008660 1956896509 18582315 -319068835 957835834 -1463316129 -1349731626 -1456150685 2096670573 -165075946 329807726 -797557817 1852992729 1863604151
REM
CELL 1.54180   50.00000   50.00000   50.00000   90.00000   90.00000   90.00000
LATT -1
SFAC C  
C      1  0.6034730000000  0.5125450000000  0.5004310000000 1.0
C      1  0.5074810000000  0.5770620000000  0.5329050000000 1.0
C      1  0.5612070000000  0.5246000000000  0.5450290000000 1.0
C      1  0.5109810000000  0.4281860000000  0.4565300000000 1.0
C      1  0.5458430000000  0.4752380000000  0.4389130000000 1.0
C      1  0.4304290000000  0.5405750000000  0.4548010000000 1.0
C      1  0.4808210000000  0.5358560000000  0.5383910000000 1.0
C      1  0.4611370000000  0.4993620000000  0.4440480000000 1.0
C      1  0.4258610000000  0.4900030000000  0.5397050000000 1.0
C      1  0.5189320000000  0.5577460000000  0.4513850000000 1.0
C      1  0.5103430000000  0.4426230000000  0.5020980000000 1.0
C      1  0.4694250000000  0.5091080000000  0.5374970000000 1.0
C      1  0.4436420000000  0.4569890000000  0.4638010000000 1.0
C      1  0.4521250000000  0.4951510000000  0.4943070000000 1.0
C      1  0.5279660000000  0.5209600000000  0.5085070000000 1.0
C      1  0.4575790000000  0.5569130000000  0.5434430000000 1.0
C      1  0.5059980000000  0.5180580000000  0.5767800000000 1.0
C      1  0.4798430000000  0.5135400000000  0.4247570000000 1.0
C      1  0.5421060000000  0.5429870000000  0.5277300000000 1.0
C      1  0.5642660000000  0.4717940000000  0.5442660000000 1.0
C      1  0.5521370000000  0.5174630000000  0.5692160000000 1.0
C      1  0.4858330000000  0.4326550000000  0.5187660000000 1.0
C      1  0.4922850000000  0.4599520000000  0.4307860000000 1.0
C      1  0.5214750000000  0.5556040000000  0.5458910000000 1.0
C      1  0.4968970000000  0.4727980000000  0.5782960000000 1.0
C      1  0.4718220000000  0.5562090000000  0.4509010000000 1.0
C      1  0.4880200000000  0.4912220000000  0.5237690000000 1.0
C      1  0.5313200000000  0.4843440000000  0.4830980000000 1.0
C      1  0.5069830000000  0.5081160000000  0.4267220000000 1.0
C      1  0.5620970000000  0.5442240000000  0.4515420000000 1.0
C      1  0.4358630000000  0.4440980000000  0.5079060000000 1.0
C      1  0.5238760000000  0.4719840000000  0.5068820000000 1.0
C      1  0.5014580000000  0.4341290000000  0.4303660000000 1.0
C      1  0.4741780000000  0.5799850000000  0.5043080000000 1.0
C      1  0.5825770000000  0.4958290000000  0.4610990000000 1.0
C      1  0.5253880000000  0.4761630000000  0.5766890000000 1.0
C      1  0.4785320000000  0.5787450000000  0.5324530000000 1.0
C      1  0.5594700000000  0.4278600000000  0.4543740000000 1.0
C      1  0.5152350000000  0.4945410000000  0.5222300000000 1.0
C      1  0.5197270000000  0.5803150000000  0.5069050000000 1.0
C      1  0.4860300000000  0.4512740000000  0.5626850000000 1.0
C      1  0.5485550000000  0.4334990000000  0.5216850000000 1.0
C      1  0.4943970000000  0.4396160000000  0.4770150000000 1.0
C      1  0.5739730000000  0.4984080000000  0.5382540000000 1.0
C      1  0.4381890000000  0.4691540000000  0.5591440000000 1.0
C      1  0.4552740000000  0.5405770000000  0.5664270000000 1.0
C      1  0.5605610000000  0.4983670000000  0.4428330000000 1.0
C      1  0.4587870000000  0.5110160000000  0.5695950000000 1.0
C      1  0.5691480000000  0.4542690000000  0.5221320000000 1.0
C      1  0.4111480000000  0.5021880000000  0.4747810000000 1.0
C      1  0.4141890000000  0.5193270000000  0.4526940000000 1.0
C      1  0.4732190000000  0.4249090000000  0.4907750000000 1.0
C      1  0.5806980000000  0.4703010000000  0.4722970000000 1.0
C      1  0.5311210000000  0.5043210000000  0.5792370000000 1.0
C      1  0.4068850000000  0.4855730000000  0.5187070000000 1.0
C      1  0.4242860000000  0.5287170000000  0.5174560000000 1.0
C      1  0.5836840000000  0.4683820000000  0.5017020000000 1.0
C      1  0.4578740000000  0.5561770000000  0.4983860000000 1.0
C      1  0.5904160000000  0.4935720000000  0.5144260000000 1.0
C      1  0.4657050000000  0.5132810000000  0.4718320000000 1.0
C      1  0.4729160000000  0.4761960000000  0.5026810000000 1.0
C      1  0.5420700000000  0.4606430000000  0.5596800000000 1.0
C      1  0.5310540000000  0.4389800000000  0.5445400000000 1.0
C      1  0.5020650000000  0.4357180000000  0.5445170000000 1.0
C      1  0.4387040000000  0.5527840000000  0.5199530000000 1.0
C      1  0.4953730000000  0.5706460000000  0.4605820000000 1.0
C      1  0.5917360000000  0.5189240000000  0.4767740000000 1.0
C      1  0.5140720000000  0.4810170000000  0.4370520000000 1.0
C      1  0.5633250000000  0.4551920000000  0.4531660000000 1.0
C      1  0.5372500000000  0.4217310000000  0.4696200000000 1.0
C      1  0.4670760000000  0.4696490000000  0.4495390000000 1.0
C      1  0.4396970000000  0.5207990000000  0.4353140000000 1.0
C      1  0.4972600000000  0.5828890000000  0.4873250000000 1.0
C      1  0.4550370000000  0.5439280000000  0.4715630000000 1.0
C      1  0.4615800000000  0.4503300000000  0.5226900000000 1.0
C      1  0.4852440000000  0.4681510000000  0.4747970000000 1.0
C      1  0.4969430000000  0.5146830000000  0.4714530000000 1.0
C      1  0.4067880000000  0.5104430000000  0.5026960000000 1.0
C      1  0.5185230000000  0.5277780000000  0.4463710000000 1.0
C      1  0.4601200000000  0.4543050000000  0.5516000000000 1.0
C      1  0.4167270000000  0.4643780000000  0.5023090000000 1.0
C      1  0.4348530000000  0.4941880000000  0.5682760000000 1.0
C      1  0.4833640000000  0.5395490000000  0.5094650000000 1.0
C      1  0.5335920000000  0.4254660000000  0.4985870000000 1.0
C      1  0.4438440000000  0.5067180000000  0.5223360000000 1.0
C      1  0.5614110000000  0.5646230000000  0.4844980000000 1.0
C      1  0.5458550000000  0.5663230000000  0.5077870000000 1.0
C      1  0.4278020000000  0.4773920000000  0.4785490000000 1.0
C      1  0.5071650000000  0.4867360000000  0.4674750000000 1.0
C      1  0.5038550000000  0.5280230000000  0.4953810000000 1.0
C      1  0.5802770000000  0.5448310000000  0.4727570000000 1.0
C      1  0.5457130000000  0.5206760000000  0.4528730000000 1.0
C      1  0.4478710000000  0.4360730000000  0.4838520000000 1.0
C      1  0.5029820000000  0.5390550000000  0.5586580000000 1.0
C      1  0.5446090000000  0.5652690000000  0.4596580000000 1.0
C      1  0.4658560000000  0.5376820000000  0.4292340000000 1.0
C      1  0.4847310000000  0.4998800000000  0.5804680000000 1.0
C      1  0.5438920000000  0.5098940000000  0.4863350000000 1.0
END
