TITL C-68076-2988-2 63.5076973273712 125000 -240.52532022246 0 0 36 (C1) n - 1
REM
REM in /rds/project/t2_vol4/rds-t2-cs072/BORA/CARBON/from-Arr/AIRSS/Generating-Clusters/GAP-ML-2020/Only-C1/SD-CG/HFTN-CG
REM
REM
REM
REM
REM
REM ./C.cell (11c1c37f851c82e70ff6c80c92926a4b)
REM AIRSS Version 0.9.1 bugfix July 2018 build 013d7b7c2542+ Fri, 06 Jul 2018 19:26:36 +0100
REM compiler GCC version 9.3.0
REM options -cpp -mtune=generic -march=x86-64 -g -O0
REM seed 1723726736 -96521478 -1202938997 -1314507245 -1353277090 204317854 1101076310 1494689004 -517397474 1552338726 1897111968 -983430233 -226444312 1810305789 -1697734689 -1041063221 -610474376 -698380496 1409742063 1282474095 -1812926577 538720348 -471703952 222448497 -304600948 602382058 2023453716 127260027 1428329242 1170902264 1707897872 -1851124541 -331894967
REM
CELL 1.54180   50.00000   50.00000   50.00000   90.00000   90.00000   90.00000
LATT -1
SFAC C  
C      1  0.5072720000000  0.4670520000000  0.4618280000000 1.0
C      1  0.4582710000000  0.5075170000000  0.5263640000000 1.0
C      1  0.5564070000000  0.5271270000000  0.4859630000000 1.0
C      1  0.5246070000000  0.5200530000000  0.5521280000000 1.0
C      1  0.5512100000000  0.4528750000000  0.4783210000000 1.0
C      1  0.4714160000000  0.4965930000000  0.5493510000000 1.0
C      1  0.4656660000000  0.5226670000000  0.4565190000000 1.0
C      1  0.5074940000000  0.4621700000000  0.5473190000000 1.0
C      1  0.4840450000000  0.5488480000000  0.5063210000000 1.0
C      1  0.4801020000000  0.4598030000000  0.4691840000000 1.0
C      1  0.4651220000000  0.4979160000000  0.4438670000000 1.0
C      1  0.4463900000000  0.4917360000000  0.4840350000000 1.0
C      1  0.4920650000000  0.5565370000000  0.4791750000000 1.0
C      1  0.4521760000000  0.5198600000000  0.4821190000000 1.0
C      1  0.5620050000000  0.5000520000000  0.4959990000000 1.0
C      1  0.5136310000000  0.5503340000000  0.5142090000000 1.0
C      1  0.4669460000000  0.4626560000000  0.5172780000000 1.0
C      1  0.4808790000000  0.5084790000000  0.5725510000000 1.0
C      1  0.4903740000000  0.5372760000000  0.4581790000000 1.0
C      1  0.5547010000000  0.5226130000000  0.5130820000000 1.0
C      1  0.5096070000000  0.4447960000000  0.5018990000000 1.0
C      1  0.5343440000000  0.5381900000000  0.4719520000000 1.0
C      1  0.4505780000000  0.4846530000000  0.5105500000000 1.0
C      1  0.4817340000000  0.4711530000000  0.5410900000000 1.0
C      1  0.5103000000000  0.4950980000000  0.4747400000000 1.0
C      1  0.5057630000000  0.5139810000000  0.5677110000000 1.0
C      1  0.5603020000000  0.4740430000000  0.4897990000000 1.0
C      1  0.5143700000000  0.5206990000000  0.4609330000000 1.0
C      1  0.5189420000000  0.4507620000000  0.5273150000000 1.0
C      1  0.5321860000000  0.5322350000000  0.5290290000000 1.0
C      1  0.4818130000000  0.4508290000000  0.4959860000000 1.0
C      1  0.4622810000000  0.5300650000000  0.5079510000000 1.0
C      1  0.5241500000000  0.4502030000000  0.4776730000000 1.0
C      1  0.5034170000000  0.4953660000000  0.5001210000000 1.0
C      1  0.5205050000000  0.5580780000000  0.4873020000000 1.0
C      1  0.4589300000000  0.4776830000000  0.4621580000000 1.0
END
