TITL C-68073-3016-7 -0.20393579469052 125000 -697.64015787552 0 0 100 (C1) n - 1
REM
REM in /rds/project/t2_vol4/rds-t2-cs072/BORA/CARBON/from-Arr/AIRSS/Generating-Clusters/GAP-ML-2020/Only-C1/SD-CG/HFTN-CG
REM
REM
REM
REM
REM
REM ./C.cell (11c1c37f851c82e70ff6c80c92926a4b)
REM AIRSS Version 0.9.1 bugfix July 2018 build 013d7b7c2542+ Fri, 06 Jul 2018 19:26:36 +0100
REM compiler GCC version 9.3.0
REM options -cpp -mtune=generic -march=x86-64 -g -O0
REM seed 2096473001 -670563827 -832294394 311813086 -464558940 177863908 572113287 -1310209568 -1488826303 1875623758 1326891500 -277800924 -1943520952 -128913956 -2025611208 -1689491182 -394597761 128104438 192452550 1355500452 579212717 -306577183 336919430 279059163 46924890 392644975 -384045368 1802421208 970722362 -153109884 -2118083203 1466331393 1941900205
REM
CELL 1.54180   50.00000   50.00000   50.00000   90.00000   90.00000   90.00000
LATT -1
SFAC C  
C      1  0.4911870000000  0.5230810000000  0.4697380000000 1.0
C      1  0.5074100000000  0.5682200000000  0.4487650000000 1.0
C      1  0.4680030000000  0.5489250000000  0.5541520000000 1.0
C      1  0.5295600000000  0.4668710000000  0.4934980000000 1.0
C      1  0.5519410000000  0.5859960000000  0.4861900000000 1.0
C      1  0.5608440000000  0.4615910000000  0.4511730000000 1.0
C      1  0.5351360000000  0.5609070000000  0.4476300000000 1.0
C      1  0.4865570000000  0.4862350000000  0.4192860000000 1.0
C      1  0.5510020000000  0.5139370000000  0.4391260000000 1.0
C      1  0.5263190000000  0.5256830000000  0.4945430000000 1.0
C      1  0.5414380000000  0.5180720000000  0.5649000000000 1.0
C      1  0.5643430000000  0.5135140000000  0.4647470000000 1.0
C      1  0.5517680000000  0.4473180000000  0.4923260000000 1.0
C      1  0.4472750000000  0.5780880000000  0.5100070000000 1.0
C      1  0.5713340000000  0.4646010000000  0.4765840000000 1.0
C      1  0.5282770000000  0.5979920000000  0.4984020000000 1.0
C      1  0.4843000000000  0.4201770000000  0.4708710000000 1.0
C      1  0.5765850000000  0.4936080000000  0.4817120000000 1.0
C      1  0.4452950000000  0.4727370000000  0.4347920000000 1.0
C      1  0.5349210000000  0.4683900000000  0.4425270000000 1.0
C      1  0.4939830000000  0.5707500000000  0.4754350000000 1.0
C      1  0.5393070000000  0.4458780000000  0.5439080000000 1.0
C      1  0.4185750000000  0.4746220000000  0.5022110000000 1.0
C      1  0.4739410000000  0.5089920000000  0.5754880000000 1.0
C      1  0.5060110000000  0.4578300000000  0.4779290000000 1.0
C      1  0.5557250000000  0.5362570000000  0.4828340000000 1.0
C      1  0.4458870000000  0.5313170000000  0.4928210000000 1.0
C      1  0.5189720000000  0.4827150000000  0.5160620000000 1.0
C      1  0.4627880000000  0.4503590000000  0.4382000000000 1.0
C      1  0.4706090000000  0.4728980000000  0.5469610000000 1.0
C      1  0.4617330000000  0.4850890000000  0.4796600000000 1.0
C      1  0.4218460000000  0.5020290000000  0.5065170000000 1.0
C      1  0.5350700000000  0.4930870000000  0.4266070000000 1.0
C      1  0.4736230000000  0.5739830000000  0.5420690000000 1.0
C      1  0.5012160000000  0.5435220000000  0.4889030000000 1.0
C      1  0.4993250000000  0.5696200000000  0.5269510000000 1.0
C      1  0.4390000000000  0.4399220000000  0.4789640000000 1.0
C      1  0.5195210000000  0.5378820000000  0.5619070000000 1.0
C      1  0.5828790000000  0.5075610000000  0.5076700000000 1.0
C      1  0.5494740000000  0.5882450000000  0.5142670000000 1.0
C      1  0.5048290000000  0.4105930000000  0.5175800000000 1.0
C      1  0.4917480000000  0.4590030000000  0.5926070000000 1.0
C      1  0.4532020000000  0.5903770000000  0.5317410000000 1.0
C      1  0.4213970000000  0.5171290000000  0.4829220000000 1.0
C      1  0.5516580000000  0.5629090000000  0.4702880000000 1.0
C      1  0.4744500000000  0.4998230000000  0.5259470000000 1.0
C      1  0.5099410000000  0.5046700000000  0.4787540000000 1.0
C      1  0.4837490000000  0.4815260000000  0.5730650000000 1.0
C      1  0.5801420000000  0.5009990000000  0.5366630000000 1.0
C      1  0.5488250000000  0.4327310000000  0.5187660000000 1.0
C      1  0.4481990000000  0.5606920000000  0.4891800000000 1.0
C      1  0.4244650000000  0.4798070000000  0.4528240000000 1.0
C      1  0.4449940000000  0.4398100000000  0.5075070000000 1.0
C      1  0.5303440000000  0.4143530000000  0.5064950000000 1.0
C      1  0.4302970000000  0.4586040000000  0.5224560000000 1.0
C      1  0.4604790000000  0.4329100000000  0.4608620000000 1.0
C      1  0.5555050000000  0.4688200000000  0.5574040000000 1.0
C      1  0.5805960000000  0.4772870000000  0.5508710000000 1.0
C      1  0.4219720000000  0.4625730000000  0.4756730000000 1.0
C      1  0.5380750000000  0.4896970000000  0.5681020000000 1.0
C      1  0.4811400000000  0.4671360000000  0.4900470000000 1.0
C      1  0.4296930000000  0.4902900000000  0.5619340000000 1.0
C      1  0.5037400000000  0.5853530000000  0.4999860000000 1.0
C      1  0.4958960000000  0.5205230000000  0.5328690000000 1.0
C      1  0.4919200000000  0.5509960000000  0.4321600000000 1.0
C      1  0.4870270000000  0.4492590000000  0.5357320000000 1.0
C      1  0.5231500000000  0.5113460000000  0.5207600000000 1.0
C      1  0.5099750000000  0.5031140000000  0.4169110000000 1.0
C      1  0.5748840000000  0.5344310000000  0.5061470000000 1.0
C      1  0.5654440000000  0.5235230000000  0.5496230000000 1.0
C      1  0.4913110000000  0.5436500000000  0.5154650000000 1.0
C      1  0.4886880000000  0.4586610000000  0.4282750000000 1.0
C      1  0.4602380000000  0.4955510000000  0.4273040000000 1.0
C      1  0.5341000000000  0.4256710000000  0.4795240000000 1.0
C      1  0.5000110000000  0.4230650000000  0.5429160000000 1.0
C      1  0.4903080000000  0.5304060000000  0.5619450000000 1.0
C      1  0.5212510000000  0.4288280000000  0.5616610000000 1.0
C      1  0.4852490000000  0.4184290000000  0.4992710000000 1.0
C      1  0.5233030000000  0.5608940000000  0.5446700000000 1.0
C      1  0.4402300000000  0.4702450000000  0.5467430000000 1.0
C      1  0.4921730000000  0.4905110000000  0.5029330000000 1.0
C      1  0.5221770000000  0.4800740000000  0.4691250000000 1.0
C      1  0.4514290000000  0.5187350000000  0.4444670000000 1.0
C      1  0.5369040000000  0.5377300000000  0.4315900000000 1.0
C      1  0.5674380000000  0.5452260000000  0.5318870000000 1.0
C      1  0.4470050000000  0.5113290000000  0.5663820000000 1.0
C      1  0.5485640000000  0.5671070000000  0.5333060000000 1.0
C      1  0.4469180000000  0.5164010000000  0.5197680000000 1.0
C      1  0.5141620000000  0.4640930000000  0.5379180000000 1.0
C      1  0.4250960000000  0.5077770000000  0.4565580000000 1.0
C      1  0.4736540000000  0.4427410000000  0.5100300000000 1.0
C      1  0.5121110000000  0.4482610000000  0.5801000000000 1.0
C      1  0.5107820000000  0.5317980000000  0.4204950000000 1.0
C      1  0.5129340000000  0.4478170000000  0.4381920000000 1.0
C      1  0.5102660000000  0.4323860000000  0.4631610000000 1.0
C      1  0.4654780000000  0.5644500000000  0.4666980000000 1.0
C      1  0.4464440000000  0.5313350000000  0.5463100000000 1.0
C      1  0.5128210000000  0.4761440000000  0.5649000000000 1.0
C      1  0.4635220000000  0.5143780000000  0.4730000000000 1.0
C      1  0.4647160000000  0.5475220000000  0.4432000000000 1.0
END
