TITL C-68064-2926-2 -6.79037197499832 125000 -67.4772492362066 0 0 11 (C1) n - 1
REM
REM in /rds/project/t2_vol4/rds-t2-cs072/BORA/CARBON/from-Arr/AIRSS/Generating-Clusters/GAP-ML-2020/Only-C1/SD-CG/HFTN-CG
REM
REM
REM
REM
REM
REM ./C.cell (11c1c37f851c82e70ff6c80c92926a4b)
REM AIRSS Version 0.9.1 bugfix July 2018 build 013d7b7c2542+ Fri, 06 Jul 2018 19:26:36 +0100
REM compiler GCC version 9.3.0
REM options -cpp -mtune=generic -march=x86-64 -g -O0
REM seed 928627717 451597654 -1681341797 1885910590 -394705233 -37885409 1283120647 -1409384072 -1625567401 1662380029 -1825695280 -1087828994 520781995 -1205064874 -16168626 -1441809686 654039914 -871138831 1504357972 1976551023 1632594735 -1122961937 -156357928 -1644454752 1045810059 1975458432 1167328979 -78143060 -1509936230 40322538 -368182106 -1551544947 679197104
REM
CELL 1.54180   50.00000   50.00000   50.00000   90.00000   90.00000   90.00000
LATT -1
SFAC C  
C      1  0.5307890000000  0.5170200000000  0.5151670000000 1.0
C      1  0.4930890000000  0.5225540000000  0.4873130000000 1.0
C      1  0.4572070000000  0.4799090000000  0.5168670000000 1.0
C      1  0.4841540000000  0.5202980000000  0.5329450000000 1.0
C      1  0.5356940000000  0.4958000000000  0.5019360000000 1.0
C      1  0.4725220000000  0.5075080000000  0.4758320000000 1.0
C      1  0.5229450000000  0.4549580000000  0.4735920000000 1.0
C      1  0.4978820000000  0.5054030000000  0.4653270000000 1.0
C      1  0.5317040000000  0.4735670000000  0.4897050000000 1.0
C      1  0.5038220000000  0.5239440000000  0.5136060000000 1.0
C      1  0.4701930000000  0.4990390000000  0.5277110000000 1.0
END
