TITL C-68053-2901-6 0.0871478793151503 125000 -321.678247206241 0 0 48 (C1) n - 1
REM
REM in /rds/project/t2_vol4/rds-t2-cs072/BORA/CARBON/from-Arr/AIRSS/Generating-Clusters/GAP-ML-2020/Only-C1/SD-CG/HFTN-CG
REM
REM
REM
REM
REM
REM ./C.cell (11c1c37f851c82e70ff6c80c92926a4b)
REM AIRSS Version 0.9.1 bugfix July 2018 build 013d7b7c2542+ Fri, 06 Jul 2018 19:26:36 +0100
REM compiler GCC version 9.3.0
REM options -cpp -mtune=generic -march=x86-64 -g -O0
REM seed -1141501872 -1297492640 1335835879 492447541 -251570909 703331876 -618095932 -2047489368 -630007945 -1404683123 685358539 1115084643 -887253895 667782197 -1352283564 -308938445 -198021924 -212919346 -651124577 -169417183 -566368740 -867924315 -1453013086 -728679317 1557106653 -683884264 82922579 -1452034698 -697301226 -388337333 1625766870 -2220637 1150773740
REM
CELL 1.54180   50.00000   50.00000   50.00000   90.00000   90.00000   90.00000
LATT -1
SFAC C  
C      1  0.5248480000000  0.5259350000000  0.4498300000000 1.0
C      1  0.5589570000000  0.5404390000000  0.5057970000000 1.0
C      1  0.5148850000000  0.5595940000000  0.4815170000000 1.0
C      1  0.4741620000000  0.4482810000000  0.4824840000000 1.0
C      1  0.5130180000000  0.4742840000000  0.4752420000000 1.0
C      1  0.4981770000000  0.4904270000000  0.5634830000000 1.0
C      1  0.4991780000000  0.4766770000000  0.5183950000000 1.0
C      1  0.4610050000000  0.4948480000000  0.5443140000000 1.0
C      1  0.5064190000000  0.4803950000000  0.4477440000000 1.0
C      1  0.4905220000000  0.5317040000000  0.5376150000000 1.0
C      1  0.4420150000000  0.4976020000000  0.5248360000000 1.0
C      1  0.4707270000000  0.4452280000000  0.5336610000000 1.0
C      1  0.5695620000000  0.5128720000000  0.5116870000000 1.0
C      1  0.4591790000000  0.4522480000000  0.5081700000000 1.0
C      1  0.5005160000000  0.5180150000000  0.4917440000000 1.0
C      1  0.5114680000000  0.5056730000000  0.4365950000000 1.0
C      1  0.4887150000000  0.5555760000000  0.4939090000000 1.0
C      1  0.5347940000000  0.4919190000000  0.4904480000000 1.0
C      1  0.5619790000000  0.4877810000000  0.5002590000000 1.0
C      1  0.4541130000000  0.5183270000000  0.4852540000000 1.0
C      1  0.5428980000000  0.4890370000000  0.5419910000000 1.0
C      1  0.4797960000000  0.5131000000000  0.5560810000000 1.0
C      1  0.5555940000000  0.4674980000000  0.5233760000000 1.0
C      1  0.5111040000000  0.4469000000000  0.5131130000000 1.0
C      1  0.5247850000000  0.4888230000000  0.5643440000000 1.0
C      1  0.4695710000000  0.4957040000000  0.4246080000000 1.0
C      1  0.4600380000000  0.4897210000000  0.4835470000000 1.0
C      1  0.4849580000000  0.5176600000000  0.4285950000000 1.0
C      1  0.5390180000000  0.4478560000000  0.5173450000000 1.0
C      1  0.4905780000000  0.4900520000000  0.4924460000000 1.0
C      1  0.4421660000000  0.5234310000000  0.5104320000000 1.0
C      1  0.4462470000000  0.4768310000000  0.5059160000000 1.0
C      1  0.4638080000000  0.4672390000000  0.4641000000000 1.0
C      1  0.5578060000000  0.5139840000000  0.5372890000000 1.0
C      1  0.4497720000000  0.5466380000000  0.5223890000000 1.0
C      1  0.5133230000000  0.5227570000000  0.5215890000000 1.0
C      1  0.5029560000000  0.4479820000000  0.4844860000000 1.0
C      1  0.4921540000000  0.4297500000000  0.5281850000000 1.0
C      1  0.4845710000000  0.5399270000000  0.4487410000000 1.0
C      1  0.5103180000000  0.5504900000000  0.4527350000000 1.0
C      1  0.5221890000000  0.4944770000000  0.5193490000000 1.0
C      1  0.4817440000000  0.4739670000000  0.5436050000000 1.0
C      1  0.5286110000000  0.5182680000000  0.4778480000000 1.0
C      1  0.5406260000000  0.5353690000000  0.5276550000000 1.0
C      1  0.4765540000000  0.5509510000000  0.5216880000000 1.0
C      1  0.4783040000000  0.4750560000000  0.4413820000000 1.0
C      1  0.5393630000000  0.5438970000000  0.4876690000000 1.0
C      1  0.4769080000000  0.5348120000000  0.4765100000000 1.0
END
