TITL C-68081-2807-6 0.211758895371283 125000 -613.021696487909 0 0 89 (C1) n - 1
REM
REM in /rds/project/t2_vol4/rds-t2-cs072/BORA/CARBON/from-Arr/AIRSS/Generating-Clusters/GAP-ML-2020/Only-C1/SD-CG/HFTN-CG
REM
REM
REM
REM
REM
REM ./C.cell (11c1c37f851c82e70ff6c80c92926a4b)
REM AIRSS Version 0.9.1 bugfix July 2018 build 013d7b7c2542+ Fri, 06 Jul 2018 19:26:36 +0100
REM compiler GCC version 9.3.0
REM options -cpp -mtune=generic -march=x86-64 -g -O0
REM seed 172784332 -888402414 -979068580 1872445841 -1814552762 2092177200 -1291620635 -1827144843 -414447360 1135000754 -800190550 -712826157 318114953 836233009 610206083 -920114538 -1511100961 1762052483 1224264751 405283200 1009959920 -282880073 -613455314 -1758717540 1060640856 989292695 1834895447 1979246646 1196109816 -394790089 -1031611510 73335569 -1443506853
REM
CELL 1.54180   50.00000   50.00000   50.00000   90.00000   90.00000   90.00000
LATT -1
SFAC C  
C      1  0.5399720000000  0.5304400000000  0.5629480000000 1.0
C      1  0.4800930000000  0.4538570000000  0.4352400000000 1.0
C      1  0.5244210000000  0.4702140000000  0.5054450000000 1.0
C      1  0.5109790000000  0.5296900000000  0.5571900000000 1.0
C      1  0.4646880000000  0.4999310000000  0.4398720000000 1.0
C      1  0.4835050000000  0.5466080000000  0.4921120000000 1.0
C      1  0.4467650000000  0.4646690000000  0.5181940000000 1.0
C      1  0.4417880000000  0.4801600000000  0.4447700000000 1.0
C      1  0.5496550000000  0.5135850000000  0.5834430000000 1.0
C      1  0.5579190000000  0.4988410000000  0.5328110000000 1.0
C      1  0.4628240000000  0.5333780000000  0.5626630000000 1.0
C      1  0.5273090000000  0.5777630000000  0.4669700000000 1.0
C      1  0.5529100000000  0.5671570000000  0.5110130000000 1.0
C      1  0.5055750000000  0.5785380000000  0.5236820000000 1.0
C      1  0.4726650000000  0.4970230000000  0.4903880000000 1.0
C      1  0.4846110000000  0.5732330000000  0.5430970000000 1.0
C      1  0.5715470000000  0.5279490000000  0.4905920000000 1.0
C      1  0.5595760000000  0.5265170000000  0.5386610000000 1.0
C      1  0.4964310000000  0.5002680000000  0.5620720000000 1.0
C      1  0.4898090000000  0.4806850000000  0.4369860000000 1.0
C      1  0.4544910000000  0.4577170000000  0.5718330000000 1.0
C      1  0.5551680000000  0.4531280000000  0.4713920000000 1.0
C      1  0.5054660000000  0.5584560000000  0.4311990000000 1.0
C      1  0.5074200000000  0.5304700000000  0.4830830000000 1.0
C      1  0.5360790000000  0.4481190000000  0.4511630000000 1.0
C      1  0.5506170000000  0.5421110000000  0.4447880000000 1.0
C      1  0.5650200000000  0.4804790000000  0.4675130000000 1.0
C      1  0.4855470000000  0.5693410000000  0.4487170000000 1.0
C      1  0.4395430000000  0.4364360000000  0.5084750000000 1.0
C      1  0.4872340000000  0.5502590000000  0.5610160000000 1.0
C      1  0.4392010000000  0.5157300000000  0.5201020000000 1.0
C      1  0.4566440000000  0.5396730000000  0.4767670000000 1.0
C      1  0.4681880000000  0.5095410000000  0.5165530000000 1.0
C      1  0.5665760000000  0.5414100000000  0.5159640000000 1.0
C      1  0.4640190000000  0.5765190000000  0.5226500000000 1.0
C      1  0.5487820000000  0.4351940000000  0.4949230000000 1.0
C      1  0.4726620000000  0.4697760000000  0.5013350000000 1.0
C      1  0.5233560000000  0.5202770000000  0.5043560000000 1.0
C      1  0.5508090000000  0.5702560000000  0.4823940000000 1.0
C      1  0.4987330000000  0.5322390000000  0.4217940000000 1.0
C      1  0.4549230000000  0.4241840000000  0.5299810000000 1.0
C      1  0.4917910000000  0.4975440000000  0.5327460000000 1.0
C      1  0.4821080000000  0.5345210000000  0.5175470000000 1.0
C      1  0.5601260000000  0.4905600000000  0.5794210000000 1.0
C      1  0.4871360000000  0.5756270000000  0.4991150000000 1.0
C      1  0.5364490000000  0.4703040000000  0.4317410000000 1.0
C      1  0.4705860000000  0.5075260000000  0.5731520000000 1.0
C      1  0.5139770000000  0.4854490000000  0.4212570000000 1.0
C      1  0.4877940000000  0.4317170000000  0.4518480000000 1.0
C      1  0.5070570000000  0.5233700000000  0.5274560000000 1.0
C      1  0.5062200000000  0.4303550000000  0.5409030000000 1.0
C      1  0.4595590000000  0.4500370000000  0.5434660000000 1.0
C      1  0.5312120000000  0.5740460000000  0.5258410000000 1.0
C      1  0.4558910000000  0.4230960000000  0.4882540000000 1.0
C      1  0.4381540000000  0.5401750000000  0.5005210000000 1.0
C      1  0.4284560000000  0.4936670000000  0.4675670000000 1.0
C      1  0.4547770000000  0.5093940000000  0.4699990000000 1.0
C      1  0.5450780000000  0.4510520000000  0.5173410000000 1.0
C      1  0.5587530000000  0.4791180000000  0.5535360000000 1.0
C      1  0.4798750000000  0.4621160000000  0.5861590000000 1.0
C      1  0.5546090000000  0.4894810000000  0.4415270000000 1.0
C      1  0.5179650000000  0.4631600000000  0.4762240000000 1.0
C      1  0.5037580000000  0.4191040000000  0.5139920000000 1.0
C      1  0.5232310000000  0.4459340000000  0.5590670000000 1.0
C      1  0.4642420000000  0.5501330000000  0.4493810000000 1.0
C      1  0.4271070000000  0.4883460000000  0.5148030000000 1.0
C      1  0.4717220000000  0.5273150000000  0.4316250000000 1.0
C      1  0.5647250000000  0.4996380000000  0.4885920000000 1.0
C      1  0.5131750000000  0.4334800000000  0.4654980000000 1.0
C      1  0.5225170000000  0.4221720000000  0.4911300000000 1.0
C      1  0.4424370000000  0.5369630000000  0.5426760000000 1.0
C      1  0.5471050000000  0.4541630000000  0.5457590000000 1.0
C      1  0.4892660000000  0.4546180000000  0.5420680000000 1.0
C      1  0.4965640000000  0.4716900000000  0.5188540000000 1.0
C      1  0.5420100000000  0.4956660000000  0.5074710000000 1.0
C      1  0.5057310000000  0.4843400000000  0.4630650000000 1.0
C      1  0.4599930000000  0.4830310000000  0.5821240000000 1.0
C      1  0.5634940000000  0.5471680000000  0.4702040000000 1.0
C      1  0.4525680000000  0.4537000000000  0.4442120000000 1.0
C      1  0.4604260000000  0.4304140000000  0.4616580000000 1.0
C      1  0.4984780000000  0.5818470000000  0.4719750000000 1.0
C      1  0.5456090000000  0.5164180000000  0.4330840000000 1.0
C      1  0.5307810000000  0.5628210000000  0.4424530000000 1.0
C      1  0.5016540000000  0.4673420000000  0.5681250000000 1.0
C      1  0.4989550000000  0.5045920000000  0.4797410000000 1.0
C      1  0.5199830000000  0.5130910000000  0.4199800000000 1.0
C      1  0.4146510000000  0.4877310000000  0.4900110000000 1.0
C      1  0.4750770000000  0.4163120000000  0.5101070000000 1.0
C      1  0.4436480000000  0.5578340000000  0.5225750000000 1.0
END
