TITL C-68066-2927-6 -0.0785735457099892 125000 -289.328564381339 0 0 44 (C1) n - 1
REM
REM in /rds/project/t2_vol4/rds-t2-cs072/BORA/CARBON/from-Arr/AIRSS/Generating-Clusters/GAP-ML-2020/Only-C1/SD-CG/HFTN-CG
REM
REM
REM
REM
REM
REM ./C.cell (11c1c37f851c82e70ff6c80c92926a4b)
REM AIRSS Version 0.9.1 bugfix July 2018 build 013d7b7c2542+ Fri, 06 Jul 2018 19:26:36 +0100
REM compiler GCC version 9.3.0
REM options -cpp -mtune=generic -march=x86-64 -g -O0
REM seed 2127468117 -642362502 895712625 558742828 1242811764 1945322751 -2100133524 888043945 -683689825 1418441530 -1602431842 -1621693759 -1703668527 575036436 1483019971 -679065877 22347424 176543782 -1344523716 924169734 198224107 -928586769 701759001 76334100 1778606685 587711095 -463994667 2120518374 483989187 60618987 1230778948 815438402 -437676651
REM
CELL 1.54180   50.00000   50.00000   50.00000   90.00000   90.00000   90.00000
LATT -1
SFAC C  
C      1  0.5122590000000  0.4479860000000  0.5273280000000 1.0
C      1  0.4706760000000  0.4925790000000  0.4502780000000 1.0
C      1  0.5476770000000  0.5291370000000  0.4924870000000 1.0
C      1  0.4644240000000  0.5559280000000  0.4915140000000 1.0
C      1  0.5507800000000  0.5059680000000  0.5544470000000 1.0
C      1  0.4575610000000  0.4701740000000  0.4607010000000 1.0
C      1  0.5219760000000  0.4931820000000  0.4655830000000 1.0
C      1  0.4499960000000  0.5364940000000  0.5072140000000 1.0
C      1  0.5431810000000  0.4764920000000  0.4734740000000 1.0
C      1  0.5279740000000  0.5015790000000  0.5672520000000 1.0
C      1  0.5033350000000  0.5023350000000  0.5559240000000 1.0
C      1  0.5224880000000  0.5355350000000  0.4826820000000 1.0
C      1  0.5152610000000  0.5093460000000  0.4410790000000 1.0
C      1  0.5647520000000  0.5111080000000  0.5340700000000 1.0
C      1  0.5029300000000  0.5106560000000  0.4836550000000 1.0
C      1  0.4991460000000  0.4438310000000  0.5501140000000 1.0
C      1  0.5330690000000  0.4361960000000  0.5072550000000 1.0
C      1  0.4970050000000  0.4977090000000  0.5089810000000 1.0
C      1  0.5606410000000  0.4836070000000  0.4949030000000 1.0
C      1  0.4960450000000  0.4864480000000  0.4385110000000 1.0
C      1  0.4950730000000  0.5563960000000  0.4517910000000 1.0
C      1  0.5088890000000  0.4703090000000  0.5075640000000 1.0
C      1  0.4675330000000  0.4564420000000  0.4824660000000 1.0
C      1  0.5054700000000  0.5776680000000  0.4662920000000 1.0
C      1  0.5163580000000  0.4295580000000  0.4865980000000 1.0
C      1  0.4632660000000  0.4923440000000  0.5123370000000 1.0
C      1  0.4886280000000  0.5604850000000  0.5074000000000 1.0
C      1  0.4598850000000  0.5042210000000  0.5396360000000 1.0
C      1  0.4608540000000  0.5327220000000  0.5341400000000 1.0
C      1  0.5077240000000  0.4688860000000  0.4583160000000 1.0
C      1  0.4721670000000  0.5445850000000  0.4648220000000 1.0
C      1  0.4975770000000  0.4553130000000  0.4821600000000 1.0
C      1  0.5040100000000  0.5174590000000  0.5304170000000 1.0
C      1  0.5110140000000  0.5635360000000  0.4894440000000 1.0
C      1  0.4555060000000  0.5127820000000  0.4932960000000 1.0
C      1  0.4755860000000  0.4596920000000  0.5515380000000 1.0
C      1  0.5393850000000  0.4661300000000  0.5006960000000 1.0
C      1  0.4575420000000  0.4628580000000  0.5098810000000 1.0
C      1  0.4739620000000  0.5157070000000  0.4696700000000 1.0
C      1  0.4777880000000  0.4884280000000  0.5559650000000 1.0
C      1  0.4881500000000  0.5418770000000  0.5298100000000 1.0
C      1  0.5155620000000  0.5353440000000  0.4487520000000 1.0
C      1  0.4552410000000  0.4504690000000  0.5336460000000 1.0
C      1  0.5616540000000  0.5105000000000  0.5059090000000 1.0
END
