TITL C-68062-2845-5 -0.212990703903626 125000 -668.328998017417 0 0 96 (C1) n - 1
REM
REM in /rds/project/t2_vol4/rds-t2-cs072/BORA/CARBON/from-Arr/AIRSS/Generating-Clusters/GAP-ML-2020/Only-C1/SD-CG/HFTN-CG
REM
REM
REM
REM
REM
REM ./C.cell (11c1c37f851c82e70ff6c80c92926a4b)
REM AIRSS Version 0.9.1 bugfix July 2018 build 013d7b7c2542+ Fri, 06 Jul 2018 19:26:36 +0100
REM compiler GCC version 9.3.0
REM options -cpp -mtune=generic -march=x86-64 -g -O0
REM seed -320856613 475955137 -1284005085 740329124 1457899015 1978244677 2107834575 672751491 1151228862 1123197866 -1373201776 -1322286060 1108830341 -425539784 -158788111 648105291 1079301345 2125528932 -888764581 174746694 312319043 2026260130 635460738 -1349122138 -1673514796 -1180922555 289297355 72993464 -1278963250 1849211405 -624811908 683497995 -1175809686
REM
CELL 1.54180   50.00000   50.00000   50.00000   90.00000   90.00000   90.00000
LATT -1
SFAC C  
C      1  0.5683910000000  0.4579170000000  0.4786910000000 1.0
C      1  0.4648010000000  0.5587340000000  0.4785540000000 1.0
C      1  0.5827990000000  0.4953990000000  0.5260620000000 1.0
C      1  0.4846250000000  0.4155340000000  0.4898730000000 1.0
C      1  0.4938470000000  0.4812130000000  0.4249480000000 1.0
C      1  0.4898980000000  0.5697960000000  0.5213250000000 1.0
C      1  0.4935840000000  0.4735810000000  0.4851680000000 1.0
C      1  0.4315190000000  0.4632430000000  0.4979730000000 1.0
C      1  0.5753200000000  0.5244850000000  0.4875510000000 1.0
C      1  0.5633640000000  0.5160000000000  0.5141980000000 1.0
C      1  0.4657390000000  0.4372910000000  0.5288800000000 1.0
C      1  0.5653020000000  0.4513490000000  0.4520070000000 1.0
C      1  0.5084040000000  0.5243120000000  0.4370180000000 1.0
C      1  0.4894820000000  0.5714990000000  0.5508830000000 1.0
C      1  0.5197130000000  0.4240980000000  0.4600980000000 1.0
C      1  0.5187890000000  0.4678730000000  0.4730780000000 1.0
C      1  0.4614430000000  0.4267380000000  0.5022740000000 1.0
C      1  0.5608340000000  0.5085090000000  0.4465870000000 1.0
C      1  0.4470860000000  0.4532240000000  0.5430770000000 1.0
C      1  0.4433210000000  0.4403360000000  0.4855400000000 1.0
C      1  0.5598430000000  0.5700230000000  0.4881860000000 1.0
C      1  0.5515520000000  0.4985650000000  0.5630250000000 1.0
C      1  0.5219460000000  0.5123360000000  0.4882670000000 1.0
C      1  0.4505500000000  0.5481530000000  0.5527110000000 1.0
C      1  0.4539320000000  0.4724680000000  0.5639590000000 1.0
C      1  0.4934980000000  0.4768380000000  0.5150570000000 1.0
C      1  0.4633810000000  0.5652950000000  0.5077600000000 1.0
C      1  0.5196690000000  0.5783560000000  0.5147420000000 1.0
C      1  0.4374110000000  0.4955980000000  0.5602880000000 1.0
C      1  0.5772670000000  0.5739830000000  0.5108370000000 1.0
C      1  0.4715020000000  0.4926290000000  0.4415850000000 1.0
C      1  0.5140400000000  0.4313260000000  0.5272240000000 1.0
C      1  0.5269810000000  0.4799780000000  0.5575170000000 1.0
C      1  0.5787860000000  0.5030170000000  0.4689150000000 1.0
C      1  0.5297410000000  0.5586350000000  0.5337720000000 1.0
C      1  0.4916830000000  0.4485980000000  0.5311770000000 1.0
C      1  0.5321530000000  0.5749360000000  0.4895780000000 1.0
C      1  0.5415310000000  0.4700400000000  0.4905400000000 1.0
C      1  0.4149360000000  0.5107620000000  0.5218660000000 1.0
C      1  0.4646270000000  0.5704850000000  0.5622410000000 1.0
C      1  0.4262720000000  0.5162430000000  0.4378030000000 1.0
C      1  0.5050490000000  0.5349040000000  0.4920740000000 1.0
C      1  0.4748720000000  0.5095260000000  0.5835060000000 1.0
C      1  0.5378660000000  0.4973660000000  0.5068690000000 1.0
C      1  0.5036490000000  0.5199440000000  0.5385580000000 1.0
C      1  0.5141120000000  0.5595270000000  0.4711160000000 1.0
C      1  0.5489280000000  0.4414920000000  0.4996890000000 1.0
C      1  0.5171130000000  0.4993510000000  0.4243760000000 1.0
C      1  0.4450380000000  0.5508470000000  0.5236730000000 1.0
C      1  0.5880550000000  0.4792610000000  0.4830160000000 1.0
C      1  0.5065190000000  0.4836600000000  0.5784160000000 1.0
C      1  0.5414150000000  0.4405380000000  0.5284740000000 1.0
C      1  0.4227460000000  0.5336890000000  0.4807230000000 1.0
C      1  0.4320840000000  0.5287760000000  0.5084270000000 1.0
C      1  0.5036950000000  0.5123800000000  0.5847970000000 1.0
C      1  0.4267220000000  0.4646060000000  0.5264070000000 1.0
C      1  0.4910770000000  0.4198230000000  0.4623700000000 1.0
C      1  0.5660970000000  0.5468660000000  0.4731790000000 1.0
C      1  0.4220530000000  0.4839640000000  0.4695470000000 1.0
C      1  0.4524320000000  0.4497800000000  0.4581010000000 1.0
C      1  0.5166540000000  0.4935500000000  0.5283770000000 1.0
C      1  0.4968380000000  0.4538990000000  0.4314700000000 1.0
C      1  0.4384580000000  0.5516410000000  0.4645340000000 1.0
C      1  0.5998880000000  0.4843260000000  0.5075710000000 1.0
C      1  0.5441620000000  0.4907160000000  0.4307940000000 1.0
C      1  0.5144800000000  0.5593820000000  0.5586920000000 1.0
C      1  0.5255160000000  0.5437510000000  0.4474540000000 1.0
C      1  0.4314270000000  0.4693600000000  0.4466200000000 1.0
C      1  0.5524850000000  0.5362900000000  0.4505410000000 1.0
C      1  0.4763820000000  0.4372200000000  0.4453240000000 1.0
C      1  0.4552580000000  0.5192740000000  0.5630090000000 1.0
C      1  0.5789490000000  0.5609770000000  0.5327250000000 1.0
C      1  0.4325530000000  0.5434010000000  0.4383680000000 1.0
C      1  0.5081870000000  0.4956780000000  0.4709930000000 1.0
C      1  0.4882900000000  0.5704180000000  0.4675210000000 1.0
C      1  0.5481330000000  0.4600130000000  0.5476360000000 1.0
C      1  0.4581080000000  0.5102250000000  0.4979470000000 1.0
C      1  0.5181350000000  0.5310330000000  0.5662620000000 1.0
C      1  0.5469910000000  0.4622840000000  0.4352660000000 1.0
C      1  0.5552290000000  0.5392130000000  0.5352340000000 1.0
C      1  0.5684370000000  0.4816680000000  0.5477610000000 1.0
C      1  0.5050210000000  0.5426230000000  0.5197030000000 1.0
C      1  0.4868350000000  0.5141600000000  0.4549590000000 1.0
C      1  0.5101750000000  0.4161970000000  0.5036890000000 1.0
C      1  0.5313160000000  0.4225750000000  0.4860380000000 1.0
C      1  0.4203090000000  0.4903130000000  0.5380000000000 1.0
C      1  0.4765230000000  0.5111020000000  0.5421210000000 1.0
C      1  0.4769610000000  0.5279890000000  0.4802710000000 1.0
C      1  0.4424690000000  0.4926900000000  0.4330920000000 1.0
C      1  0.5465520000000  0.5255550000000  0.5604270000000 1.0
C      1  0.4682250000000  0.4740470000000  0.4691220000000 1.0
C      1  0.4707750000000  0.4962180000000  0.5197620000000 1.0
C      1  0.4469030000000  0.4856550000000  0.4855590000000 1.0
C      1  0.4770730000000  0.4803280000000  0.5792570000000 1.0
C      1  0.4148560000000  0.5113230000000  0.4647430000000 1.0
C      1  0.5223590000000  0.4492080000000  0.4450040000000 1.0
END
