TITL C-68076-2988-7 -60.0589567782999 125000 -938.384257592721 0 0 132 (C1) n - 1
REM
REM in /rds/project/t2_vol4/rds-t2-cs072/BORA/CARBON/from-Arr/AIRSS/Generating-Clusters/GAP-ML-2020/Only-C1/SD-CG/HFTN-CG
REM
REM
REM
REM
REM
REM ./C.cell (11c1c37f851c82e70ff6c80c92926a4b)
REM AIRSS Version 0.9.1 bugfix July 2018 build 013d7b7c2542+ Fri, 06 Jul 2018 19:26:36 +0100
REM compiler GCC version 9.3.0
REM options -cpp -mtune=generic -march=x86-64 -g -O0
REM seed -861810959 -1358419669 533327587 -1571813029 -861068269 1381570227 196705533 398591494 -264764692 1657574997 -673020122 176362248 -286500397 1641925272 -2136355683 1334715767 1703715155 -372225771 -938432406 -1394357483 -756036149 -1813598782 -713459328 -1294500987 -1556859184 -452336231 -279680261 36731013 -1879491591 1271690025 1466586976 -1587920311 -630828960
REM
CELL 1.54180   50.00000   50.00000   50.00000   90.00000   90.00000   90.00000
LATT -1
SFAC C  
C      1  0.5473030000000  0.4213270000000  0.4835510000000 1.0
C      1  0.5750970000000  0.4681730000000  0.4942780000000 1.0
C      1  0.5584570000000  0.5379980000000  0.5640530000000 1.0
C      1  0.4774800000000  0.5094280000000  0.4588100000000 1.0
C      1  0.4640370000000  0.5223120000000  0.5359520000000 1.0
C      1  0.6018090000000  0.5274030000000  0.5407300000000 1.0
C      1  0.4126340000000  0.5203680000000  0.4583320000000 1.0
C      1  0.4290990000000  0.5227630000000  0.4358090000000 1.0
C      1  0.5137170000000  0.5395940000000  0.5727580000000 1.0
C      1  0.4681080000000  0.4867420000000  0.4701920000000 1.0
C      1  0.5712550000000  0.4588690000000  0.4653770000000 1.0
C      1  0.4989880000000  0.4449040000000  0.4155820000000 1.0
C      1  0.4778720000000  0.5347400000000  0.4949350000000 1.0
C      1  0.5507370000000  0.4470800000000  0.5643680000000 1.0
C      1  0.5115940000000  0.5753180000000  0.4654380000000 1.0
C      1  0.4854430000000  0.4657770000000  0.4659820000000 1.0
C      1  0.4626540000000  0.5842470000000  0.5014740000000 1.0
C      1  0.5222890000000  0.4069830000000  0.4879810000000 1.0
C      1  0.5272440000000  0.5756800000000  0.5454880000000 1.0
C      1  0.4793820000000  0.4983490000000  0.5390240000000 1.0
C      1  0.5228320000000  0.4749340000000  0.4940870000000 1.0
C      1  0.4812240000000  0.4855320000000  0.5137310000000 1.0
C      1  0.4939240000000  0.5511890000000  0.5127510000000 1.0
C      1  0.5018850000000  0.4929920000000  0.5568970000000 1.0
C      1  0.5139700000000  0.4695920000000  0.4653790000000 1.0
C      1  0.4351440000000  0.4686990000000  0.5553740000000 1.0
C      1  0.4483150000000  0.5715910000000  0.4778670000000 1.0
C      1  0.4849820000000  0.4574010000000  0.5150540000000 1.0
C      1  0.4902510000000  0.5654960000000  0.4496790000000 1.0
C      1  0.5006620000000  0.4983870000000  0.4040700000000 1.0
C      1  0.4956360000000  0.5265870000000  0.4047250000000 1.0
C      1  0.4870010000000  0.5477980000000  0.5763620000000 1.0
C      1  0.4268140000000  0.4528310000000  0.4815590000000 1.0
C      1  0.5238860000000  0.5164050000000  0.5232690000000 1.0
C      1  0.4777340000000  0.4049570000000  0.5003930000000 1.0
C      1  0.5136130000000  0.5896620000000  0.4902930000000 1.0
C      1  0.4430520000000  0.4304760000000  0.4756480000000 1.0
C      1  0.4964210000000  0.4380460000000  0.5803200000000 1.0
C      1  0.5651350000000  0.5304630000000  0.5030320000000 1.0
C      1  0.5455210000000  0.5075430000000  0.4704840000000 1.0
C      1  0.5724790000000  0.5120700000000  0.4573990000000 1.0
C      1  0.5045340000000  0.4275950000000  0.4374740000000 1.0
C      1  0.4945970000000  0.4066750000000  0.4775060000000 1.0
C      1  0.4397900000000  0.4902920000000  0.5753210000000 1.0
C      1  0.4103340000000  0.5211370000000  0.5457480000000 1.0
C      1  0.4214830000000  0.4763850000000  0.5303350000000 1.0
C      1  0.5187060000000  0.5412070000000  0.4137120000000 1.0
C      1  0.4664610000000  0.4996300000000  0.5870830000000 1.0
C      1  0.4511160000000  0.4449060000000  0.5498120000000 1.0
C      1  0.4567160000000  0.4908320000000  0.4976070000000 1.0
C      1  0.5404990000000  0.5355600000000  0.4861130000000 1.0
C      1  0.5123090000000  0.4185310000000  0.5659620000000 1.0
C      1  0.4666070000000  0.5294450000000  0.5855570000000 1.0
C      1  0.5254370000000  0.4877510000000  0.4183890000000 1.0
C      1  0.4339260000000  0.4972230000000  0.4230020000000 1.0
C      1  0.5424160000000  0.4124770000000  0.5300880000000 1.0
C      1  0.4762960000000  0.4839070000000  0.4037540000000 1.0
C      1  0.5533570000000  0.4880550000000  0.5422810000000 1.0
C      1  0.5517770000000  0.5054450000000  0.5177760000000 1.0
C      1  0.4403130000000  0.5368340000000  0.5780370000000 1.0
C      1  0.4554740000000  0.4443930000000  0.5196290000000 1.0
C      1  0.5863660000000  0.5276850000000  0.4810340000000 1.0
C      1  0.5682600000000  0.5551960000000  0.5204060000000 1.0
C      1  0.4178180000000  0.4706130000000  0.4615050000000 1.0
C      1  0.5363830000000  0.4650490000000  0.5839220000000 1.0
C      1  0.5006940000000  0.5841240000000  0.5407740000000 1.0
C      1  0.4072430000000  0.5012190000000  0.5253240000000 1.0
C      1  0.4223790000000  0.5653550000000  0.5174600000000 1.0
C      1  0.4367300000000  0.4653470000000  0.5072930000000 1.0
C      1  0.5387300000000  0.4224940000000  0.5567140000000 1.0
C      1  0.4231690000000  0.5598500000000  0.4894300000000 1.0
C      1  0.5391600000000  0.5624380000000  0.4704830000000 1.0
C      1  0.5057830000000  0.5441140000000  0.4381850000000 1.0
C      1  0.5062290000000  0.4991500000000  0.5018550000000 1.0
C      1  0.5277070000000  0.4455460000000  0.4465360000000 1.0
C      1  0.4337540000000  0.5582190000000  0.5613170000000 1.0
C      1  0.4840340000000  0.4172130000000  0.4529700000000 1.0
C      1  0.4569450000000  0.4290090000000  0.4504720000000 1.0
C      1  0.5585820000000  0.4258030000000  0.5103500000000 1.0
C      1  0.4310530000000  0.4705760000000  0.4355770000000 1.0
C      1  0.4926010000000  0.5830850000000  0.5102330000000 1.0
C      1  0.5126950000000  0.4587510000000  0.5176200000000 1.0
C      1  0.5207310000000  0.4008960000000  0.5159860000000 1.0
C      1  0.4935510000000  0.4005930000000  0.5242900000000 1.0
C      1  0.5239440000000  0.4962330000000  0.4513990000000 1.0
C      1  0.5645830000000  0.5345000000000  0.4368800000000 1.0
C      1  0.4512880000000  0.5426770000000  0.4319530000000 1.0
C      1  0.5226950000000  0.5424430000000  0.5111110000000 1.0
C      1  0.5835490000000  0.5581470000000  0.4744460000000 1.0
C      1  0.4524240000000  0.5769590000000  0.5513630000000 1.0
C      1  0.4949470000000  0.5178770000000  0.4807020000000 1.0
C      1  0.5470730000000  0.4896230000000  0.5867890000000 1.0
C      1  0.4734290000000  0.4572230000000  0.4132240000000 1.0
C      1  0.5483260000000  0.5079720000000  0.5654590000000 1.0
C      1  0.4612580000000  0.5631160000000  0.4522650000000 1.0
C      1  0.5355340000000  0.5563990000000  0.5657720000000 1.0
C      1  0.4045020000000  0.5093090000000  0.4975350000000 1.0
C      1  0.6077770000000  0.5097390000000  0.4934470000000 1.0
C      1  0.5200520000000  0.5157310000000  0.5562270000000 1.0
C      1  0.4796870000000  0.5698490000000  0.5562590000000 1.0
C      1  0.5716720000000  0.4500550000000  0.5178820000000 1.0
C      1  0.4916830000000  0.4854480000000  0.5838660000000 1.0
C      1  0.4078070000000  0.4951130000000  0.4722490000000 1.0
C      1  0.5855520000000  0.4835560000000  0.4578140000000 1.0
C      1  0.5988490000000  0.4846720000000  0.4835950000000 1.0
C      1  0.5218550000000  0.4736820000000  0.5422260000000 1.0
C      1  0.5403050000000  0.5655380000000  0.5215570000000 1.0
C      1  0.5241740000000  0.4584260000000  0.4195840000000 1.0
C      1  0.4159230000000  0.5493830000000  0.5409240000000 1.0
C      1  0.5527190000000  0.4383360000000  0.4607920000000 1.0
C      1  0.4560260000000  0.5031310000000  0.4068160000000 1.0
C      1  0.5657800000000  0.4615370000000  0.5436550000000 1.0
C      1  0.4515810000000  0.4501450000000  0.4308840000000 1.0
C      1  0.5433490000000  0.5808380000000  0.4954810000000 1.0
C      1  0.4672770000000  0.5296720000000  0.4114060000000 1.0
C      1  0.4571990000000  0.5193600000000  0.5079300000000 1.0
C      1  0.4804150000000  0.5453670000000  0.5377200000000 1.0
C      1  0.6122780000000  0.5154410000000  0.5206580000000 1.0
C      1  0.4892510000000  0.4104730000000  0.5503470000000 1.0
C      1  0.5451670000000  0.5045860000000  0.4068780000000 1.0
C      1  0.4722850000000  0.4306870000000  0.5639500000000 1.0
C      1  0.5460760000000  0.5300870000000  0.4153960000000 1.0
C      1  0.5499780000000  0.4879720000000  0.4940020000000 1.0
C      1  0.5034070000000  0.5173980000000  0.4520250000000 1.0
C      1  0.4249110000000  0.5138620000000  0.5697200000000 1.0
C      1  0.4452940000000  0.5817350000000  0.5237210000000 1.0
C      1  0.5804020000000  0.5444280000000  0.5465230000000 1.0
C      1  0.4548250000000  0.4215150000000  0.5001320000000 1.0
C      1  0.5070030000000  0.4617710000000  0.5903950000000 1.0
C      1  0.5646950000000  0.5581730000000  0.4533320000000 1.0
C      1  0.5729290000000  0.5733850000000  0.4972780000000 1.0
C      1  0.4098420000000  0.5351210000000  0.4830180000000 1.0
END
