TITL C-68068-2935-5 -27.7121701167441 125000 -922.53734296946 0 0 131 (C1) n - 1
REM
REM in /rds/project/t2_vol4/rds-t2-cs072/BORA/CARBON/from-Arr/AIRSS/Generating-Clusters/GAP-ML-2020/Only-C1/SD-CG/HFTN-CG
REM
REM
REM
REM
REM
REM ./C.cell (11c1c37f851c82e70ff6c80c92926a4b)
REM AIRSS Version 0.9.1 bugfix July 2018 build 013d7b7c2542+ Fri, 06 Jul 2018 19:26:36 +0100
REM compiler GCC version 9.3.0
REM options -cpp -mtune=generic -march=x86-64 -g -O0
REM seed -1738544457 1805924361 -2143544243 560897525 -1765284763 764392340 -1874773977 -1261737711 -1679309492 4268022 -1697018081 -72978384 1147249384 -730812587 113391797 500530426 -593031919 -1567550955 1141685077 -457799695 907221985 -1477837297 1205259552 448546016 -1623824838 -820603065 1169306060 -1774959123 1716245182 -1168141763 1160541881 552587463 -1873969158
REM
CELL 1.54180   50.00000   50.00000   50.00000   90.00000   90.00000   90.00000
LATT -1
SFAC C  
C      1  0.5511680000000  0.5454780000000  0.4828600000000 1.0
C      1  0.4436450000000  0.5441710000000  0.5444160000000 1.0
C      1  0.4332170000000  0.5742320000000  0.4930470000000 1.0
C      1  0.4919390000000  0.6125760000000  0.5320300000000 1.0
C      1  0.4222190000000  0.4449850000000  0.4901140000000 1.0
C      1  0.4126810000000  0.5017210000000  0.4948600000000 1.0
C      1  0.5470960000000  0.5180640000000  0.5776120000000 1.0
C      1  0.5457790000000  0.4261470000000  0.5242050000000 1.0
C      1  0.4523010000000  0.4844840000000  0.4221400000000 1.0
C      1  0.4405350000000  0.4794700000000  0.5841200000000 1.0
C      1  0.5096900000000  0.4997620000000  0.5581460000000 1.0
C      1  0.5213020000000  0.5506390000000  0.4952570000000 1.0
C      1  0.4288790000000  0.4970880000000  0.4679140000000 1.0
C      1  0.4733200000000  0.4248470000000  0.5290590000000 1.0
C      1  0.5210390000000  0.4147170000000  0.5145650000000 1.0
C      1  0.4939410000000  0.4424550000000  0.4860680000000 1.0
C      1  0.4241930000000  0.4572730000000  0.5169960000000 1.0
C      1  0.4539810000000  0.4843920000000  0.4847330000000 1.0
C      1  0.5312950000000  0.5103550000000  0.5178710000000 1.0
C      1  0.4329200000000  0.5308340000000  0.5886990000000 1.0
C      1  0.5603680000000  0.5594970000000  0.5418220000000 1.0
C      1  0.4607600000000  0.5115720000000  0.4186090000000 1.0
C      1  0.4442700000000  0.5062580000000  0.5936290000000 1.0
C      1  0.4341120000000  0.4311820000000  0.4688300000000 1.0
C      1  0.5159690000000  0.5334120000000  0.5170730000000 1.0
C      1  0.5985320000000  0.5090150000000  0.5057320000000 1.0
C      1  0.5142460000000  0.4225540000000  0.5578600000000 1.0
C      1  0.4995700000000  0.4766340000000  0.4184740000000 1.0
C      1  0.4408930000000  0.4477080000000  0.4463430000000 1.0
C      1  0.4561350000000  0.4154620000000  0.4782240000000 1.0
C      1  0.5409970000000  0.4324650000000  0.5516340000000 1.0
C      1  0.4272070000000  0.4752980000000  0.5594420000000 1.0
C      1  0.5069890000000  0.4671630000000  0.4986170000000 1.0
C      1  0.5119220000000  0.4608900000000  0.4404300000000 1.0
C      1  0.4723030000000  0.5083580000000  0.5979630000000 1.0
C      1  0.5364870000000  0.5617260000000  0.5563780000000 1.0
C      1  0.4769480000000  0.5928830000000  0.4900790000000 1.0
C      1  0.4217960000000  0.5253870000000  0.5358020000000 1.0
C      1  0.5019910000000  0.5387960000000  0.4761880000000 1.0
C      1  0.4812720000000  0.5301790000000  0.5802960000000 1.0
C      1  0.4738040000000  0.5007750000000  0.5334920000000 1.0
C      1  0.4364240000000  0.5726300000000  0.4644470000000 1.0
C      1  0.5668870000000  0.5039610000000  0.4297100000000 1.0
C      1  0.5335450000000  0.4746400000000  0.4568120000000 1.0
C      1  0.5126280000000  0.4802470000000  0.5993800000000 1.0
C      1  0.4732680000000  0.4429340000000  0.5751800000000 1.0
C      1  0.5365860000000  0.5851800000000  0.4678570000000 1.0
C      1  0.5091690000000  0.5026110000000  0.4129900000000 1.0
C      1  0.5089120000000  0.4130880000000  0.4343600000000 1.0
C      1  0.6026160000000  0.5106530000000  0.4768180000000 1.0
C      1  0.5003520000000  0.4155800000000  0.5341210000000 1.0
C      1  0.5869180000000  0.5314770000000  0.5175810000000 1.0
C      1  0.4625590000000  0.5555710000000  0.4305550000000 1.0
C      1  0.4289530000000  0.5239640000000  0.4536900000000 1.0
C      1  0.5326370000000  0.5060600000000  0.4539970000000 1.0
C      1  0.4205650000000  0.5480220000000  0.4651110000000 1.0
C      1  0.4517210000000  0.5426280000000  0.5720950000000 1.0
C      1  0.4585290000000  0.4366560000000  0.5506480000000 1.0
C      1  0.5627690000000  0.5732310000000  0.5158490000000 1.0
C      1  0.5118390000000  0.5613720000000  0.4300060000000 1.0
C      1  0.5224260000000  0.4578890000000  0.5845450000000 1.0
C      1  0.4574220000000  0.5774500000000  0.5064830000000 1.0
C      1  0.5637120000000  0.4412900000000  0.5080610000000 1.0
C      1  0.5546640000000  0.5648990000000  0.4605740000000 1.0
C      1  0.5779390000000  0.5287090000000  0.4369710000000 1.0
C      1  0.5458780000000  0.4566120000000  0.5658380000000 1.0
C      1  0.4170360000000  0.4966130000000  0.5416730000000 1.0
C      1  0.4798960000000  0.4155280000000  0.4366250000000 1.0
C      1  0.4880070000000  0.5490850000000  0.4203180000000 1.0
C      1  0.4837910000000  0.4828720000000  0.6017000000000 1.0
C      1  0.5347340000000  0.5443060000000  0.4246310000000 1.0
C      1  0.4945770000000  0.4921780000000  0.4855410000000 1.0
C      1  0.4683130000000  0.4430270000000  0.4356910000000 1.0
C      1  0.5096360000000  0.5328230000000  0.5895640000000 1.0
C      1  0.5342080000000  0.5136910000000  0.4250070000000 1.0
C      1  0.5021310000000  0.4383160000000  0.5772760000000 1.0
C      1  0.5598140000000  0.4578930000000  0.4546080000000 1.0
C      1  0.5308160000000  0.4756120000000  0.4863160000000 1.0
C      1  0.5002940000000  0.3959390000000  0.4733810000000 1.0
C      1  0.4128820000000  0.4838540000000  0.5168720000000 1.0
C      1  0.5288690000000  0.4895440000000  0.5375620000000 1.0
C      1  0.5327970000000  0.5433880000000  0.5767140000000 1.0
C      1  0.4341560000000  0.4753970000000  0.4432910000000 1.0
C      1  0.5499690000000  0.4341720000000  0.4390860000000 1.0
C      1  0.4730600000000  0.4664980000000  0.4175190000000 1.0
C      1  0.4129390000000  0.5277000000000  0.5084600000000 1.0
C      1  0.5109290000000  0.5817430000000  0.4527200000000 1.0
C      1  0.5930540000000  0.4836680000000  0.4730270000000 1.0
C      1  0.5427180000000  0.5884920000000  0.4994060000000 1.0
C      1  0.4873100000000  0.5211290000000  0.4127030000000 1.0
C      1  0.5577480000000  0.4792000000000  0.5465190000000 1.0
C      1  0.5092220000000  0.4168010000000  0.4895250000000 1.0
C      1  0.4835070000000  0.5875930000000  0.4624170000000 1.0
C      1  0.4650390000000  0.5518810000000  0.5236790000000 1.0
C      1  0.5183640000000  0.5800230000000  0.5109940000000 1.0
C      1  0.5238000000000  0.4360410000000  0.4287420000000 1.0
C      1  0.4643110000000  0.5313000000000  0.5005720000000 1.0
C      1  0.5844030000000  0.5252200000000  0.4634810000000 1.0
C      1  0.5730020000000  0.4659180000000  0.5212820000000 1.0
C      1  0.5530910000000  0.5175400000000  0.4741990000000 1.0
C      1  0.4743190000000  0.4025860000000  0.4613190000000 1.0
C      1  0.5744540000000  0.5331000000000  0.5431300000000 1.0
C      1  0.4877040000000  0.4540230000000  0.4582490000000 1.0
C      1  0.5228330000000  0.4015430000000  0.4570440000000 1.0
C      1  0.4151920000000  0.5510000000000  0.4935870000000 1.0
C      1  0.4466200000000  0.5314140000000  0.4322140000000 1.0
C      1  0.4478660000000  0.4573930000000  0.4970270000000 1.0
C      1  0.4746100000000  0.5409450000000  0.4777920000000 1.0
C      1  0.4887300000000  0.4795540000000  0.5436100000000 1.0
C      1  0.4599350000000  0.5767450000000  0.4492890000000 1.0
C      1  0.5445020000000  0.4997250000000  0.4956110000000 1.0
C      1  0.5493060000000  0.4168230000000  0.4618980000000 1.0
C      1  0.5655770000000  0.5093990000000  0.5580850000000 1.0
C      1  0.5125920000000  0.5719660000000  0.5417320000000 1.0
C      1  0.5738560000000  0.5520570000000  0.5014830000000 1.0
C      1  0.4644420000000  0.4649410000000  0.5906060000000 1.0
C      1  0.5619210000000  0.4371760000000  0.4793050000000 1.0
C      1  0.4699340000000  0.5034970000000  0.5047250000000 1.0
C      1  0.5220890000000  0.5052610000000  0.5879470000000 1.0
C      1  0.5769730000000  0.4805780000000  0.4488760000000 1.0
C      1  0.4680000000000  0.4339360000000  0.5001360000000 1.0
C      1  0.5590320000000  0.5508740000000  0.4364050000000 1.0
C      1  0.4901560000000  0.5220470000000  0.5514810000000 1.0
C      1  0.4345230000000  0.4519680000000  0.5443320000000 1.0
C      1  0.5089430000000  0.4700970000000  0.5267400000000 1.0
C      1  0.4990090000000  0.5970800000000  0.5512500000000 1.0
C      1  0.5070240000000  0.5127310000000  0.4679360000000 1.0
C      1  0.4974560000000  0.6009310000000  0.5069210000000 1.0
C      1  0.5898090000000  0.4810800000000  0.5038690000000 1.0
C      1  0.4947220000000  0.5461520000000  0.5345240000000 1.0
C      1  0.4768160000000  0.4801300000000  0.4664720000000 1.0
END
