TITL C-68076-2988-3 -0.0926280589279266 125000 -274.082824594275 0 0 41 (C1) n - 1
REM
REM in /rds/project/t2_vol4/rds-t2-cs072/BORA/CARBON/from-Arr/AIRSS/Generating-Clusters/GAP-ML-2020/Only-C1/SD-CG/HFTN-CG
REM
REM
REM
REM
REM
REM ./C.cell (11c1c37f851c82e70ff6c80c92926a4b)
REM AIRSS Version 0.9.1 bugfix July 2018 build 013d7b7c2542+ Fri, 06 Jul 2018 19:26:36 +0100
REM compiler GCC version 9.3.0
REM options -cpp -mtune=generic -march=x86-64 -g -O0
REM seed -130776869 1777907097 -1685615746 -1708951736 -1314816426 927642615 247659628 -1557150631 -534277126 1360673009 -78789814 1589419496 1778367139 -1162653325 1229410786 -302419186 -909234867 1180330114 1851376170 1358276110 -1517837048 -1988776745 1914668407 -158483231 -753526264 1458603239 44116958 -32741315 -2058930666 1265868652 1254152816 -1030824770 -124186620
REM
CELL 1.54180   50.00000   50.00000   50.00000   90.00000   90.00000   90.00000
LATT -1
SFAC C  
C      1  0.4959700000000  0.5171420000000  0.4445980000000 1.0
C      1  0.5125210000000  0.4997620000000  0.4880780000000 1.0
C      1  0.5143580000000  0.4892510000000  0.5378350000000 1.0
C      1  0.5238210000000  0.5518180000000  0.5036310000000 1.0
C      1  0.4968990000000  0.5247060000000  0.5625450000000 1.0
C      1  0.4919620000000  0.4854630000000  0.4741130000000 1.0
C      1  0.5376710000000  0.5284450000000  0.5416430000000 1.0
C      1  0.5214440000000  0.5104980000000  0.5572840000000 1.0
C      1  0.4546870000000  0.4629810000000  0.4906490000000 1.0
C      1  0.4707300000000  0.5030400000000  0.5421180000000 1.0
C      1  0.4544790000000  0.5436410000000  0.4782110000000 1.0
C      1  0.5273610000000  0.4505080000000  0.5141290000000 1.0
C      1  0.5016340000000  0.4878230000000  0.4447510000000 1.0
C      1  0.5233080000000  0.4730070000000  0.4437220000000 1.0
C      1  0.5000120000000  0.4409420000000  0.5163740000000 1.0
C      1  0.4868660000000  0.4789290000000  0.5404120000000 1.0
C      1  0.5134950000000  0.5261530000000  0.4675250000000 1.0
C      1  0.4489770000000  0.5287910000000  0.4552790000000 1.0
C      1  0.5070580000000  0.5089710000000  0.5149400000000 1.0
C      1  0.4716080000000  0.5264710000000  0.4391030000000 1.0
C      1  0.5203600000000  0.5499660000000  0.5320320000000 1.0
C      1  0.5269570000000  0.4477270000000  0.4850050000000 1.0
C      1  0.4988450000000  0.4391700000000  0.4874180000000 1.0
C      1  0.4790640000000  0.4546210000000  0.5296080000000 1.0
C      1  0.5528420000000  0.5187500000000  0.5193550000000 1.0
C      1  0.5463070000000  0.5353510000000  0.4971310000000 1.0
C      1  0.4712930000000  0.5029650000000  0.4836140000000 1.0
C      1  0.5365220000000  0.4732790000000  0.5268010000000 1.0
C      1  0.4727110000000  0.5139500000000  0.5674660000000 1.0
C      1  0.4459480000000  0.4903150000000  0.4785740000000 1.0
C      1  0.4811420000000  0.4594460000000  0.4801590000000 1.0
C      1  0.4942950000000  0.5446020000000  0.5414210000000 1.0
C      1  0.5412600000000  0.5201130000000  0.4737410000000 1.0
C      1  0.5527170000000  0.4913170000000  0.5113660000000 1.0
C      1  0.4822610000000  0.5241840000000  0.5220800000000 1.0
C      1  0.4323700000000  0.5044470000000  0.4604930000000 1.0
C      1  0.4750230000000  0.5330010000000  0.4936690000000 1.0
C      1  0.5421800000000  0.4918880000000  0.4838730000000 1.0
C      1  0.5025190000000  0.5456410000000  0.4852190000000 1.0
C      1  0.5372960000000  0.4670770000000  0.4681150000000 1.0
C      1  0.4532240000000  0.4538480000000  0.5159180000000 1.0
END
