TITL C-71945-782-8 0.0179916228814455 125000 -788.231259889018 0 0 112 (C1) n - 1
REM
REM in /rds/project/t2_vol4/rds-t2-cs072/BORA/CARBON/from-Arr/AIRSS/Generating-Clusters/GAP-ML-2020/Only-C1/SD-CG/HFTN-CG
REM
REM
REM
REM
REM
REM ./C.cell (11c1c37f851c82e70ff6c80c92926a4b)
REM AIRSS Version 0.9.1 bugfix July 2018 build 013d7b7c2542+ Fri, 06 Jul 2018 19:26:36 +0100
REM compiler GCC version 9.3.0
REM options -cpp -mtune=generic -march=x86-64 -g -O0
REM seed 2063773924 2088842572 -2092548794 -173218156 1802650982 1676961186 1935226963 846548075 -1737390149 -1203767373 -97565695 627596000 104967544 -2016662403 -1920106101 179052020 1248330481 -528206633 -338999188 -553143088 -1051300966 1231979739 -520450903 -402395279 -1359917227 1548950353 1771848102 2055288047 -54813504 1810162889 923911806 -1054763507 -1733309554
REM
CELL 1.54180   50.00000   50.00000   50.00000   90.00000   90.00000   90.00000
LATT -1
SFAC C  
C      1  0.4148220000000  0.5514650000000  0.4825230000000 1.0
C      1  0.5698040000000  0.5149460000000  0.5746180000000 1.0
C      1  0.4798400000000  0.5467010000000  0.4422460000000 1.0
C      1  0.5345110000000  0.4765660000000  0.4228620000000 1.0
C      1  0.4409560000000  0.4995660000000  0.4890170000000 1.0
C      1  0.4956950000000  0.4771390000000  0.5854340000000 1.0
C      1  0.5604250000000  0.4338860000000  0.4627410000000 1.0
C      1  0.4290760000000  0.4931120000000  0.4613290000000 1.0
C      1  0.4330540000000  0.4635950000000  0.4534250000000 1.0
C      1  0.4670130000000  0.4895490000000  0.5021860000000 1.0
C      1  0.5200990000000  0.5363430000000  0.5240030000000 1.0
C      1  0.5762770000000  0.4416050000000  0.4862440000000 1.0
C      1  0.4481030000000  0.5065270000000  0.4421790000000 1.0
C      1  0.5624710000000  0.4533610000000  0.5346600000000 1.0
C      1  0.5324900000000  0.4452040000000  0.5367960000000 1.0
C      1  0.5871590000000  0.4644720000000  0.4710500000000 1.0
C      1  0.5169820000000  0.5116530000000  0.4778690000000 1.0
C      1  0.4901020000000  0.4211570000000  0.4553310000000 1.0
C      1  0.4853650000000  0.5804620000000  0.4797950000000 1.0
C      1  0.4425500000000  0.5533570000000  0.4797560000000 1.0
C      1  0.4071680000000  0.5376520000000  0.5072170000000 1.0
C      1  0.5044610000000  0.5833250000000  0.5015410000000 1.0
C      1  0.5213640000000  0.4220570000000  0.4898110000000 1.0
C      1  0.5048630000000  0.5274910000000  0.4983420000000 1.0
C      1  0.4938220000000  0.5745780000000  0.5784690000000 1.0
C      1  0.4233560000000  0.5158230000000  0.5514080000000 1.0
C      1  0.4780070000000  0.4510340000000  0.4770580000000 1.0
C      1  0.5406760000000  0.5648230000000  0.4718990000000 1.0
C      1  0.5784050000000  0.5019850000000  0.5205960000000 1.0
C      1  0.4674470000000  0.4798450000000  0.5814070000000 1.0
C      1  0.5715700000000  0.5369140000000  0.5571950000000 1.0
C      1  0.5675720000000  0.4864290000000  0.5673090000000 1.0
C      1  0.5394210000000  0.5260050000000  0.4252960000000 1.0
C      1  0.5403300000000  0.4788490000000  0.5759490000000 1.0
C      1  0.4382350000000  0.4507220000000  0.5187140000000 1.0
C      1  0.4443490000000  0.4638750000000  0.4272780000000 1.0
C      1  0.5328190000000  0.5486130000000  0.5789740000000 1.0
C      1  0.4164950000000  0.4680780000000  0.5239370000000 1.0
C      1  0.4651930000000  0.4453340000000  0.4241340000000 1.0
C      1  0.5642040000000  0.4371120000000  0.5111770000000 1.0
C      1  0.4561280000000  0.5265790000000  0.4831220000000 1.0
C      1  0.5064250000000  0.4920310000000  0.5320380000000 1.0
C      1  0.5336500000000  0.4268220000000  0.4645210000000 1.0
C      1  0.5005880000000  0.5048350000000  0.5752200000000 1.0
C      1  0.4041140000000  0.5113930000000  0.4675020000000 1.0
C      1  0.4712600000000  0.4184730000000  0.5049130000000 1.0
C      1  0.5716670000000  0.4557970000000  0.4476910000000 1.0
C      1  0.4811710000000  0.4864170000000  0.4094290000000 1.0
C      1  0.4548190000000  0.4894850000000  0.4204290000000 1.0
C      1  0.4999920000000  0.5071160000000  0.4036200000000 1.0
C      1  0.5478080000000  0.4986130000000  0.5155670000000 1.0
C      1  0.4876010000000  0.5249320000000  0.5914670000000 1.0
C      1  0.4956140000000  0.5436400000000  0.4183430000000 1.0
C      1  0.4843230000000  0.5034730000000  0.5478360000000 1.0
C      1  0.5132830000000  0.4717700000000  0.4970580000000 1.0
C      1  0.5602170000000  0.4779170000000  0.4349410000000 1.0
C      1  0.4889910000000  0.4598810000000  0.4156660000000 1.0
C      1  0.5153130000000  0.4540350000000  0.4252290000000 1.0
C      1  0.5035670000000  0.5500980000000  0.5880220000000 1.0
C      1  0.3983340000000  0.5122830000000  0.4966800000000 1.0
C      1  0.5448600000000  0.5235570000000  0.5840320000000 1.0
C      1  0.5808440000000  0.5292500000000  0.5322770000000 1.0
C      1  0.4017270000000  0.5373720000000  0.4602050000000 1.0
C      1  0.5145970000000  0.4319070000000  0.4441970000000 1.0
C      1  0.5617550000000  0.5453130000000  0.4659340000000 1.0
C      1  0.5729210000000  0.5012310000000  0.4465080000000 1.0
C      1  0.5100950000000  0.4641920000000  0.5249870000000 1.0
C      1  0.4769460000000  0.5197500000000  0.5054630000000 1.0
C      1  0.5872010000000  0.5096920000000  0.4923410000000 1.0
C      1  0.5289870000000  0.5048890000000  0.5684300000000 1.0
C      1  0.5178000000000  0.4357670000000  0.5626000000000 1.0
C      1  0.4744310000000  0.5298810000000  0.5339360000000 1.0
C      1  0.4658430000000  0.4811830000000  0.5519690000000 1.0
C      1  0.5185540000000  0.4597610000000  0.5795480000000 1.0
C      1  0.4609240000000  0.5729490000000  0.5181190000000 1.0
C      1  0.5264290000000  0.5025810000000  0.4146410000000 1.0
C      1  0.5224770000000  0.5479180000000  0.4280170000000 1.0
C      1  0.4948330000000  0.5734160000000  0.5518710000000 1.0
C      1  0.4242870000000  0.5382800000000  0.5313650000000 1.0
C      1  0.4977300000000  0.5470220000000  0.5389800000000 1.0
C      1  0.4943990000000  0.5002060000000  0.4638300000000 1.0
C      1  0.4701980000000  0.5205470000000  0.4566410000000 1.0
C      1  0.4466830000000  0.4328320000000  0.4976280000000 1.0
C      1  0.5697030000000  0.5467890000000  0.5133710000000 1.0
C      1  0.5766580000000  0.5362600000000  0.4882390000000 1.0
C      1  0.4912590000000  0.5323790000000  0.3940170000000 1.0
C      1  0.5374650000000  0.4267260000000  0.5126670000000 1.0
C      1  0.4921870000000  0.4234830000000  0.4848640000000 1.0
C      1  0.4497870000000  0.5501440000000  0.5323610000000 1.0
C      1  0.5880150000000  0.4929380000000  0.4701050000000 1.0
C      1  0.4492980000000  0.4431400000000  0.4689290000000 1.0
C      1  0.4140220000000  0.4920950000000  0.5370530000000 1.0
C      1  0.4963030000000  0.4202850000000  0.5539340000000 1.0
C      1  0.4641750000000  0.4283010000000  0.4464020000000 1.0
C      1  0.4817530000000  0.4240270000000  0.5313650000000 1.0
C      1  0.4378690000000  0.5167460000000  0.5754220000000 1.0
C      1  0.4156620000000  0.4926770000000  0.5072420000000 1.0
C      1  0.5488510000000  0.5553460000000  0.5551320000000 1.0
C      1  0.5434040000000  0.5572630000000  0.5222340000000 1.0
C      1  0.5609580000000  0.5264310000000  0.4437800000000 1.0
C      1  0.4874880000000  0.4778810000000  0.4826690000000 1.0
C      1  0.4935720000000  0.5679700000000  0.4562070000000 1.0
C      1  0.4591920000000  0.5740530000000  0.4899860000000 1.0
C      1  0.4846150000000  0.4528460000000  0.5325990000000 1.0
C      1  0.4603950000000  0.5096740000000  0.5883450000000 1.0
C      1  0.5213410000000  0.5645240000000  0.4508840000000 1.0
C      1  0.4617610000000  0.4684560000000  0.5259390000000 1.0
C      1  0.5317840000000  0.5737470000000  0.4988220000000 1.0
C      1  0.5761670000000  0.4781290000000  0.5414660000000 1.0
C      1  0.4875130000000  0.5808230000000  0.5253080000000 1.0
C      1  0.5290230000000  0.5092260000000  0.5350070000000 1.0
C      1  0.5338430000000  0.4913480000000  0.4910670000000 1.0
END
