TITL C-71928-627-2 0.0351956983193566 125000 -295.607434158656 0 0 45 (C1) n - 1
REM
REM in /rds/project/t2_vol4/rds-t2-cs072/BORA/CARBON/from-Arr/AIRSS/Generating-Clusters/GAP-ML-2020/Only-C1/SD-CG/HFTN-CG
REM
REM
REM
REM
REM
REM ./C.cell (11c1c37f851c82e70ff6c80c92926a4b)
REM AIRSS Version 0.9.1 bugfix July 2018 build 013d7b7c2542+ Fri, 06 Jul 2018 19:26:36 +0100
REM compiler GCC version 9.3.0
REM options -cpp -mtune=generic -march=x86-64 -g -O0
REM seed -1489935127 -159427376 -436695539 -1615173564 -388470469 -1655354624 2097232550 2106646279 -226039031 2095866979 129066546 -1971661796 1418478288 -592384189 -965921326 -1689150471 -363432012 1935064658 971556512 1656425026 -181364405 316289080 -1733942984 -3835536 574009812 -453662331 1443662352 -1831665802 -954912938 1849256190 1236279147 -549865603 1831898303
REM
CELL 1.54180   50.00000   50.00000   50.00000   90.00000   90.00000   90.00000
LATT -1
SFAC C  
C      1  0.5260780000000  0.4879190000000  0.5549990000000 1.0
C      1  0.4656900000000  0.4611860000000  0.5251230000000 1.0
C      1  0.5423240000000  0.5236000000000  0.5362410000000 1.0
C      1  0.5031150000000  0.4439960000000  0.5538590000000 1.0
C      1  0.4552620000000  0.5134310000000  0.4271930000000 1.0
C      1  0.4606470000000  0.4977930000000  0.4911930000000 1.0
C      1  0.4392870000000  0.5059590000000  0.4481870000000 1.0
C      1  0.4969150000000  0.4667740000000  0.4873860000000 1.0
C      1  0.5637940000000  0.5259810000000  0.4986380000000 1.0
C      1  0.5254470000000  0.5156920000000  0.5595850000000 1.0
C      1  0.4919890000000  0.4956430000000  0.4931250000000 1.0
C      1  0.5018260000000  0.5221110000000  0.4485030000000 1.0
C      1  0.4547650000000  0.4830890000000  0.4654550000000 1.0
C      1  0.5562630000000  0.4765480000000  0.4897420000000 1.0
C      1  0.5095890000000  0.5172510000000  0.4786910000000 1.0
C      1  0.4744160000000  0.5168320000000  0.5586730000000 1.0
C      1  0.4540170000000  0.4841240000000  0.5192940000000 1.0
C      1  0.5494360000000  0.4768990000000  0.5176210000000 1.0
C      1  0.4278030000000  0.5241290000000  0.4653520000000 1.0
C      1  0.5437920000000  0.5394520000000  0.5129660000000 1.0
C      1  0.5423650000000  0.4522110000000  0.5287300000000 1.0
C      1  0.5155560000000  0.5410590000000  0.4996370000000 1.0
C      1  0.5249550000000  0.4518080000000  0.4569320000000 1.0
C      1  0.4567200000000  0.5031330000000  0.5398410000000 1.0
C      1  0.4996270000000  0.4620270000000  0.4585420000000 1.0
C      1  0.5306890000000  0.4404380000000  0.5053730000000 1.0
C      1  0.4472390000000  0.5259340000000  0.4855080000000 1.0
C      1  0.4613410000000  0.5497320000000  0.4957590000000 1.0
C      1  0.4803410000000  0.5681560000000  0.4839230000000 1.0
C      1  0.4970450000000  0.5329760000000  0.5236120000000 1.0
C      1  0.5016370000000  0.5033880000000  0.5184660000000 1.0
C      1  0.4874360000000  0.4458670000000  0.5301000000000 1.0
C      1  0.5000740000000  0.5268320000000  0.5533480000000 1.0
C      1  0.5285390000000  0.5208520000000  0.4413210000000 1.0
C      1  0.4548630000000  0.5299930000000  0.5418740000000 1.0
C      1  0.5055250000000  0.5681380000000  0.4885820000000 1.0
C      1  0.4780530000000  0.4783120000000  0.4483630000000 1.0
C      1  0.5415830000000  0.4542520000000  0.4793600000000 1.0
C      1  0.5029330000000  0.4466120000000  0.5055550000000 1.0
C      1  0.5588910000000  0.5050360000000  0.4816610000000 1.0
C      1  0.5296780000000  0.4974150000000  0.5256350000000 1.0
C      1  0.5361390000000  0.5099350000000  0.4659710000000 1.0
C      1  0.4809790000000  0.5055510000000  0.4356200000000 1.0
C      1  0.4700490000000  0.5419810000000  0.5213360000000 1.0
C      1  0.5252900000000  0.4599510000000  0.5531240000000 1.0
END
