TITL C-71920-625-12 -0.0128745720758697 125000 -44.1933842142709 0 0 7 (D(inf)h) n - 1
REM
REM in /rds/project/t2_vol4/rds-t2-cs072/BORA/CARBON/from-Arr/AIRSS/Generating-Clusters/GAP-ML-2020/Only-C1/SD-CG/HFTN-CG
REM
REM
REM
REM
REM
REM ./C.cell (11c1c37f851c82e70ff6c80c92926a4b)
REM AIRSS Version 0.9.1 bugfix July 2018 build 013d7b7c2542+ Fri, 06 Jul 2018 19:26:36 +0100
REM compiler GCC version 9.3.0
REM options -cpp -mtune=generic -march=x86-64 -g -O0
REM seed 1122008419 1647307587 349107492 -1293507747 777036755 -1025607498 -1044228063 -69869172 -120723505 1388426921 206401254 -1272981261 468651454 -1575936625 327312440 1414294041 1971999422 1182492591 1153701025 999934139 1560818883 -1821448995 50407054 1013128528 -1663466833 -379078496 574974022 1716140522 -1361734623 357347481 1558816376 1740847256 -1016767344
REM
CELL 1.54180   50.00000   50.00000   50.00000   90.00000   90.00000   90.00000
LATT -1
SFAC C  
C      1  0.5389640000000  0.5395770000000  0.4470500000000 1.0
C      1  0.5000000000000  0.5000000000000  0.5000000000000 1.0
C      1  0.4610360000000  0.4604230000000  0.5529500000000 1.0
C      1  0.4740530000000  0.4736450000000  0.5352600000000 1.0
C      1  0.5259460000000  0.5263550000000  0.4647400000000 1.0
C      1  0.5128880000000  0.5130910000000  0.4824860000000 1.0
C      1  0.4871120000000  0.4869090000000  0.5175140000000 1.0
END
