TITL C-71935-701-7 -0.0303497566736553 125000 -132.549658070104 0 0 21 (C1) n - 1
REM
REM in /rds/project/t2_vol4/rds-t2-cs072/BORA/CARBON/from-Arr/AIRSS/Generating-Clusters/GAP-ML-2020/Only-C1/SD-CG/HFTN-CG
REM
REM
REM
REM
REM
REM ./C.cell (11c1c37f851c82e70ff6c80c92926a4b)
REM AIRSS Version 0.9.1 bugfix July 2018 build 013d7b7c2542+ Fri, 06 Jul 2018 19:26:36 +0100
REM compiler GCC version 9.3.0
REM options -cpp -mtune=generic -march=x86-64 -g -O0
REM seed 598221727 -207334524 544178421 2014212565 425963473 -1831230780 -1428394079 -1554794145 -651403830 899785857 1556565233 1385923601 -1265219273 1275163004 1193315964 1863287274 -1010766236 -389389963 1082759627 427884755 1702588797 1387326726 -703562796 715685405 -1570320450 1772390430 -1810784685 -1311535684 -120851078 -42739908 372001764 1101539312 1932339028
REM
CELL 1.54180   50.00000   50.00000   50.00000   90.00000   90.00000   90.00000
LATT -1
SFAC C  
C      1  0.5425420000000  0.5276200000000  0.5289290000000 1.0
C      1  0.4943830000000  0.5414680000000  0.4589270000000 1.0
C      1  0.5392940000000  0.4748680000000  0.5296530000000 1.0
C      1  0.5188610000000  0.5317330000000  0.4572260000000 1.0
C      1  0.4666720000000  0.5366200000000  0.4605970000000 1.0
C      1  0.5328050000000  0.4550140000000  0.5118300000000 1.0
C      1  0.5067690000000  0.4522020000000  0.5030760000000 1.0
C      1  0.5020940000000  0.4963720000000  0.5439240000000 1.0
C      1  0.5240640000000  0.4814130000000  0.5533130000000 1.0
C      1  0.5199100000000  0.5164020000000  0.5369620000000 1.0
C      1  0.4576950000000  0.5106220000000  0.4566660000000 1.0
C      1  0.4974490000000  0.4504800000000  0.4754910000000 1.0
C      1  0.5076510000000  0.5333000000000  0.4842360000000 1.0
C      1  0.4825650000000  0.5311260000000  0.5006680000000 1.0
C      1  0.4696130000000  0.4930280000000  0.4748070000000 1.0
C      1  0.4826590000000  0.4695750000000  0.4683540000000 1.0
C      1  0.5442800000000  0.5017120000000  0.5239880000000 1.0
C      1  0.4766480000000  0.5031610000000  0.5013440000000 1.0
C      1  0.4640040000000  0.5471600000000  0.4866600000000 1.0
C      1  0.4844640000000  0.4867570000000  0.5231340000000 1.0
C      1  0.4855770000000  0.4593670000000  0.5202150000000 1.0
END
