TITL C-71928-627-9 0.200324171322441 125000 -646.87623044675 0 0 92 (C1) n - 1
REM
REM in /rds/project/t2_vol4/rds-t2-cs072/BORA/CARBON/from-Arr/AIRSS/Generating-Clusters/GAP-ML-2020/Only-C1/SD-CG/HFTN-CG
REM
REM
REM
REM
REM
REM ./C.cell (11c1c37f851c82e70ff6c80c92926a4b)
REM AIRSS Version 0.9.1 bugfix July 2018 build 013d7b7c2542+ Fri, 06 Jul 2018 19:26:36 +0100
REM compiler GCC version 9.3.0
REM options -cpp -mtune=generic -march=x86-64 -g -O0
REM seed -1379205244 -110505708 1356956832 -777346774 1797498947 1513410186 -660190424 1219102594 1162395072 1394884698 1487196470 -1186721743 -477290417 1721144658 -525483587 1750393327 -1013582105 2019549509 561114416 2034099124 -2024907391 -217221709 -238805416 -1886268538 1730715066 -1001486335 1081721332 1096903284 -1083658259 382840860 -1561406848 1126128406 903763145
REM
CELL 1.54180   50.00000   50.00000   50.00000   90.00000   90.00000   90.00000
LATT -1
SFAC C  
C      1  0.4539780000000  0.5655200000000  0.5362940000000 1.0
C      1  0.4914130000000  0.4416550000000  0.4989460000000 1.0
C      1  0.5729930000000  0.4755310000000  0.4862860000000 1.0
C      1  0.5300970000000  0.4565050000000  0.4380100000000 1.0
C      1  0.4704590000000  0.5084380000000  0.5164430000000 1.0
C      1  0.4708470000000  0.5854870000000  0.5245930000000 1.0
C      1  0.4117330000000  0.4855930000000  0.5195150000000 1.0
C      1  0.5331610000000  0.5593480000000  0.5098920000000 1.0
C      1  0.5331710000000  0.5037680000000  0.4900390000000 1.0
C      1  0.5257220000000  0.4559250000000  0.5357550000000 1.0
C      1  0.4628870000000  0.5597190000000  0.4415960000000 1.0
C      1  0.5576410000000  0.5184250000000  0.5583810000000 1.0
C      1  0.5472250000000  0.5437820000000  0.5518320000000 1.0
C      1  0.4670340000000  0.4647870000000  0.5401200000000 1.0
C      1  0.5647140000000  0.4624020000000  0.5106700000000 1.0
C      1  0.4828330000000  0.4913410000000  0.5394620000000 1.0
C      1  0.4931050000000  0.4394550000000  0.4470950000000 1.0
C      1  0.4860900000000  0.5271860000000  0.4186530000000 1.0
C      1  0.4716720000000  0.4306110000000  0.4638540000000 1.0
C      1  0.4707900000000  0.5846650000000  0.4958970000000 1.0
C      1  0.4224710000000  0.5069210000000  0.4742350000000 1.0
C      1  0.5094110000000  0.5100520000000  0.4161960000000 1.0
C      1  0.5140590000000  0.5336950000000  0.5220140000000 1.0
C      1  0.5569300000000  0.5552100000000  0.5276520000000 1.0
C      1  0.4695420000000  0.4583940000000  0.5092090000000 1.0
C      1  0.4300650000000  0.4857530000000  0.4536080000000 1.0
C      1  0.5000320000000  0.5856860000000  0.4879350000000 1.0
C      1  0.5388680000000  0.4165800000000  0.5022290000000 1.0
C      1  0.5120070000000  0.5185500000000  0.5702570000000 1.0
C      1  0.5396070000000  0.4459550000000  0.5093360000000 1.0
C      1  0.4240250000000  0.4906080000000  0.5468840000000 1.0
C      1  0.5349170000000  0.5192890000000  0.4241510000000 1.0
C      1  0.5059730000000  0.4133790000000  0.5373790000000 1.0
C      1  0.4451570000000  0.5064980000000  0.4384950000000 1.0
C      1  0.4686720000000  0.5507330000000  0.5571800000000 1.0
C      1  0.4368420000000  0.5266450000000  0.4581210000000 1.0
C      1  0.4714590000000  0.4860360000000  0.4970680000000 1.0
C      1  0.5022530000000  0.4603130000000  0.4286330000000 1.0
C      1  0.4922480000000  0.4858590000000  0.4196370000000 1.0
C      1  0.5101300000000  0.4843100000000  0.5284060000000 1.0
C      1  0.4461780000000  0.5538880000000  0.4623630000000 1.0
C      1  0.4376110000000  0.4653410000000  0.5435430000000 1.0
C      1  0.5169420000000  0.5421040000000  0.5540610000000 1.0
C      1  0.5209080000000  0.5265270000000  0.4747640000000 1.0
C      1  0.4394970000000  0.5232370000000  0.5190420000000 1.0
C      1  0.5173380000000  0.4535900000000  0.4876070000000 1.0
C      1  0.4956860000000  0.5619830000000  0.5552740000000 1.0
C      1  0.5537250000000  0.5029060000000  0.4389980000000 1.0
C      1  0.5776930000000  0.5168700000000  0.5125940000000 1.0
C      1  0.5676290000000  0.4646490000000  0.4625220000000 1.0
C      1  0.4200830000000  0.5068850000000  0.5028470000000 1.0
C      1  0.5794620000000  0.5439470000000  0.5171010000000 1.0
C      1  0.5055260000000  0.4002170000000  0.4876850000000 1.0
C      1  0.4431500000000  0.4486940000000  0.4991140000000 1.0
C      1  0.5356240000000  0.5460960000000  0.4347110000000 1.0
C      1  0.5282790000000  0.4120820000000  0.4749980000000 1.0
C      1  0.4615430000000  0.5239120000000  0.5638020000000 1.0
C      1  0.4490050000000  0.5660070000000  0.4890960000000 1.0
C      1  0.4410530000000  0.5530610000000  0.5143900000000 1.0
C      1  0.4685730000000  0.5042680000000  0.4228030000000 1.0
C      1  0.5665840000000  0.5046130000000  0.4870150000000 1.0
C      1  0.5177050000000  0.4031020000000  0.5155590000000 1.0
C      1  0.5470870000000  0.4649190000000  0.5536150000000 1.0
C      1  0.4965050000000  0.5823490000000  0.5349230000000 1.0
C      1  0.5374800000000  0.4774000000000  0.5778250000000 1.0
C      1  0.4238890000000  0.4591230000000  0.5175830000000 1.0
C      1  0.5522790000000  0.5445680000000  0.4580260000000 1.0
C      1  0.5234630000000  0.5067810000000  0.5172200000000 1.0
C      1  0.5652710000000  0.5184980000000  0.4597490000000 1.0
C      1  0.5140790000000  0.4710150000000  0.5915310000000 1.0
C      1  0.4893750000000  0.4928800000000  0.4771440000000 1.0
C      1  0.5349450000000  0.5555930000000  0.4796820000000 1.0
C      1  0.5372680000000  0.5056800000000  0.5739550000000 1.0
C      1  0.5671650000000  0.4752420000000  0.5361510000000 1.0
C      1  0.4864830000000  0.5535750000000  0.4296570000000 1.0
C      1  0.4932340000000  0.5220860000000  0.4786760000000 1.0
C      1  0.4458850000000  0.4430530000000  0.4702710000000 1.0
C      1  0.5211590000000  0.4376730000000  0.4605780000000 1.0
C      1  0.5153060000000  0.4817860000000  0.4813830000000 1.0
C      1  0.4839570000000  0.4524640000000  0.5612010000000 1.0
C      1  0.5158250000000  0.5737810000000  0.4666960000000 1.0
C      1  0.5729510000000  0.5032000000000  0.5379350000000 1.0
C      1  0.5528230000000  0.4737530000000  0.4413430000000 1.0
C      1  0.4377740000000  0.5152180000000  0.5483030000000 1.0
C      1  0.5124380000000  0.5621690000000  0.4401200000000 1.0
C      1  0.4897380000000  0.5284290000000  0.5070460000000 1.0
C      1  0.4910760000000  0.4747140000000  0.5786830000000 1.0
C      1  0.5055060000000  0.4373300000000  0.5496580000000 1.0
C      1  0.4856240000000  0.5041940000000  0.5671440000000 1.0
C      1  0.4836780000000  0.4173600000000  0.4861570000000 1.0
C      1  0.5147650000000  0.5819250000000  0.5127480000000 1.0
C      1  0.4309530000000  0.4586530000000  0.4531550000000 1.0
END
