TITL C-71937-703-3 -4.5144762438287 125000 -638.313122100463 0 0 92 (C1) n - 1
REM
REM in /rds/project/t2_vol4/rds-t2-cs072/BORA/CARBON/from-Arr/AIRSS/Generating-Clusters/GAP-ML-2020/Only-C1/SD-CG/HFTN-CG
REM
REM
REM
REM
REM
REM ./C.cell (11c1c37f851c82e70ff6c80c92926a4b)
REM AIRSS Version 0.9.1 bugfix July 2018 build 013d7b7c2542+ Fri, 06 Jul 2018 19:26:36 +0100
REM compiler GCC version 9.3.0
REM options -cpp -mtune=generic -march=x86-64 -g -O0
REM seed 1202425588 -682620166 1734495195 191137025 776455768 -2011183068 1086440521 276609862 1945363375 2046911779 346768658 -1911792291 -190827650 385335106 -1020516909 1878066508 -1199125530 1877741673 1167932635 1740678020 944851174 1732871198 -1533638039 -1319106810 -2026372049 281665393 1648802939 1155661636 -172880506 -945720131 -1610129752 1189065729 613838810
REM
CELL 1.54180   50.00000   50.00000   50.00000   90.00000   90.00000   90.00000
LATT -1
SFAC C  
C      1  0.5165060000000  0.4216910000000  0.5376580000000 1.0
C      1  0.4503690000000  0.5093340000000  0.5606080000000 1.0
C      1  0.5546770000000  0.5289980000000  0.5649620000000 1.0
C      1  0.4569100000000  0.4626910000000  0.5538720000000 1.0
C      1  0.5279770000000  0.5200680000000  0.5736110000000 1.0
C      1  0.4305480000000  0.4365540000000  0.5045380000000 1.0
C      1  0.5250560000000  0.5799460000000  0.4835410000000 1.0
C      1  0.5163430000000  0.5082380000000  0.4159460000000 1.0
C      1  0.4500310000000  0.5460790000000  0.5280190000000 1.0
C      1  0.4196840000000  0.5071600000000  0.5188580000000 1.0
C      1  0.4607350000000  0.5028920000000  0.4782680000000 1.0
C      1  0.4901090000000  0.4630030000000  0.4712850000000 1.0
C      1  0.4707690000000  0.4232220000000  0.4719750000000 1.0
C      1  0.4760820000000  0.4435730000000  0.4491190000000 1.0
C      1  0.4773860000000  0.4905800000000  0.4333320000000 1.0
C      1  0.4702270000000  0.5718870000000  0.4688240000000 1.0
C      1  0.5010970000000  0.4369550000000  0.4372240000000 1.0
C      1  0.4869370000000  0.5708560000000  0.5403000000000 1.0
C      1  0.5063120000000  0.5051900000000  0.4735180000000 1.0
C      1  0.5606280000000  0.4662990000000  0.5319460000000 1.0
C      1  0.4855730000000  0.5482270000000  0.5577870000000 1.0
C      1  0.5570570000000  0.4585470000000  0.5049260000000 1.0
C      1  0.5179820000000  0.5319360000000  0.4296920000000 1.0
C      1  0.5174690000000  0.4598370000000  0.4300850000000 1.0
C      1  0.5013490000000  0.5312010000000  0.4814950000000 1.0
C      1  0.5043580000000  0.4540040000000  0.5740260000000 1.0
C      1  0.5193580000000  0.5680560000000  0.4583250000000 1.0
C      1  0.5351650000000  0.4416900000000  0.4935920000000 1.0
C      1  0.4916700000000  0.5650170000000  0.4504660000000 1.0
C      1  0.5370410000000  0.5635330000000  0.5279190000000 1.0
C      1  0.4538570000000  0.4352330000000  0.4913970000000 1.0
C      1  0.4931570000000  0.4541950000000  0.5176460000000 1.0
C      1  0.5455710000000  0.5691210000000  0.4992950000000 1.0
C      1  0.5699640000000  0.5067890000000  0.5613170000000 1.0
C      1  0.4221370000000  0.4605210000000  0.5156930000000 1.0
C      1  0.5781280000000  0.5188550000000  0.4509650000000 1.0
C      1  0.5041240000000  0.5867400000000  0.5016320000000 1.0
C      1  0.5411400000000  0.4249700000000  0.5480910000000 1.0
C      1  0.4729250000000  0.4592510000000  0.4962360000000 1.0
C      1  0.4570570000000  0.4658400000000  0.4394740000000 1.0
C      1  0.4294330000000  0.4977090000000  0.5440430000000 1.0
C      1  0.4973260000000  0.4172380000000  0.4813470000000 1.0
C      1  0.4931990000000  0.4807950000000  0.5780730000000 1.0
C      1  0.5629410000000  0.4747570000000  0.4581280000000 1.0
C      1  0.5489880000000  0.4515810000000  0.5536530000000 1.0
C      1  0.5045120000000  0.5341840000000  0.5096980000000 1.0
C      1  0.5594950000000  0.5518850000000  0.5456840000000 1.0
C      1  0.4814170000000  0.4993950000000  0.5182940000000 1.0
C      1  0.4514610000000  0.5495340000000  0.4689200000000 1.0
C      1  0.4282030000000  0.5331650000000  0.5116970000000 1.0
C      1  0.5530000000000  0.5161130000000  0.5194700000000 1.0
C      1  0.4769910000000  0.5801670000000  0.4957810000000 1.0
C      1  0.5748100000000  0.5388620000000  0.5244070000000 1.0
C      1  0.5497100000000  0.5049930000000  0.4919530000000 1.0
C      1  0.4589120000000  0.5361950000000  0.5549120000000 1.0
C      1  0.5201860000000  0.4642920000000  0.4767170000000 1.0
C      1  0.5392530000000  0.4586590000000  0.4512190000000 1.0
C      1  0.4706920000000  0.5299560000000  0.4837300000000 1.0
C      1  0.5640890000000  0.4790650000000  0.4863060000000 1.0
C      1  0.5311300000000  0.4651570000000  0.5722780000000 1.0
C      1  0.4320700000000  0.5124700000000  0.4663440000000 1.0
C      1  0.5384610000000  0.4319920000000  0.4652840000000 1.0
C      1  0.5781300000000  0.4941670000000  0.4447500000000 1.0
C      1  0.4153420000000  0.4843500000000  0.5004970000000 1.0
C      1  0.4293200000000  0.5365550000000  0.4840670000000 1.0
C      1  0.4694380000000  0.5212550000000  0.4322420000000 1.0
C      1  0.5563800000000  0.5315740000000  0.4684770000000 1.0
C      1  0.4663500000000  0.4857260000000  0.5691340000000 1.0
C      1  0.5891320000000  0.5496680000000  0.5042570000000 1.0
C      1  0.5219560000000  0.4900810000000  0.4910500000000 1.0
C      1  0.5203120000000  0.4924710000000  0.5777160000000 1.0
C      1  0.5056600000000  0.4839910000000  0.5174060000000 1.0
C      1  0.4338550000000  0.4693600000000  0.4530170000000 1.0
C      1  0.5046900000000  0.4840830000000  0.4211190000000 1.0
C      1  0.4325480000000  0.4696980000000  0.5411050000000 1.0
C      1  0.4906730000000  0.5407290000000  0.4342920000000 1.0
C      1  0.4769730000000  0.5275440000000  0.5140690000000 1.0
C      1  0.4195980000000  0.4865360000000  0.4703290000000 1.0
C      1  0.4837340000000  0.4905580000000  0.4631790000000 1.0
C      1  0.5349100000000  0.5455710000000  0.4495460000000 1.0
C      1  0.5112080000000  0.5795150000000  0.5287780000000 1.0
C      1  0.5108680000000  0.4299590000000  0.5081570000000 1.0
C      1  0.5637880000000  0.4943200000000  0.5372130000000 1.0
C      1  0.5661830000000  0.5528540000000  0.4883650000000 1.0
C      1  0.5110500000000  0.5348880000000  0.5571410000000 1.0
C      1  0.4966010000000  0.4320670000000  0.5579480000000 1.0
C      1  0.5257520000000  0.5331150000000  0.5286640000000 1.0
C      1  0.4471840000000  0.5293340000000  0.4466690000000 1.0
C      1  0.4770930000000  0.4454930000000  0.5430600000000 1.0
C      1  0.4619770000000  0.4860500000000  0.5025360000000 1.0
C      1  0.5138770000000  0.4208860000000  0.4587930000000 1.0
C      1  0.4656730000000  0.5706590000000  0.5210300000000 1.0
END
