TITL C-71929-693-10 -0.113786271915026 125000 -66.9358387663402 0 0 11 (Cs) n - 1
REM
REM in /rds/project/t2_vol4/rds-t2-cs072/BORA/CARBON/from-Arr/AIRSS/Generating-Clusters/GAP-ML-2020/Only-C1/SD-CG/HFTN-CG
REM
REM
REM
REM
REM
REM ./C.cell (11c1c37f851c82e70ff6c80c92926a4b)
REM AIRSS Version 0.9.1 bugfix July 2018 build 013d7b7c2542+ Fri, 06 Jul 2018 19:26:36 +0100
REM compiler GCC version 9.3.0
REM options -cpp -mtune=generic -march=x86-64 -g -O0
REM seed 1841807460 889604946 383025788 1493764579 1980323952 210390237 150975657 -1965060407 -795078579 -1539247246 1225631215 383411902 -935929136 1670362850 -182491674 73203016 1233851259 426264001 192765086 -556345863 -494425180 299676005 -1516032778 -1681829150 -1637224115 -216782013 -1358861274 474382928 -1357643909 -642619260 622219737 -996165653 -1804228996
REM
CELL 1.54180   50.00000   50.00000   50.00000   90.00000   90.00000   90.00000
LATT -1
SFAC C  
C      1  0.4789590000000  0.4332360000000  0.5179670000000 1.0
C      1  0.4847840000000  0.4569020000000  0.5119930000000 1.0
C      1  0.4870950000000  0.4836060000000  0.5062800000000 1.0
C      1  0.5371740000000  0.4863820000000  0.4936510000000 1.0
C      1  0.5123980000000  0.4972110000000  0.4975440000000 1.0
C      1  0.5102720000000  0.5235850000000  0.4929670000000 1.0
C      1  0.4486520000000  0.5182110000000  0.5088850000000 1.0
C      1  0.4657540000000  0.5001720000000  0.5082370000000 1.0
C      1  0.5019070000000  0.5722710000000  0.4855910000000 1.0
C      1  0.5609450000000  0.4800690000000  0.4891290000000 1.0
C      1  0.5120590000000  0.5483550000000  0.4877550000000 1.0
END
