TITL C-71941-715-9 -816.728527310115 125000 -1006.78281776171 0 0 143 (C1) n - 1
REM
REM in /rds/project/t2_vol4/rds-t2-cs072/BORA/CARBON/from-Arr/AIRSS/Generating-Clusters/GAP-ML-2020/Only-C1/SD-CG/HFTN-CG
REM
REM
REM
REM
REM
REM ./C.cell (11c1c37f851c82e70ff6c80c92926a4b)
REM AIRSS Version 0.9.1 bugfix July 2018 build 013d7b7c2542+ Fri, 06 Jul 2018 19:26:36 +0100
REM compiler GCC version 9.3.0
REM options -cpp -mtune=generic -march=x86-64 -g -O0
REM seed -1332232968 224627285 -699282337 -1605273474 945270314 -2113194333 1130665235 -2037154463 1450706138 -818372761 -1896728453 -542423381 1790852175 -282587171 1828430222 -439132173 1183572888 -1626796392 452386056 445783648 878745887 -787642172 421141482 526685518 -1723148027 208290905 1935410072 -396850620 615767016 1621599752 -1362413285 -555377260 1941848022
REM
CELL 1.54180   50.00000   50.00000   50.00000   90.00000   90.00000   90.00000
LATT -1
SFAC C  
C      1  0.5232440000000  0.5527020000000  0.4307440000000 1.0
C      1  0.4702670000000  0.5320670000000  0.4102270000000 1.0
C      1  0.4740660000000  0.4381350000000  0.5680930000000 1.0
C      1  0.4774870000000  0.4843510000000  0.5318770000000 1.0
C      1  0.5343680000000  0.5925260000000  0.4642810000000 1.0
C      1  0.5527950000000  0.4166050000000  0.5158140000000 1.0
C      1  0.5881930000000  0.5235510000000  0.4754820000000 1.0
C      1  0.4215890000000  0.4795710000000  0.5004250000000 1.0
C      1  0.5328390000000  0.4985080000000  0.4756560000000 1.0
C      1  0.5450620000000  0.5339670000000  0.5862640000000 1.0
C      1  0.5179390000000  0.3987440000000  0.4719610000000 1.0
C      1  0.4473270000000  0.4515600000000  0.5663350000000 1.0
C      1  0.5405540000000  0.5911780000000  0.5133680000000 1.0
C      1  0.4384680000000  0.4490170000000  0.5387790000000 1.0
C      1  0.4683450000000  0.5353770000000  0.4808320000000 1.0
C      1  0.5534040000000  0.5654750000000  0.5587990000000 1.0
C      1  0.5099480000000  0.3964980000000  0.5005650000000 1.0
C      1  0.5758820000000  0.4957060000000  0.5553980000000 1.0
C      1  0.5547520000000  0.4800220000000  0.4255310000000 1.0
C      1  0.4714520000000  0.4005310000000  0.4757570000000 1.0
C      1  0.5512480000000  0.4872440000000  0.5696980000000 1.0
C      1  0.4307990000000  0.5013920000000  0.4249740000000 1.0
C      1  0.5668060000000  0.4262970000000  0.4914930000000 1.0
C      1  0.4856160000000  0.4190330000000  0.5509580000000 1.0
C      1  0.5079860000000  0.4499950000000  0.5275430000000 1.0
C      1  0.5135370000000  0.4420120000000  0.4302100000000 1.0
C      1  0.4787680000000  0.5606280000000  0.5397330000000 1.0
C      1  0.4120540000000  0.5252570000000  0.5256330000000 1.0
C      1  0.4671660000000  0.4328690000000  0.4314010000000 1.0
C      1  0.4941980000000  0.6047810000000  0.4932660000000 1.0
C      1  0.5130090000000  0.5374460000000  0.4542860000000 1.0
C      1  0.5404370000000  0.4358520000000  0.5583150000000 1.0
C      1  0.4744220000000  0.5724100000000  0.4501150000000 1.0
C      1  0.5370750000000  0.5332460000000  0.4142880000000 1.0
C      1  0.5578360000000  0.5771150000000  0.5324680000000 1.0
C      1  0.4255720000000  0.4495190000000  0.4422180000000 1.0
C      1  0.4434800000000  0.4287490000000  0.4465300000000 1.0
C      1  0.5155500000000  0.4240280000000  0.5434260000000 1.0
C      1  0.4190530000000  0.4291390000000  0.5116040000000 1.0
C      1  0.5230950000000  0.4578260000000  0.4534140000000 1.0
C      1  0.4226850000000  0.5239120000000  0.4402320000000 1.0
C      1  0.5795110000000  0.5237600000000  0.5500400000000 1.0
C      1  0.4602950000000  0.4614490000000  0.5220020000000 1.0
C      1  0.4817770000000  0.4424100000000  0.5142150000000 1.0
C      1  0.4902470000000  0.4983470000000  0.4515120000000 1.0
C      1  0.5229790000000  0.5799290000000  0.4383190000000 1.0
C      1  0.5810670000000  0.5503580000000  0.4682170000000 1.0
C      1  0.4952570000000  0.5872430000000  0.5399390000000 1.0
C      1  0.5296140000000  0.5273980000000  0.4752000000000 1.0
C      1  0.4348430000000  0.5338020000000  0.4786250000000 1.0
C      1  0.5316600000000  0.5596060000000  0.5787390000000 1.0
C      1  0.4403490000000  0.5053130000000  0.5688810000000 1.0
C      1  0.5215980000000  0.5298770000000  0.5246200000000 1.0
C      1  0.5318250000000  0.4833140000000  0.4084280000000 1.0
C      1  0.4450680000000  0.5749720000000  0.4582570000000 1.0
C      1  0.4334010000000  0.5672250000000  0.5090410000000 1.0
C      1  0.5911780000000  0.5180220000000  0.5031440000000 1.0
C      1  0.4848800000000  0.5268160000000  0.4557550000000 1.0
C      1  0.5408120000000  0.4590270000000  0.5755290000000 1.0
C      1  0.4142320000000  0.4557710000000  0.5209310000000 1.0
C      1  0.4387990000000  0.5476740000000  0.4491910000000 1.0
C      1  0.4427930000000  0.5834620000000  0.4870290000000 1.0
C      1  0.5638950000000  0.4811670000000  0.4707590000000 1.0
C      1  0.4792500000000  0.5637950000000  0.4803400000000 1.0
C      1  0.4681260000000  0.5453880000000  0.4366360000000 1.0
C      1  0.4707960000000  0.4138900000000  0.5247500000000 1.0
C      1  0.5124460000000  0.4620830000000  0.4086400000000 1.0
C      1  0.4168860000000  0.5139260000000  0.4660890000000 1.0
C      1  0.4926030000000  0.4215110000000  0.4354650000000 1.0
C      1  0.5707610000000  0.5030740000000  0.4321970000000 1.0
C      1  0.4418990000000  0.4213690000000  0.5267630000000 1.0
C      1  0.5019070000000  0.4727770000000  0.5464140000000 1.0
C      1  0.5745850000000  0.5695820000000  0.4889990000000 1.0
C      1  0.5325930000000  0.5025590000000  0.5215190000000 1.0
C      1  0.4531100000000  0.5080810000000  0.4081340000000 1.0
C      1  0.5609260000000  0.4320120000000  0.5388860000000 1.0
C      1  0.5134850000000  0.5193360000000  0.5520330000000 1.0
C      1  0.4697960000000  0.4800070000000  0.4514260000000 1.0
C      1  0.4714490000000  0.4726770000000  0.4800700000000 1.0
C      1  0.4866360000000  0.4932520000000  0.5032020000000 1.0
C      1  0.5044640000000  0.5618100000000  0.4985560000000 1.0
C      1  0.5519060000000  0.5875580000000  0.4867400000000 1.0
C      1  0.5079000000000  0.6028110000000  0.4688840000000 1.0
C      1  0.4762940000000  0.4944180000000  0.3965360000000 1.0
C      1  0.4924530000000  0.4601220000000  0.5762670000000 1.0
C      1  0.4547580000000  0.5210900000000  0.5241830000000 1.0
C      1  0.4494970000000  0.5548960000000  0.5316350000000 1.0
C      1  0.5277760000000  0.5429160000000  0.4980570000000 1.0
C      1  0.4133690000000  0.4869540000000  0.4710150000000 1.0
C      1  0.4816000000000  0.3971420000000  0.5026380000000 1.0
C      1  0.4686930000000  0.4602400000000  0.4255210000000 1.0
C      1  0.5140640000000  0.4479300000000  0.4798010000000 1.0
C      1  0.5044500000000  0.5688790000000  0.5782490000000 1.0
C      1  0.5403360000000  0.5061060000000  0.5911660000000 1.0
C      1  0.5537190000000  0.4602300000000  0.4510580000000 1.0
C      1  0.4940710000000  0.5169340000000  0.3992920000000 1.0
C      1  0.5406160000000  0.4100550000000  0.4627790000000 1.0
C      1  0.5660310000000  0.5408850000000  0.5672590000000 1.0
C      1  0.4341850000000  0.5502340000000  0.5570740000000 1.0
C      1  0.4768360000000  0.5223170000000  0.5050400000000 1.0
C      1  0.5160460000000  0.4876050000000  0.4543940000000 1.0
C      1  0.4207860000000  0.4755630000000  0.4446720000000 1.0
C      1  0.5012670000000  0.5938580000000  0.5658820000000 1.0
C      1  0.4855200000000  0.4691210000000  0.4040750000000 1.0
C      1  0.5914910000000  0.4907640000000  0.5097500000000 1.0
C      1  0.5839080000000  0.4727050000000  0.4902150000000 1.0
C      1  0.4285230000000  0.5047240000000  0.5161930000000 1.0
C      1  0.4886150000000  0.5042260000000  0.5934390000000 1.0
C      1  0.4808140000000  0.5505050000000  0.5683160000000 1.0
C      1  0.5685930000000  0.5502650000000  0.4438050000000 1.0
C      1  0.4193250000000  0.5266640000000  0.5533310000000 1.0
C      1  0.4742200000000  0.4787370000000  0.5886910000000 1.0
C      1  0.5200830000000  0.4884540000000  0.5008240000000 1.0
C      1  0.5235250000000  0.4599580000000  0.5036070000000 1.0
C      1  0.4475240000000  0.4156690000000  0.4714010000000 1.0
C      1  0.4651920000000  0.5080200000000  0.5481760000000 1.0
C      1  0.4682650000000  0.5184540000000  0.6083300000000 1.0
C      1  0.5808350000000  0.5018470000000  0.4585880000000 1.0
C      1  0.4477060000000  0.4771960000000  0.5786300000000 1.0
C      1  0.5163610000000  0.4925770000000  0.5991560000000 1.0
C      1  0.5820590000000  0.4473700000000  0.5018290000000 1.0
C      1  0.4466930000000  0.4635230000000  0.4950460000000 1.0
C      1  0.5176000000000  0.4651170000000  0.5909830000000 1.0
C      1  0.4935710000000  0.4027740000000  0.4570370000000 1.0
C      1  0.5265100000000  0.4067620000000  0.5207180000000 1.0
C      1  0.4965130000000  0.5907160000000  0.4450070000000 1.0
C      1  0.4880020000000  0.5205580000000  0.5649160000000 1.0
C      1  0.4382760000000  0.4336130000000  0.4917200000000 1.0
C      1  0.5855770000000  0.5359400000000  0.5243300000000 1.0
C      1  0.4941570000000  0.5426750000000  0.5193890000000 1.0
C      1  0.5591560000000  0.4296070000000  0.4634680000000 1.0
C      1  0.4867440000000  0.4483860000000  0.4853060000000 1.0
C      1  0.5099780000000  0.5908080000000  0.5140400000000 1.0
C      1  0.5769930000000  0.5622820000000  0.5168170000000 1.0
C      1  0.4479260000000  0.5241740000000  0.5918860000000 1.0
C      1  0.5628700000000  0.5298940000000  0.4259560000000 1.0
C      1  0.5250630000000  0.4926260000000  0.5483450000000 1.0
C      1  0.4185860000000  0.5446470000000  0.5030750000000 1.0
C      1  0.5799510000000  0.4512470000000  0.5299220000000 1.0
C      1  0.5858430000000  0.4789240000000  0.5351870000000 1.0
C      1  0.4694160000000  0.5900740000000  0.4926390000000 1.0
C      1  0.4527880000000  0.5487720000000  0.5784100000000 1.0
C      1  0.5223980000000  0.5119740000000  0.4028250000000 1.0
END
