TITL C-71919-761-10 33.7904388485677 125000 -98.842974178316 0 0 16 (C1) n - 1
REM
REM in /rds/project/t2_vol4/rds-t2-cs072/BORA/CARBON/from-Arr/AIRSS/Generating-Clusters/GAP-ML-2020/Only-C1/SD-CG/HFTN-CG
REM
REM
REM
REM
REM
REM ./C.cell (11c1c37f851c82e70ff6c80c92926a4b)
REM AIRSS Version 0.9.1 bugfix July 2018 build 013d7b7c2542+ Fri, 06 Jul 2018 19:26:36 +0100
REM compiler GCC version 9.3.0
REM options -cpp -mtune=generic -march=x86-64 -g -O0
REM seed -2076313807 560805315 -1071830674 -1840051702 56759885 420241498 -1364069539 33770139 435998567 -2039711740 -142024069 -779294504 -317799724 1126607520 281289808 -2021405932 -844616486 1618833585 820387756 1975363863 -84207921 156456432 -1331761796 -668337110 -1855982919 1210058296 2024958859 71486732 1664648075 -1728441908 1222026678 -146718991 1868002718
REM
CELL 1.54180   50.00000   50.00000   50.00000   90.00000   90.00000   90.00000
LATT -1
SFAC C  
C      1  0.5044010000000  0.4873870000000  0.4875500000000 1.0
C      1  0.5291470000000  0.5333340000000  0.5089070000000 1.0
C      1  0.4796100000000  0.5653390000000  0.4957200000000 1.0
C      1  0.5256490000000  0.5530320000000  0.4928840000000 1.0
C      1  0.4714990000000  0.5446360000000  0.5114700000000 1.0
C      1  0.5172980000000  0.4449450000000  0.5470560000000 1.0
C      1  0.5143050000000  0.4655340000000  0.5325240000000 1.0
C      1  0.4843530000000  0.5254520000000  0.5224930000000 1.0
C      1  0.4765890000000  0.4869760000000  0.4877850000000 1.0
C      1  0.5132270000000  0.4871240000000  0.5159830000000 1.0
C      1  0.5054880000000  0.4491260000000  0.4650420000000 1.0
C      1  0.4575960000000  0.4705430000000  0.4845920000000 1.0
C      1  0.5158540000000  0.4731940000000  0.4664420000000 1.0
C      1  0.5041900000000  0.5676410000000  0.4864380000000 1.0
C      1  0.4900650000000  0.4303230000000  0.4736830000000 1.0
C      1  0.5107280000000  0.5154140000000  0.5214310000000 1.0
END
