TITL C-71940-624-11 -0.0502262129319982 125000 -220.620995750528 0 0 34 (C1) n - 1
REM
REM in /rds/project/t2_vol4/rds-t2-cs072/BORA/CARBON/from-Arr/AIRSS/Generating-Clusters/GAP-ML-2020/Only-C1/SD-CG/HFTN-CG
REM
REM
REM
REM
REM
REM ./C.cell (11c1c37f851c82e70ff6c80c92926a4b)
REM AIRSS Version 0.9.1 bugfix July 2018 build 013d7b7c2542+ Fri, 06 Jul 2018 19:26:36 +0100
REM compiler GCC version 9.3.0
REM options -cpp -mtune=generic -march=x86-64 -g -O0
REM seed -1124279710 -699417269 -1788746554 -513739176 -265886764 -1044665979 1195872080 1443002178 -1866347746 1355023830 -959961433 -506598389 244642577 532313304 -1917054098 -265197366 673669798 513053948 60992291 -789288077 2062770578 -2036866032 1081392688 1641142348 391505977 -2138920366 -1866948508 -1028908873 2070838295 1232382040 -381168648 1332726566 1146842000
REM
CELL 1.54180   50.00000   50.00000   50.00000   90.00000   90.00000   90.00000
LATT -1
SFAC C  
C      1  0.5088600000000  0.4509450000000  0.4793080000000 1.0
C      1  0.4902560000000  0.4757320000000  0.4811310000000 1.0
C      1  0.5287190000000  0.4952840000000  0.5363620000000 1.0
C      1  0.4581100000000  0.4932290000000  0.5162540000000 1.0
C      1  0.5443500000000  0.4962710000000  0.4908740000000 1.0
C      1  0.5005070000000  0.5534290000000  0.4610060000000 1.0
C      1  0.4809160000000  0.5110090000000  0.5509950000000 1.0
C      1  0.5060620000000  0.4993790000000  0.5159570000000 1.0
C      1  0.4569550000000  0.5021370000000  0.4600780000000 1.0
C      1  0.5341060000000  0.4545620000000  0.4680300000000 1.0
C      1  0.5137060000000  0.5433200000000  0.5273560000000 1.0
C      1  0.5203270000000  0.5113520000000  0.4937050000000 1.0
C      1  0.4676440000000  0.5342240000000  0.5505400000000 1.0
C      1  0.4847970000000  0.4809040000000  0.5093610000000 1.0
C      1  0.5344420000000  0.5369530000000  0.5101450000000 1.0
C      1  0.4733970000000  0.5195760000000  0.4802680000000 1.0
C      1  0.5585610000000  0.5271930000000  0.5187480000000 1.0
C      1  0.5350680000000  0.4950440000000  0.4452740000000 1.0
C      1  0.5125750000000  0.5106300000000  0.4474640000000 1.0
C      1  0.4900840000000  0.5493840000000  0.5113150000000 1.0
C      1  0.5514010000000  0.5000430000000  0.5200000000000 1.0
C      1  0.4648530000000  0.4877220000000  0.5442340000000 1.0
C      1  0.4638320000000  0.4779680000000  0.4632720000000 1.0
C      1  0.4668410000000  0.5384560000000  0.5236840000000 1.0
C      1  0.5436950000000  0.4806230000000  0.4672790000000 1.0
C      1  0.4995350000000  0.5029520000000  0.4733850000000 1.0
C      1  0.5092220000000  0.5378530000000  0.4427220000000 1.0
C      1  0.5017030000000  0.4275500000000  0.4939370000000 1.0
C      1  0.5085430000000  0.5153620000000  0.5422340000000 1.0
C      1  0.4889910000000  0.4234610000000  0.5156020000000 1.0
C      1  0.4797780000000  0.4640570000000  0.5358460000000 1.0
C      1  0.4777110000000  0.4373320000000  0.5360080000000 1.0
C      1  0.4854860000000  0.5474700000000  0.4827150000000 1.0
C      1  0.4589670000000  0.5185940000000  0.5049110000000 1.0
END
