TITL C-71945-782-5 0.123637127259266 125000 -584.519441691917 0 0 84 (C1) n - 1
REM
REM in /rds/project/t2_vol4/rds-t2-cs072/BORA/CARBON/from-Arr/AIRSS/Generating-Clusters/GAP-ML-2020/Only-C1/SD-CG/HFTN-CG
REM
REM
REM
REM
REM
REM ./C.cell (11c1c37f851c82e70ff6c80c92926a4b)
REM AIRSS Version 0.9.1 bugfix July 2018 build 013d7b7c2542+ Fri, 06 Jul 2018 19:26:36 +0100
REM compiler GCC version 9.3.0
REM options -cpp -mtune=generic -march=x86-64 -g -O0
REM seed 7336548 419831442 -62794735 -1464743855 -1523712570 1320473772 1898943600 1676233030 -1326726161 344324876 264795317 1278189819 -1105021596 -2017387284 928273081 -794839119 1418089397 -1993714426 447734859 1376254698 1530006076 1166904936 374328022 -2064988902 1261401204 382280914 -1979876635 534547577 -448494476 1086305995 1126670107 572592888 -1793314144
REM
CELL 1.54180   50.00000   50.00000   50.00000   90.00000   90.00000   90.00000
LATT -1
SFAC C  
C      1  0.5812460000000  0.5158670000000  0.4751570000000 1.0
C      1  0.5632710000000  0.4462780000000  0.4980690000000 1.0
C      1  0.4572160000000  0.4888360000000  0.5045150000000 1.0
C      1  0.4150540000000  0.5145010000000  0.4998770000000 1.0
C      1  0.4564320000000  0.5689030000000  0.5020310000000 1.0
C      1  0.4553170000000  0.4967330000000  0.4306990000000 1.0
C      1  0.5192010000000  0.4942160000000  0.4313990000000 1.0
C      1  0.5324760000000  0.5174490000000  0.5593610000000 1.0
C      1  0.4419090000000  0.5401420000000  0.4623770000000 1.0
C      1  0.5866210000000  0.5118390000000  0.4481250000000 1.0
C      1  0.5315720000000  0.4900530000000  0.5699400000000 1.0
C      1  0.4931460000000  0.4365290000000  0.5396230000000 1.0
C      1  0.5285730000000  0.4995890000000  0.4995210000000 1.0
C      1  0.4788420000000  0.4613590000000  0.5344810000000 1.0
C      1  0.4371330000000  0.4571200000000  0.4813170000000 1.0
C      1  0.5049590000000  0.4672730000000  0.4965820000000 1.0
C      1  0.5723900000000  0.5412940000000  0.4868070000000 1.0
C      1  0.4864810000000  0.4244910000000  0.4896700000000 1.0
C      1  0.4979430000000  0.5140760000000  0.4380860000000 1.0
C      1  0.4905180000000  0.5034740000000  0.4670560000000 1.0
C      1  0.4807720000000  0.4828970000000  0.5753380000000 1.0
C      1  0.4718680000000  0.5192940000000  0.4264810000000 1.0
C      1  0.5014450000000  0.4826700000000  0.5382170000000 1.0
C      1  0.5088590000000  0.5588800000000  0.4542360000000 1.0
C      1  0.5027240000000  0.4494110000000  0.4509890000000 1.0
C      1  0.5504590000000  0.5622730000000  0.4851340000000 1.0
C      1  0.5620690000000  0.4503970000000  0.5269080000000 1.0
C      1  0.5247460000000  0.4721030000000  0.4503840000000 1.0
C      1  0.5090300000000  0.4733970000000  0.5662940000000 1.0
C      1  0.4724730000000  0.5119620000000  0.5137090000000 1.0
C      1  0.5614920000000  0.5010310000000  0.4450310000000 1.0
C      1  0.5583950000000  0.4866080000000  0.5597190000000 1.0
C      1  0.4270620000000  0.5148110000000  0.4721240000000 1.0
C      1  0.5722660000000  0.5435930000000  0.5156510000000 1.0
C      1  0.5607210000000  0.5156940000000  0.5547650000000 1.0
C      1  0.5382500000000  0.5148000000000  0.4341870000000 1.0
C      1  0.4369710000000  0.4851640000000  0.5479870000000 1.0
C      1  0.5819000000000  0.4950310000000  0.5197210000000 1.0
C      1  0.4568010000000  0.5623350000000  0.4745510000000 1.0
C      1  0.4342700000000  0.5143040000000  0.5468180000000 1.0
C      1  0.4765570000000  0.4573560000000  0.4579740000000 1.0
C      1  0.4796170000000  0.5596530000000  0.4556570000000 1.0
C      1  0.5134450000000  0.4865620000000  0.4755750000000 1.0
C      1  0.4767730000000  0.5093150000000  0.5656850000000 1.0
C      1  0.4176940000000  0.4611890000000  0.5009720000000 1.0
C      1  0.4454520000000  0.4869910000000  0.4763390000000 1.0
C      1  0.5095310000000  0.5783990000000  0.5012830000000 1.0
C      1  0.4104340000000  0.5097200000000  0.4454020000000 1.0
C      1  0.4093730000000  0.4873690000000  0.5066110000000 1.0
C      1  0.5311090000000  0.4153360000000  0.4703790000000 1.0
C      1  0.5696540000000  0.4681650000000  0.4799570000000 1.0
C      1  0.4263500000000  0.5288890000000  0.5224010000000 1.0
C      1  0.5548530000000  0.4747380000000  0.4552600000000 1.0
C      1  0.4425900000000  0.5534060000000  0.5229120000000 1.0
C      1  0.4902100000000  0.5193370000000  0.4936110000000 1.0
C      1  0.5178420000000  0.5360030000000  0.4390120000000 1.0
C      1  0.4597790000000  0.5519310000000  0.5457090000000 1.0
C      1  0.5382460000000  0.4374800000000  0.5385140000000 1.0
C      1  0.4281980000000  0.5006990000000  0.4289890000000 1.0
C      1  0.5766080000000  0.5208420000000  0.5318960000000 1.0
C      1  0.5160270000000  0.4449330000000  0.5553520000000 1.0
C      1  0.5815920000000  0.4916580000000  0.4916860000000 1.0
C      1  0.5265810000000  0.5727040000000  0.5236300000000 1.0
C      1  0.5714590000000  0.4747400000000  0.5371960000000 1.0
C      1  0.5520020000000  0.5650020000000  0.5142840000000 1.0
C      1  0.5103000000000  0.5576260000000  0.5420300000000 1.0
C      1  0.4668100000000  0.4850830000000  0.4562190000000 1.0
C      1  0.4989450000000  0.4217490000000  0.5159270000000 1.0
C      1  0.5430890000000  0.4251150000000  0.4931020000000 1.0
C      1  0.5134870000000  0.5280900000000  0.5385180000000 1.0
C      1  0.5160800000000  0.5231960000000  0.5064630000000 1.0
C      1  0.4834650000000  0.5660700000000  0.5388190000000 1.0
C      1  0.4757550000000  0.4660940000000  0.5046320000000 1.0
C      1  0.5061970000000  0.4260610000000  0.4676090000000 1.0
C      1  0.4902390000000  0.5097470000000  0.5397370000000 1.0
C      1  0.4820670000000  0.5770800000000  0.5121630000000 1.0
C      1  0.4624190000000  0.5407190000000  0.4420380000000 1.0
C      1  0.4657390000000  0.4462020000000  0.4836350000000 1.0
C      1  0.4614670000000  0.4736620000000  0.5566510000000 1.0
C      1  0.5207310000000  0.4786720000000  0.5174170000000 1.0
C      1  0.4317680000000  0.4768840000000  0.5215790000000 1.0
C      1  0.5235860000000  0.5702490000000  0.4764930000000 1.0
C      1  0.4551450000000  0.5275650000000  0.5604930000000 1.0
C      1  0.5278620000000  0.4210440000000  0.5172520000000 1.0
END
