TITL C-71945-782-6 -0.213831608185241 125000 -497.856269657225 0 0 71 (C1) n - 1
REM
REM in /rds/project/t2_vol4/rds-t2-cs072/BORA/CARBON/from-Arr/AIRSS/Generating-Clusters/GAP-ML-2020/Only-C1/SD-CG/HFTN-CG
REM
REM
REM
REM
REM
REM ./C.cell (11c1c37f851c82e70ff6c80c92926a4b)
REM AIRSS Version 0.9.1 bugfix July 2018 build 013d7b7c2542+ Fri, 06 Jul 2018 19:26:36 +0100
REM compiler GCC version 9.3.0
REM options -cpp -mtune=generic -march=x86-64 -g -O0
REM seed -1627683393 -282939043 2093340323 -962900716 -1656869740 -675731981 1987800273 -1804970870 96318534 -825492123 -239984263 1533012954 986463888 -244465385 749905580 -487076192 523946323 -978456726 114434326 -1927313720 977081245 872969561 -968909052 -2015618282 -1134685532 -1968115367 446244496 127306645 -873846064 -1682651791 -1848383115 1999237907 -1477940867
REM
CELL 1.54180   50.00000   50.00000   50.00000   90.00000   90.00000   90.00000
LATT -1
SFAC C  
C      1  0.5287240000000  0.4925140000000  0.5123350000000 1.0
C      1  0.4274690000000  0.5028090000000  0.5086890000000 1.0
C      1  0.4862610000000  0.4613160000000  0.4365770000000 1.0
C      1  0.5237920000000  0.4365680000000  0.5037020000000 1.0
C      1  0.5074550000000  0.4961480000000  0.5645640000000 1.0
C      1  0.4711120000000  0.5345950000000  0.4439230000000 1.0
C      1  0.5007810000000  0.5147770000000  0.4865050000000 1.0
C      1  0.5392310000000  0.4745050000000  0.5453640000000 1.0
C      1  0.5171790000000  0.4560800000000  0.5490450000000 1.0
C      1  0.4525970000000  0.5151770000000  0.4418070000000 1.0
C      1  0.4335890000000  0.5195810000000  0.4862890000000 1.0
C      1  0.5791470000000  0.5158170000000  0.5168840000000 1.0
C      1  0.5508180000000  0.4577230000000  0.4638890000000 1.0
C      1  0.5253990000000  0.4482680000000  0.4567750000000 1.0
C      1  0.5257200000000  0.5202240000000  0.4367280000000 1.0
C      1  0.5128870000000  0.4672070000000  0.4392600000000 1.0
C      1  0.5512380000000  0.4736220000000  0.5186000000000 1.0
C      1  0.4466950000000  0.4805350000000  0.5504650000000 1.0
C      1  0.5497180000000  0.5675850000000  0.5118160000000 1.0
C      1  0.5383420000000  0.5497240000000  0.4893890000000 1.0
C      1  0.4848510000000  0.4324820000000  0.4755870000000 1.0
C      1  0.5083500000000  0.4394280000000  0.5268890000000 1.0
C      1  0.5520950000000  0.4849780000000  0.4564850000000 1.0
C      1  0.5142240000000  0.5361410000000  0.5012320000000 1.0
C      1  0.5334870000000  0.5589900000000  0.4616070000000 1.0
C      1  0.4803840000000  0.4333460000000  0.5247980000000 1.0
C      1  0.4843570000000  0.4938270000000  0.4967110000000 1.0
C      1  0.5124610000000  0.4336640000000  0.4774780000000 1.0
C      1  0.4151770000000  0.4781870000000  0.5009990000000 1.0
C      1  0.4704820000000  0.4649860000000  0.5613190000000 1.0
C      1  0.5658380000000  0.4444580000000  0.4821840000000 1.0
C      1  0.4358930000000  0.5054150000000  0.4610880000000 1.0
C      1  0.5105400000000  0.4888660000000  0.4911670000000 1.0
C      1  0.4691250000000  0.4308790000000  0.4989140000000 1.0
C      1  0.5668120000000  0.4939830000000  0.5044950000000 1.0
C      1  0.4626390000000  0.4428550000000  0.5445790000000 1.0
C      1  0.5734510000000  0.5557140000000  0.5199050000000 1.0
C      1  0.4710180000000  0.4479940000000  0.4553080000000 1.0
C      1  0.5350960000000  0.4988900000000  0.5604300000000 1.0
C      1  0.4267960000000  0.4537540000000  0.5120450000000 1.0
C      1  0.4560170000000  0.5508360000000  0.5163560000000 1.0
C      1  0.4645210000000  0.5519550000000  0.4673680000000 1.0
C      1  0.5071670000000  0.5605570000000  0.4528180000000 1.0
C      1  0.5225110000000  0.5546720000000  0.5487530000000 1.0
C      1  0.5397710000000  0.5267540000000  0.5467870000000 1.0
C      1  0.5814670000000  0.5374610000000  0.4980630000000 1.0
C      1  0.5211460000000  0.5184870000000  0.5249960000000 1.0
C      1  0.5632750000000  0.5013570000000  0.4764650000000 1.0
C      1  0.5462690000000  0.5366470000000  0.4498330000000 1.0
C      1  0.5491730000000  0.4490390000000  0.5034650000000 1.0
C      1  0.5301140000000  0.4916650000000  0.4389020000000 1.0
C      1  0.5673750000000  0.5325940000000  0.5377120000000 1.0
C      1  0.4762210000000  0.4958830000000  0.5238320000000 1.0
C      1  0.5624800000000  0.5298010000000  0.4754970000000 1.0
C      1  0.4795730000000  0.5336010000000  0.5511730000000 1.0
C      1  0.4436400000000  0.4417100000000  0.4924270000000 1.0
C      1  0.4479900000000  0.5436440000000  0.4895870000000 1.0
C      1  0.4380840000000  0.4559550000000  0.5368750000000 1.0
C      1  0.4447520000000  0.4536520000000  0.4665310000000 1.0
C      1  0.4939930000000  0.5563920000000  0.5458550000000 1.0
C      1  0.4955060000000  0.5108890000000  0.5416380000000 1.0
C      1  0.4275930000000  0.4771740000000  0.4639710000000 1.0
C      1  0.4034280000000  0.4752770000000  0.4767200000000 1.0
C      1  0.4806790000000  0.5648120000000  0.5213810000000 1.0
C      1  0.4464510000000  0.5042280000000  0.5313640000000 1.0
C      1  0.4878330000000  0.5660490000000  0.4731060000000 1.0
C      1  0.5002160000000  0.5374750000000  0.4376770000000 1.0
C      1  0.4541140000000  0.5321280000000  0.5372930000000 1.0
C      1  0.5326500000000  0.5734240000000  0.5324640000000 1.0
C      1  0.4972840000000  0.5629550000000  0.4993850000000 1.0
C      1  0.4974780000000  0.4693150000000  0.5658810000000 1.0
END
