TITL C-71922-743-6 -0.12019407614403 125000 -371.934802901518 0 0 56 (C1) n - 1
REM
REM in /rds/project/t2_vol4/rds-t2-cs072/BORA/CARBON/from-Arr/AIRSS/Generating-Clusters/GAP-ML-2020/Only-C1/SD-CG/HFTN-CG
REM
REM
REM
REM
REM
REM ./C.cell (11c1c37f851c82e70ff6c80c92926a4b)
REM AIRSS Version 0.9.1 bugfix July 2018 build 013d7b7c2542+ Fri, 06 Jul 2018 19:26:36 +0100
REM compiler GCC version 9.3.0
REM options -cpp -mtune=generic -march=x86-64 -g -O0
REM seed -390163593 -1948922310 1237000244 573595977 1398391961 142797501 1853026075 850371457 304596040 1010898207 2020054081 -1962552932 -1081329661 1074275716 1421316677 616415853 1123843279 810110434 -50950025 982714028 -900041987 -2062036340 -1641772134 -523397638 -2025185141 -1430081298 1998562199 -598761718 -130995958 1597117338 -941414814 -1719494838 1005635854
REM
CELL 1.54180   50.00000   50.00000   50.00000   90.00000   90.00000   90.00000
LATT -1
SFAC C  
C      1  0.4965900000000  0.5554290000000  0.5452750000000 1.0
C      1  0.5085130000000  0.5132180000000  0.5592180000000 1.0
C      1  0.4626000000000  0.4457290000000  0.5138740000000 1.0
C      1  0.4853330000000  0.4313100000000  0.5012470000000 1.0
C      1  0.4749700000000  0.5051860000000  0.4834730000000 1.0
C      1  0.4773280000000  0.4820580000000  0.4998630000000 1.0
C      1  0.4804090000000  0.5447970000000  0.5228260000000 1.0
C      1  0.5038910000000  0.4822840000000  0.5599390000000 1.0
C      1  0.5357220000000  0.5156130000000  0.5470020000000 1.0
C      1  0.5395620000000  0.5502310000000  0.4837850000000 1.0
C      1  0.4373580000000  0.4811570000000  0.4662030000000 1.0
C      1  0.5272370000000  0.4413930000000  0.4796550000000 1.0
C      1  0.5456670000000  0.4897090000000  0.5409530000000 1.0
C      1  0.4997650000000  0.4326700000000  0.5272800000000 1.0
C      1  0.4354540000000  0.4898370000000  0.4927940000000 1.0
C      1  0.4982140000000  0.4812570000000  0.4528540000000 1.0
C      1  0.5422250000000  0.4669450000000  0.4710480000000 1.0
C      1  0.5027050000000  0.5835350000000  0.4814680000000 1.0
C      1  0.5555340000000  0.4650060000000  0.4990800000000 1.0
C      1  0.4779740000000  0.4465220000000  0.5385420000000 1.0
C      1  0.5022460000000  0.5308670000000  0.4541930000000 1.0
C      1  0.4743210000000  0.5463590000000  0.4556160000000 1.0
C      1  0.4788880000000  0.4711520000000  0.5511900000000 1.0
C      1  0.4847220000000  0.4534950000000  0.4580530000000 1.0
C      1  0.4560610000000  0.4849220000000  0.5392340000000 1.0
C      1  0.5250420000000  0.4449150000000  0.5314090000000 1.0
C      1  0.5165360000000  0.4808590000000  0.4774100000000 1.0
C      1  0.4934560000000  0.5480480000000  0.4967930000000 1.0
C      1  0.4983730000000  0.5229190000000  0.4825740000000 1.0
C      1  0.5394920000000  0.4431090000000  0.5065600000000 1.0
C      1  0.4903700000000  0.5166860000000  0.5344260000000 1.0
C      1  0.4708960000000  0.4928570000000  0.4556850000000 1.0
C      1  0.4502640000000  0.5308810000000  0.4637460000000 1.0
C      1  0.4610260000000  0.5117960000000  0.5382870000000 1.0
C      1  0.5272540000000  0.4691390000000  0.5488450000000 1.0
C      1  0.4827220000000  0.5664790000000  0.4744260000000 1.0
C      1  0.4989410000000  0.4366990000000  0.4770120000000 1.0
C      1  0.5576680000000  0.4873570000000  0.5151750000000 1.0
C      1  0.4589600000000  0.4635580000000  0.4608860000000 1.0
C      1  0.5205650000000  0.5067860000000  0.4920100000000 1.0
C      1  0.5030150000000  0.4740760000000  0.5041970000000 1.0
C      1  0.4993430000000  0.5389120000000  0.5683690000000 1.0
C      1  0.5186880000000  0.5649980000000  0.4981640000000 1.0
C      1  0.5375390000000  0.5096700000000  0.4465160000000 1.0
C      1  0.4540480000000  0.5303270000000  0.5183420000000 1.0
C      1  0.5409090000000  0.5390450000000  0.5310910000000 1.0
C      1  0.5508830000000  0.4857290000000  0.4507830000000 1.0
C      1  0.5072800000000  0.4990950000000  0.5165430000000 1.0
C      1  0.5097800000000  0.5056190000000  0.4404700000000 1.0
C      1  0.5217320000000  0.5596740000000  0.5289300000000 1.0
C      1  0.5528070000000  0.5362240000000  0.5049680000000 1.0
C      1  0.4487370000000  0.5180550000000  0.4922490000000 1.0
C      1  0.4462590000000  0.5057410000000  0.4490390000000 1.0
C      1  0.5508840000000  0.5094380000000  0.4987690000000 1.0
C      1  0.5313950000000  0.5369470000000  0.4589790000000 1.0
C      1  0.4518480000000  0.4736800000000  0.5126840000000 1.0
END
