TITL C-71943-692-5 226.947209428608 125000 -837.548789733084 0 0 120 (C1) n - 1
REM
REM in /rds/project/t2_vol4/rds-t2-cs072/BORA/CARBON/from-Arr/AIRSS/Generating-Clusters/GAP-ML-2020/Only-C1/SD-CG/HFTN-CG
REM
REM
REM
REM
REM
REM ./C.cell (11c1c37f851c82e70ff6c80c92926a4b)
REM AIRSS Version 0.9.1 bugfix July 2018 build 013d7b7c2542+ Fri, 06 Jul 2018 19:26:36 +0100
REM compiler GCC version 9.3.0
REM options -cpp -mtune=generic -march=x86-64 -g -O0
REM seed 1549775603 564022722 -1373513230 -57593044 1411469874 -2143357938 1856639241 -467083031 746115794 1782711355 -415032892 -1333676763 -177155576 -170046553 1902304137 2018098730 -1111754735 -1580294009 -1551207129 437825459 1030791327 12149158 -342654327 -379077630 1270834553 -158247326 86732540 -1914511221 -870784286 -1697987111 -1564903926 896629204 1897504564
REM
CELL 1.54180   50.00000   50.00000   50.00000   90.00000   90.00000   90.00000
LATT -1
SFAC C  
C      1  0.5223310000000  0.5536870000000  0.5852250000000 1.0
C      1  0.4290320000000  0.5530860000000  0.5151250000000 1.0
C      1  0.4814750000000  0.4568200000000  0.4298770000000 1.0
C      1  0.4915680000000  0.5751630000000  0.5490250000000 1.0
C      1  0.4609700000000  0.4163650000000  0.5072180000000 1.0
C      1  0.4106740000000  0.5052730000000  0.4590040000000 1.0
C      1  0.4927340000000  0.4434250000000  0.5109350000000 1.0
C      1  0.4845040000000  0.5356560000000  0.5742690000000 1.0
C      1  0.5204850000000  0.5860250000000  0.5044750000000 1.0
C      1  0.5126590000000  0.5774930000000  0.5306560000000 1.0
C      1  0.4770410000000  0.5409170000000  0.5138340000000 1.0
C      1  0.4288330000000  0.5799650000000  0.5100120000000 1.0
C      1  0.5181680000000  0.4494850000000  0.4995090000000 1.0
C      1  0.4889140000000  0.5928800000000  0.4534640000000 1.0
C      1  0.4324710000000  0.4528750000000  0.4894140000000 1.0
C      1  0.4485730000000  0.4384900000000  0.4677430000000 1.0
C      1  0.4704500000000  0.4100950000000  0.5629720000000 1.0
C      1  0.5567400000000  0.4333540000000  0.4819580000000 1.0
C      1  0.5746430000000  0.4749720000000  0.5420760000000 1.0
C      1  0.4379050000000  0.5400920000000  0.4395300000000 1.0
C      1  0.4027180000000  0.4918640000000  0.4826390000000 1.0
C      1  0.4686360000000  0.5642930000000  0.5323360000000 1.0
C      1  0.5526240000000  0.5271900000000  0.4388140000000 1.0
C      1  0.5200460000000  0.5056070000000  0.5555630000000 1.0
C      1  0.4682440000000  0.5081930000000  0.4144110000000 1.0
C      1  0.4623560000000  0.4157090000000  0.4790070000000 1.0
C      1  0.5415740000000  0.5172960000000  0.4138450000000 1.0
C      1  0.5539270000000  0.4653530000000  0.5598220000000 1.0
C      1  0.5292970000000  0.4828550000000  0.4593160000000 1.0
C      1  0.5163290000000  0.4740900000000  0.4811810000000 1.0
C      1  0.4543380000000  0.4843630000000  0.4589740000000 1.0
C      1  0.5081120000000  0.4398380000000  0.5607360000000 1.0
C      1  0.5681230000000  0.5061830000000  0.5754980000000 1.0
C      1  0.4334860000000  0.5333580000000  0.4913520000000 1.0
C      1  0.4059110000000  0.4643080000000  0.4951900000000 1.0
C      1  0.4434680000000  0.5152010000000  0.4259380000000 1.0
C      1  0.5415110000000  0.5202540000000  0.4839710000000 1.0
C      1  0.5129680000000  0.5157440000000  0.4066880000000 1.0
C      1  0.5478610000000  0.5519810000000  0.5713950000000 1.0
C      1  0.4245370000000  0.5043930000000  0.4991410000000 1.0
C      1  0.4814170000000  0.4815360000000  0.4140540000000 1.0
C      1  0.5314430000000  0.4496910000000  0.4225740000000 1.0
C      1  0.5747040000000  0.5039800000000  0.5468530000000 1.0
C      1  0.5512530000000  0.4903130000000  0.4084470000000 1.0
C      1  0.5122470000000  0.5363380000000  0.4791920000000 1.0
C      1  0.4979030000000  0.4981160000000  0.5367660000000 1.0
C      1  0.4894880000000  0.4152390000000  0.5180260000000 1.0
C      1  0.4105460000000  0.4678340000000  0.5246590000000 1.0
C      1  0.5701150000000  0.5358230000000  0.4836140000000 1.0
C      1  0.5446500000000  0.5691130000000  0.4655110000000 1.0
C      1  0.5687710000000  0.4487710000000  0.4615670000000 1.0
C      1  0.5580960000000  0.4525160000000  0.4349580000000 1.0
C      1  0.4822700000000  0.5551380000000  0.4227790000000 1.0
C      1  0.5062730000000  0.4404010000000  0.4332580000000 1.0
C      1  0.4219580000000  0.5320340000000  0.4631910000000 1.0
C      1  0.5789920000000  0.4661640000000  0.5158340000000 1.0
C      1  0.4647910000000  0.5407780000000  0.4879480000000 1.0
C      1  0.5445380000000  0.5127700000000  0.5391070000000 1.0
C      1  0.5467530000000  0.5050500000000  0.4590410000000 1.0
C      1  0.4695970000000  0.5726000000000  0.4850660000000 1.0
C      1  0.4212890000000  0.4936370000000  0.5261170000000 1.0
C      1  0.5687640000000  0.4776790000000  0.4260700000000 1.0
C      1  0.5295090000000  0.4720410000000  0.4048330000000 1.0
C      1  0.5718320000000  0.5480630000000  0.5276940000000 1.0
C      1  0.4923950000000  0.4562060000000  0.5787340000000 1.0
C      1  0.5470940000000  0.5437930000000  0.5427750000000 1.0
C      1  0.5867700000000  0.5137750000000  0.4999160000000 1.0
C      1  0.5621830000000  0.4446100000000  0.5080050000000 1.0
C      1  0.5501170000000  0.4846070000000  0.5804990000000 1.0
C      1  0.5087500000000  0.4232890000000  0.4561430000000 1.0
C      1  0.5004680000000  0.5715790000000  0.4384700000000 1.0
C      1  0.5830540000000  0.4739030000000  0.4692060000000 1.0
C      1  0.4321700000000  0.4953100000000  0.4429460000000 1.0
C      1  0.5465050000000  0.5764040000000  0.4933980000000 1.0
C      1  0.4436120000000  0.4995910000000  0.5420690000000 1.0
C      1  0.4934090000000  0.4907620000000  0.4878740000000 1.0
C      1  0.5860330000000  0.5228150000000  0.5264250000000 1.0
C      1  0.5230210000000  0.4976530000000  0.5852990000000 1.0
C      1  0.4925600000000  0.4174900000000  0.5479580000000 1.0
C      1  0.4446000000000  0.5238320000000  0.5563490000000 1.0
C      1  0.5621780000000  0.5478820000000  0.4561010000000 1.0
C      1  0.5754940000000  0.4926760000000  0.4493100000000 1.0
C      1  0.5306330000000  0.5261640000000  0.5965320000000 1.0
C      1  0.4419180000000  0.4466060000000  0.5645080000000 1.0
C      1  0.4998910000000  0.5840300000000  0.4816230000000 1.0
C      1  0.4624090000000  0.5184700000000  0.5780200000000 1.0
C      1  0.5083610000000  0.5051480000000  0.5108040000000 1.0
C      1  0.4808180000000  0.5006480000000  0.4629160000000 1.0
C      1  0.4880180000000  0.5293850000000  0.4110850000000 1.0
C      1  0.4282910000000  0.4486080000000  0.5378190000000 1.0
C      1  0.4711710000000  0.4589930000000  0.5194810000000 1.0
C      1  0.4603360000000  0.4568900000000  0.4494000000000 1.0
C      1  0.4850060000000  0.5264070000000  0.4702910000000 1.0
C      1  0.4568070000000  0.5608400000000  0.4364820000000 1.0
C      1  0.5183130000000  0.5481160000000  0.5333910000000 1.0
C      1  0.5669790000000  0.5585910000000  0.5024520000000 1.0
C      1  0.4702810000000  0.4909730000000  0.5863140000000 1.0
C      1  0.5379770000000  0.4446170000000  0.5219890000000 1.0
C      1  0.4963900000000  0.5619690000000  0.5756010000000 1.0
C      1  0.4635980000000  0.5811250000000  0.4570600000000 1.0
C      1  0.4981610000000  0.4825090000000  0.5907780000000 1.0
C      1  0.5025130000000  0.5280200000000  0.5519570000000 1.0
C      1  0.4696410000000  0.4823600000000  0.5030880000000 1.0
C      1  0.4478540000000  0.4186640000000  0.5715920000000 1.0
C      1  0.5371310000000  0.5051770000000  0.5099030000000 1.0
C      1  0.5572290000000  0.5293600000000  0.5862870000000 1.0
C      1  0.5157650000000  0.5630600000000  0.4633650000000 1.0
C      1  0.4452370000000  0.4817780000000  0.4876200000000 1.0
C      1  0.4633450000000  0.4629760000000  0.5777930000000 1.0
C      1  0.5273120000000  0.4252290000000  0.4806990000000 1.0
C      1  0.4558080000000  0.5807100000000  0.5099160000000 1.0
C      1  0.4893680000000  0.4088190000000  0.4716430000000 1.0
C      1  0.5335570000000  0.4483520000000  0.5496210000000 1.0
C      1  0.4455680000000  0.4406370000000  0.5155200000000 1.0
C      1  0.4442720000000  0.5472130000000  0.5395470000000 1.0
C      1  0.5072100000000  0.4057320000000  0.4947500000000 1.0
C      1  0.5052570000000  0.5350110000000  0.5093160000000 1.0
C      1  0.5064290000000  0.4876980000000  0.4028550000000 1.0
C      1  0.4703660000000  0.4881890000000  0.5321490000000 1.0
C      1  0.5869270000000  0.4849350000000  0.4950620000000 1.0
END
