TITL C-71931-801-5 -0.181096843173833 125000 -254.998116767733 0 0 39 (C1) n - 1
REM
REM in /rds/project/t2_vol4/rds-t2-cs072/BORA/CARBON/from-Arr/AIRSS/Generating-Clusters/GAP-ML-2020/Only-C1/SD-CG/HFTN-CG
REM
REM
REM
REM
REM
REM ./C.cell (11c1c37f851c82e70ff6c80c92926a4b)
REM AIRSS Version 0.9.1 bugfix July 2018 build 013d7b7c2542+ Fri, 06 Jul 2018 19:26:36 +0100
REM compiler GCC version 9.3.0
REM options -cpp -mtune=generic -march=x86-64 -g -O0
REM seed -328194735 -935589338 -340161036 1828062586 1475612425 -469676997 1868506722 -1209798099 -2147303529 -490141953 -441713246 832409969 1194202375 -1913002253 -1635776849 2109459667 1918770578 1502788450 1064998256 1080135466 -1104451077 -288225719 482051684 -678716308 -1443082411 -2003525639 -1675433945 -656904243 -1353057802 352254166 380620490 1588846361 -481398789
REM
CELL 1.54180   50.00000   50.00000   50.00000   90.00000   90.00000   90.00000
LATT -1
SFAC C  
C      1  0.5045550000000  0.5191160000000  0.5219810000000 1.0
C      1  0.5011180000000  0.4800000000000  0.5550340000000 1.0
C      1  0.5424110000000  0.5137600000000  0.4649630000000 1.0
C      1  0.5309390000000  0.4544000000000  0.5303790000000 1.0
C      1  0.4546280000000  0.5190730000000  0.4817670000000 1.0
C      1  0.4483660000000  0.4593370000000  0.4804560000000 1.0
C      1  0.5030580000000  0.4695990000000  0.4872860000000 1.0
C      1  0.4795580000000  0.5449480000000  0.4521510000000 1.0
C      1  0.4674990000000  0.4959370000000  0.4640400000000 1.0
C      1  0.4528420000000  0.5017860000000  0.5057860000000 1.0
C      1  0.4625550000000  0.5076700000000  0.5321510000000 1.0
C      1  0.5468990000000  0.4679000000000  0.5482540000000 1.0
C      1  0.4995550000000  0.5168890000000  0.4920640000000 1.0
C      1  0.5455720000000  0.5169750000000  0.5457390000000 1.0
C      1  0.5243040000000  0.5361610000000  0.4598890000000 1.0
C      1  0.4922910000000  0.5573960000000  0.4942270000000 1.0
C      1  0.5118330000000  0.4804760000000  0.4602470000000 1.0
C      1  0.5219410000000  0.4748890000000  0.5094120000000 1.0
C      1  0.4929980000000  0.4997120000000  0.4495910000000 1.0
C      1  0.4844820000000  0.4483180000000  0.4961550000000 1.0
C      1  0.4798920000000  0.5304260000000  0.5320330000000 1.0
C      1  0.5373500000000  0.4882090000000  0.4568350000000 1.0
C      1  0.5213100000000  0.4607650000000  0.5569570000000 1.0
C      1  0.4676900000000  0.4614220000000  0.5203970000000 1.0
C      1  0.4826780000000  0.5543020000000  0.5198710000000 1.0
C      1  0.4465590000000  0.4732980000000  0.5056410000000 1.0
C      1  0.5056880000000  0.4917500000000  0.5287650000000 1.0
C      1  0.4834670000000  0.4922290000000  0.4896230000000 1.0
C      1  0.5509420000000  0.5154670000000  0.4919610000000 1.0
C      1  0.4489120000000  0.4758100000000  0.4593810000000 1.0
C      1  0.4749300000000  0.5389380000000  0.4788300000000 1.0
C      1  0.5201920000000  0.5495370000000  0.4854170000000 1.0
C      1  0.4651000000000  0.4368240000000  0.4809100000000 1.0
C      1  0.5531010000000  0.4930030000000  0.5364270000000 1.0
C      1  0.5303880000000  0.5327510000000  0.5286360000000 1.0
C      1  0.5469350000000  0.4913710000000  0.5074940000000 1.0
C      1  0.4996070000000  0.5274290000000  0.4472320000000 1.0
C      1  0.5405960000000  0.5403670000000  0.5033090000000 1.0
C      1  0.4772570000000  0.4817590000000  0.5387060000000 1.0
END
