TITL C-71935-701-3 0.0671821252375238 125000 -889.981263169533 0 0 128 (C1) n - 1
REM
REM in /rds/project/t2_vol4/rds-t2-cs072/BORA/CARBON/from-Arr/AIRSS/Generating-Clusters/GAP-ML-2020/Only-C1/SD-CG/HFTN-CG
REM
REM
REM
REM
REM
REM ./C.cell (11c1c37f851c82e70ff6c80c92926a4b)
REM AIRSS Version 0.9.1 bugfix July 2018 build 013d7b7c2542+ Fri, 06 Jul 2018 19:26:36 +0100
REM compiler GCC version 9.3.0
REM options -cpp -mtune=generic -march=x86-64 -g -O0
REM seed 808837642 2057194071 1260873647 -472226014 -993339539 2047880507 22835049 1740581686 -1383483131 1676374610 -517676735 1592460762 1081947000 -1304192072 2097576987 511488500 -2107382193 -615636057 -247341671 1065000899 1158943751 1256899912 -1310267911 2002270725 950343807 -231056067 1328181379 1949082411 -1377973523 -1383675286 2078804968 1303739205 -1828911764
REM
CELL 1.54180   50.00000   50.00000   50.00000   90.00000   90.00000   90.00000
LATT -1
SFAC C  
C      1  0.5440970000000  0.5798140000000  0.4914680000000 1.0
C      1  0.4628860000000  0.5132770000000  0.5051810000000 1.0
C      1  0.4184900000000  0.4754340000000  0.4724920000000 1.0
C      1  0.4595540000000  0.4663910000000  0.5780860000000 1.0
C      1  0.4861460000000  0.4585100000000  0.4094030000000 1.0
C      1  0.5083240000000  0.5734520000000  0.5666010000000 1.0
C      1  0.4064830000000  0.4750360000000  0.5200380000000 1.0
C      1  0.5356180000000  0.4883340000000  0.4651710000000 1.0
C      1  0.5621100000000  0.5504130000000  0.5556390000000 1.0
C      1  0.5284790000000  0.4420740000000  0.5805120000000 1.0
C      1  0.5518730000000  0.4894740000000  0.5733720000000 1.0
C      1  0.4878220000000  0.4109580000000  0.4681250000000 1.0
C      1  0.5323560000000  0.5624070000000  0.4456800000000 1.0
C      1  0.5067580000000  0.4870370000000  0.5913200000000 1.0
C      1  0.4884050000000  0.5466450000000  0.4315930000000 1.0
C      1  0.5014160000000  0.4308560000000  0.5766030000000 1.0
C      1  0.5251640000000  0.5818330000000  0.5448920000000 1.0
C      1  0.5163670000000  0.4649520000000  0.5481780000000 1.0
C      1  0.4543580000000  0.4830690000000  0.4364490000000 1.0
C      1  0.5266300000000  0.5229660000000  0.5187150000000 1.0
C      1  0.5535790000000  0.4353320000000  0.5339880000000 1.0
C      1  0.5115990000000  0.4987950000000  0.4266770000000 1.0
C      1  0.5190850000000  0.5108880000000  0.5987730000000 1.0
C      1  0.5036800000000  0.5652050000000  0.4493110000000 1.0
C      1  0.4504770000000  0.5647570000000  0.4618180000000 1.0
C      1  0.4817620000000  0.5317060000000  0.5171450000000 1.0
C      1  0.4994710000000  0.5580390000000  0.4803180000000 1.0
C      1  0.5547030000000  0.4658740000000  0.4253180000000 1.0
C      1  0.4643480000000  0.5232740000000  0.4781720000000 1.0
C      1  0.5212670000000  0.4045000000000  0.5097850000000 1.0
C      1  0.5059900000000  0.4781060000000  0.4050240000000 1.0
C      1  0.5460690000000  0.5418710000000  0.5779320000000 1.0
C      1  0.4369360000000  0.5210200000000  0.4581620000000 1.0
C      1  0.4899240000000  0.5220550000000  0.5434950000000 1.0
C      1  0.5138280000000  0.5060130000000  0.4813620000000 1.0
C      1  0.4216090000000  0.5579380000000  0.5192080000000 1.0
C      1  0.5512800000000  0.5722650000000  0.5404130000000 1.0
C      1  0.5771660000000  0.5338450000000  0.5365260000000 1.0
C      1  0.4604920000000  0.4585720000000  0.4224480000000 1.0
C      1  0.5159530000000  0.4494880000000  0.4820430000000 1.0
C      1  0.5415160000000  0.4656750000000  0.4838250000000 1.0
C      1  0.4637560000000  0.5085570000000  0.4224630000000 1.0
C      1  0.5690170000000  0.4849070000000  0.5509550000000 1.0
C      1  0.4347770000000  0.4395010000000  0.5095000000000 1.0
C      1  0.4782780000000  0.4921360000000  0.5834310000000 1.0
C      1  0.5737530000000  0.5008470000000  0.4894070000000 1.0
C      1  0.4598200000000  0.5526220000000  0.4362180000000 1.0
C      1  0.4904340000000  0.5157680000000  0.4389450000000 1.0
C      1  0.5152370000000  0.5847870000000  0.4941010000000 1.0
C      1  0.4991240000000  0.4598470000000  0.4589060000000 1.0
C      1  0.5662780000000  0.4906270000000  0.4573720000000 1.0
C      1  0.5457730000000  0.5376420000000  0.4402720000000 1.0
C      1  0.4695370000000  0.5546690000000  0.4831260000000 1.0
C      1  0.4811320000000  0.5747220000000  0.5567500000000 1.0
C      1  0.5447930000000  0.5142100000000  0.5862460000000 1.0
C      1  0.5825620000000  0.5056660000000  0.5357760000000 1.0
C      1  0.4246770000000  0.4554490000000  0.5311310000000 1.0
C      1  0.4825810000000  0.4296650000000  0.5221770000000 1.0
C      1  0.5739010000000  0.5298740000000  0.4865870000000 1.0
C      1  0.5905210000000  0.4512690000000  0.4916820000000 1.0
C      1  0.5091460000000  0.5875820000000  0.5223470000000 1.0
C      1  0.4674700000000  0.5599480000000  0.5141340000000 1.0
C      1  0.5272820000000  0.4716870000000  0.5754730000000 1.0
C      1  0.4830670000000  0.5805270000000  0.5289820000000 1.0
C      1  0.4309790000000  0.4920700000000  0.4529510000000 1.0
C      1  0.4960550000000  0.5354410000000  0.4016100000000 1.0
C      1  0.4340280000000  0.4516740000000  0.4813270000000 1.0
C      1  0.5920230000000  0.4938380000000  0.5115450000000 1.0
C      1  0.4347420000000  0.4682730000000  0.5580700000000 1.0
C      1  0.5273750000000  0.4579050000000  0.4196720000000 1.0
C      1  0.4577860000000  0.4222780000000  0.5071470000000 1.0
C      1  0.4737310000000  0.5002150000000  0.5541080000000 1.0
C      1  0.4544360000000  0.5367040000000  0.5761040000000 1.0
C      1  0.4085130000000  0.5006350000000  0.5326380000000 1.0
C      1  0.5904350000000  0.4650100000000  0.5143230000000 1.0
C      1  0.5631620000000  0.5422940000000  0.4635450000000 1.0
C      1  0.4454820000000  0.4314650000000  0.4630810000000 1.0
C      1  0.4250420000000  0.4956740000000  0.5558250000000 1.0
C      1  0.4150210000000  0.5424560000000  0.4972040000000 1.0
C      1  0.4889940000000  0.4307750000000  0.4447420000000 1.0
C      1  0.5087460000000  0.5330120000000  0.4968480000000 1.0
C      1  0.5378780000000  0.5155830000000  0.4219230000000 1.0
C      1  0.4462250000000  0.5132170000000  0.5613900000000 1.0
C      1  0.4610660000000  0.4696160000000  0.4869320000000 1.0
C      1  0.5472150000000  0.4185310000000  0.5108950000000 1.0
C      1  0.5224090000000  0.5282270000000  0.3984360000000 1.0
C      1  0.4905470000000  0.5918000000000  0.4530470000000 1.0
C      1  0.4561420000000  0.5608030000000  0.5602820000000 1.0
C      1  0.4759990000000  0.4785160000000  0.4635580000000 1.0
C      1  0.4270380000000  0.5458210000000  0.4713740000000 1.0
C      1  0.5749290000000  0.5459740000000  0.5103990000000 1.0
C      1  0.5023020000000  0.5336100000000  0.5962030000000 1.0
C      1  0.5544200000000  0.4227550000000  0.4835030000000 1.0
C      1  0.5685300000000  0.4471730000000  0.4748740000000 1.0
C      1  0.4461440000000  0.5291120000000  0.4321710000000 1.0
C      1  0.4768440000000  0.5160660000000  0.3978680000000 1.0
C      1  0.4603160000000  0.4360150000000  0.4398870000000 1.0
C      1  0.5164660000000  0.5249580000000  0.5434170000000 1.0
C      1  0.4763340000000  0.4777750000000  0.5331720000000 1.0
C      1  0.5291290000000  0.4220540000000  0.4715580000000 1.0
C      1  0.5112280000000  0.4033030000000  0.4821540000000 1.0
C      1  0.5196960000000  0.4758960000000  0.4439100000000 1.0
C      1  0.5589020000000  0.4952160000000  0.4263860000000 1.0
C      1  0.4619470000000  0.4150100000000  0.4796560000000 1.0
C      1  0.5649930000000  0.4631970000000  0.5301490000000 1.0
C      1  0.5028870000000  0.4094090000000  0.5309740000000 1.0
C      1  0.5046120000000  0.4385660000000  0.4200790000000 1.0
C      1  0.4072030000000  0.5150220000000  0.5062620000000 1.0
C      1  0.5239520000000  0.4946550000000  0.5098850000000 1.0
C      1  0.5500630000000  0.4818350000000  0.5058270000000 1.0
C      1  0.4631370000000  0.5908870000000  0.4638140000000 1.0
C      1  0.5193930000000  0.5537870000000  0.5836500000000 1.0
C      1  0.4729870000000  0.4477480000000  0.5435710000000 1.0
C      1  0.5137990000000  0.4143730000000  0.5561460000000 1.0
C      1  0.4437270000000  0.5624530000000  0.5332360000000 1.0
C      1  0.5501390000000  0.5677820000000  0.4674470000000 1.0
C      1  0.5595100000000  0.5701220000000  0.5131060000000 1.0
C      1  0.4618380000000  0.4861240000000  0.5097700000000 1.0
C      1  0.4054770000000  0.4882190000000  0.4939510000000 1.0
C      1  0.5059060000000  0.4737360000000  0.5239730000000 1.0
C      1  0.4772650000000  0.4445060000000  0.5711560000000 1.0
C      1  0.5021240000000  0.4501470000000  0.5073930000000 1.0
C      1  0.5002510000000  0.6040800000000  0.4774410000000 1.0
C      1  0.4760010000000  0.5245050000000  0.5914940000000 1.0
C      1  0.5396430000000  0.4268810000000  0.5578680000000 1.0
C      1  0.5698230000000  0.4620850000000  0.4499110000000 1.0
C      1  0.4733660000000  0.6061420000000  0.4849670000000 1.0
C      1  0.4866570000000  0.5063300000000  0.4669540000000 1.0
END
