TITL C-71947-759-10 818.930996924381 125000 -818.053783489092 0 0 118 (C1) n - 1
REM
REM in /rds/project/t2_vol4/rds-t2-cs072/BORA/CARBON/from-Arr/AIRSS/Generating-Clusters/GAP-ML-2020/Only-C1/SD-CG/HFTN-CG
REM
REM
REM
REM
REM
REM ./C.cell (11c1c37f851c82e70ff6c80c92926a4b)
REM AIRSS Version 0.9.1 bugfix July 2018 build 013d7b7c2542+ Fri, 06 Jul 2018 19:26:36 +0100
REM compiler GCC version 9.3.0
REM options -cpp -mtune=generic -march=x86-64 -g -O0
REM seed 2075961743 735601774 -1619233106 257534030 -580479347 696295259 -641248810 2084205149 -704329360 -1671954186 -1361942649 1827903733 -1225713063 1629679742 989286944 1682096189 -1043738363 461476248 129660074 -557198628 1769259205 -705389778 -459020385 1586884043 1706279210 1149768402 -285698392 -1167058101 -1741089523 730811106 1748933709 754335636 -1430146571
REM
CELL 1.54180   50.00000   50.00000   50.00000   90.00000   90.00000   90.00000
LATT -1
SFAC C  
C      1  0.5193310000000  0.4759890000000  0.4113990000000 1.0
C      1  0.4836350000000  0.5396680000000  0.5779150000000 1.0
C      1  0.5757670000000  0.5409430000000  0.5167900000000 1.0
C      1  0.5745670000000  0.4595240000000  0.4576050000000 1.0
C      1  0.4353510000000  0.4833880000000  0.5616010000000 1.0
C      1  0.6034330000000  0.4992890000000  0.4577440000000 1.0
C      1  0.4970270000000  0.4981200000000  0.5537190000000 1.0
C      1  0.4549520000000  0.4764560000000  0.4179890000000 1.0
C      1  0.4218070000000  0.5327970000000  0.5569210000000 1.0
C      1  0.4941480000000  0.5921120000000  0.4748800000000 1.0
C      1  0.4681740000000  0.4370570000000  0.4481740000000 1.0
C      1  0.4170850000000  0.4394110000000  0.4999410000000 1.0
C      1  0.4767930000000  0.5964820000000  0.4967100000000 1.0
C      1  0.5219340000000  0.5074840000000  0.5417180000000 1.0
C      1  0.5050960000000  0.5124520000000  0.4670010000000 1.0
C      1  0.4246620000000  0.5354730000000  0.4944220000000 1.0
C      1  0.5733070000000  0.5298420000000  0.5432860000000 1.0
C      1  0.4573390000000  0.5303150000000  0.5090700000000 1.0
C      1  0.4948680000000  0.4390390000000  0.5726920000000 1.0
C      1  0.5449980000000  0.4192740000000  0.4792340000000 1.0
C      1  0.5785770000000  0.4531840000000  0.4850980000000 1.0
C      1  0.5002430000000  0.5409340000000  0.4222760000000 1.0
C      1  0.5354230000000  0.5419130000000  0.5073240000000 1.0
C      1  0.5222190000000  0.5016690000000  0.5130520000000 1.0
C      1  0.5247410000000  0.4834390000000  0.5921030000000 1.0
C      1  0.5381950000000  0.5343930000000  0.5833140000000 1.0
C      1  0.4906620000000  0.4309080000000  0.5199150000000 1.0
C      1  0.4810040000000  0.5758260000000  0.4551050000000 1.0
C      1  0.5003950000000  0.4105400000000  0.4695350000000 1.0
C      1  0.4959510000000  0.5337000000000  0.4837130000000 1.0
C      1  0.4563470000000  0.5065820000000  0.4149380000000 1.0
C      1  0.4698760000000  0.5787070000000  0.5428180000000 1.0
C      1  0.5538500000000  0.4503180000000  0.4410770000000 1.0
C      1  0.5513500000000  0.4978320000000  0.4433520000000 1.0
C      1  0.4744440000000  0.4209420000000  0.4720680000000 1.0
C      1  0.4818440000000  0.4831870000000  0.5344120000000 1.0
C      1  0.5124040000000  0.4209870000000  0.4457200000000 1.0
C      1  0.5288010000000  0.5392650000000  0.5387700000000 1.0
C      1  0.5864000000000  0.4751840000000  0.5561140000000 1.0
C      1  0.4973470000000  0.5115500000000  0.5018650000000 1.0
C      1  0.5511400000000  0.4669910000000  0.5259220000000 1.0
C      1  0.4627750000000  0.5182080000000  0.5813520000000 1.0
C      1  0.5540800000000  0.4370210000000  0.5246590000000 1.0
C      1  0.5186190000000  0.4450180000000  0.5562960000000 1.0
C      1  0.5492910000000  0.5486030000000  0.4521290000000 1.0
C      1  0.4989680000000  0.4873530000000  0.5816360000000 1.0
C      1  0.5267070000000  0.5656640000000  0.4550670000000 1.0
C      1  0.4264310000000  0.5257930000000  0.4478810000000 1.0
C      1  0.5629990000000  0.4323600000000  0.4970150000000 1.0
C      1  0.4361060000000  0.5223610000000  0.4225210000000 1.0
C      1  0.5361150000000  0.5843060000000  0.5050350000000 1.0
C      1  0.4147230000000  0.5088290000000  0.4901510000000 1.0
C      1  0.5101350000000  0.5027340000000  0.4090670000000 1.0
C      1  0.4722090000000  0.4645340000000  0.4015460000000 1.0
C      1  0.4873270000000  0.5915300000000  0.5224760000000 1.0
C      1  0.4227010000000  0.5540290000000  0.5409340000000 1.0
C      1  0.4853120000000  0.5023250000000  0.4500550000000 1.0
C      1  0.5202400000000  0.4092550000000  0.4903670000000 1.0
C      1  0.5429890000000  0.5145690000000  0.4950410000000 1.0
C      1  0.4713190000000  0.5041340000000  0.5116570000000 1.0
C      1  0.4230880000000  0.4425770000000  0.5267590000000 1.0
C      1  0.4331750000000  0.5452790000000  0.4672630000000 1.0
C      1  0.4552340000000  0.4716580000000  0.5803470000000 1.0
C      1  0.4601900000000  0.4652180000000  0.5298740000000 1.0
C      1  0.4701550000000  0.4828870000000  0.4635860000000 1.0
C      1  0.4384880000000  0.4248380000000  0.5114500000000 1.0
C      1  0.5468800000000  0.5262000000000  0.4330590000000 1.0
C      1  0.5155950000000  0.5521560000000  0.4892590000000 1.0
C      1  0.4554550000000  0.4873330000000  0.4923400000000 1.0
C      1  0.4720850000000  0.4483580000000  0.5788920000000 1.0
C      1  0.4704490000000  0.5446730000000  0.4894550000000 1.0
C      1  0.5442960000000  0.4871660000000  0.5495200000000 1.0
C      1  0.4969230000000  0.4565800000000  0.4112630000000 1.0
C      1  0.4316780000000  0.4716140000000  0.5330260000000 1.0
C      1  0.5313600000000  0.4992640000000  0.4702910000000 1.0
C      1  0.5100510000000  0.5343890000000  0.5888730000000 1.0
C      1  0.4559600000000  0.5643560000000  0.4696430000000 1.0
C      1  0.5317850000000  0.4251610000000  0.5369140000000 1.0
C      1  0.4371860000000  0.5126590000000  0.5673760000000 1.0
C      1  0.5145600000000  0.5830540000000  0.5255230000000 1.0
C      1  0.5576260000000  0.5612740000000  0.5027700000000 1.0
C      1  0.5650720000000  0.5479190000000  0.4760450000000 1.0
C      1  0.5028580000000  0.4590340000000  0.5297910000000 1.0
C      1  0.4240060000000  0.4729930000000  0.4593050000000 1.0
C      1  0.4864460000000  0.5607690000000  0.5582330000000 1.0
C      1  0.4847830000000  0.5137380000000  0.4221660000000 1.0
C      1  0.4719410000000  0.4926530000000  0.5902400000000 1.0
C      1  0.4179350000000  0.5015210000000  0.4626770000000 1.0
C      1  0.5922490000000  0.5007680000000  0.4834760000000 1.0
C      1  0.5183780000000  0.4721920000000  0.4821490000000 1.0
C      1  0.5744520000000  0.5238110000000  0.4922720000000 1.0
C      1  0.4508700000000  0.4645350000000  0.4461620000000 1.0
C      1  0.4662150000000  0.4591880000000  0.5005980000000 1.0
C      1  0.4922920000000  0.4364210000000  0.4317580000000 1.0
C      1  0.4421000000000  0.5769710000000  0.5374120000000 1.0
C      1  0.5137730000000  0.4152820000000  0.5176180000000 1.0
C      1  0.5790610000000  0.4874900000000  0.4514460000000 1.0
C      1  0.4898200000000  0.4660480000000  0.4794440000000 1.0
C      1  0.5720590000000  0.5001900000000  0.5461320000000 1.0
C      1  0.4165930000000  0.4634020000000  0.4854120000000 1.0
C      1  0.5206800000000  0.5811350000000  0.4797140000000 1.0
C      1  0.5889670000000  0.4760730000000  0.4992720000000 1.0
C      1  0.5115590000000  0.5620940000000  0.5446150000000 1.0
C      1  0.5403630000000  0.4665820000000  0.5717110000000 1.0
C      1  0.5245630000000  0.4721060000000  0.5105020000000 1.0
C      1  0.5012060000000  0.5628820000000  0.4398110000000 1.0
C      1  0.4330430000000  0.5806480000000  0.5099420000000 1.0
C      1  0.5789850000000  0.4779360000000  0.5257530000000 1.0
C      1  0.5428850000000  0.4736870000000  0.4274290000000 1.0
C      1  0.5401450000000  0.4269500000000  0.4514580000000 1.0
C      1  0.5700960000000  0.4613610000000  0.5720310000000 1.0
C      1  0.5246800000000  0.5267740000000  0.4156190000000 1.0
C      1  0.4506070000000  0.5860160000000  0.4896440000000 1.0
C      1  0.4667560000000  0.4287080000000  0.5008620000000 1.0
C      1  0.4166460000000  0.5565010000000  0.5122570000000 1.0
C      1  0.5511150000000  0.5406430000000  0.5581170000000 1.0
C      1  0.5256200000000  0.5115770000000  0.5951530000000 1.0
C      1  0.4244300000000  0.4849170000000  0.5041080000000 1.0
END
