TITL C-71928-627-3 -0.0132645662004086 125000 -554.696489553574 0 0 80 (C1) n - 1
REM
REM in /rds/project/t2_vol4/rds-t2-cs072/BORA/CARBON/from-Arr/AIRSS/Generating-Clusters/GAP-ML-2020/Only-C1/SD-CG/HFTN-CG
REM
REM
REM
REM
REM
REM ./C.cell (11c1c37f851c82e70ff6c80c92926a4b)
REM AIRSS Version 0.9.1 bugfix July 2018 build 013d7b7c2542+ Fri, 06 Jul 2018 19:26:36 +0100
REM compiler GCC version 9.3.0
REM options -cpp -mtune=generic -march=x86-64 -g -O0
REM seed -1944101635 885352444 -1327076746 -448286964 245274495 -273452508 823805524 769134074 1990999618 2023486375 1249733280 993309302 495302411 519022481 -1955590573 366387228 1634204314 -405367486 -88307723 1146609126 -1418660963 -1512607715 306540448 -1797458688 1165463554 853716554 -1792069246 -1595702845 38087488 -1828499997 -1879120663 1029701109 1792871089
REM
CELL 1.54180   50.00000   50.00000   50.00000   90.00000   90.00000   90.00000
LATT -1
SFAC C  
C      1  0.5860030000000  0.5200500000000  0.4823300000000 1.0
C      1  0.4528900000000  0.5618340000000  0.5135800000000 1.0
C      1  0.4294740000000  0.5280650000000  0.4858550000000 1.0
C      1  0.4857280000000  0.5021400000000  0.5163300000000 1.0
C      1  0.5416500000000  0.4406050000000  0.5420040000000 1.0
C      1  0.5044980000000  0.5269940000000  0.4299010000000 1.0
C      1  0.5115690000000  0.4147750000000  0.5060850000000 1.0
C      1  0.5719480000000  0.4624410000000  0.4554990000000 1.0
C      1  0.4418330000000  0.5172830000000  0.4621100000000 1.0
C      1  0.5103090000000  0.4722480000000  0.4707950000000 1.0
C      1  0.5212460000000  0.5767910000000  0.4944480000000 1.0
C      1  0.4928540000000  0.5006030000000  0.4266000000000 1.0
C      1  0.4233900000000  0.5107110000000  0.5074960000000 1.0
C      1  0.4863070000000  0.4649570000000  0.4876240000000 1.0
C      1  0.5398100000000  0.4950340000000  0.4287550000000 1.0
C      1  0.5593840000000  0.4347100000000  0.4972880000000 1.0
C      1  0.4705080000000  0.4233790000000  0.5177220000000 1.0
C      1  0.4705180000000  0.4667480000000  0.5881670000000 1.0
C      1  0.5407800000000  0.5758420000000  0.4752610000000 1.0
C      1  0.4700930000000  0.5031920000000  0.4706650000000 1.0
C      1  0.4416570000000  0.5033560000000  0.5527330000000 1.0
C      1  0.5498000000000  0.5285470000000  0.5094900000000 1.0
C      1  0.4982960000000  0.4330870000000  0.5270740000000 1.0
C      1  0.4984200000000  0.4804260000000  0.5312810000000 1.0
C      1  0.5234200000000  0.5684880000000  0.5224490000000 1.0
C      1  0.4413110000000  0.5539440000000  0.4890980000000 1.0
C      1  0.4974240000000  0.5695620000000  0.5340770000000 1.0
C      1  0.4709960000000  0.4886630000000  0.4954980000000 1.0
C      1  0.5593660000000  0.4780660000000  0.5221050000000 1.0
C      1  0.5574390000000  0.5153760000000  0.5521010000000 1.0
C      1  0.5356400000000  0.5325420000000  0.5550760000000 1.0
C      1  0.4785740000000  0.5741350000000  0.5131320000000 1.0
C      1  0.5249380000000  0.4589780000000  0.4934740000000 1.0
C      1  0.4345890000000  0.4634900000000  0.5239410000000 1.0
C      1  0.4382580000000  0.4894200000000  0.4539490000000 1.0
C      1  0.4458660000000  0.5458470000000  0.5354070000000 1.0
C      1  0.4480940000000  0.4414230000000  0.5102180000000 1.0
C      1  0.4248600000000  0.4822950000000  0.5030680000000 1.0
C      1  0.5320830000000  0.4300630000000  0.4929250000000 1.0
C      1  0.4681690000000  0.4867100000000  0.4436380000000 1.0
C      1  0.4626220000000  0.5179270000000  0.5675140000000 1.0
C      1  0.5681300000000  0.5412220000000  0.4901410000000 1.0
C      1  0.5303320000000  0.5079300000000  0.4970880000000 1.0
C      1  0.4927560000000  0.5781340000000  0.4883450000000 1.0
C      1  0.4493210000000  0.4621660000000  0.5749090000000 1.0
C      1  0.4879160000000  0.5413290000000  0.4495120000000 1.0
C      1  0.5393910000000  0.5471350000000  0.5303840000000 1.0
C      1  0.5691290000000  0.5064320000000  0.5268260000000 1.0
C      1  0.4565120000000  0.5386070000000  0.4484130000000 1.0
C      1  0.4392350000000  0.4744560000000  0.5508640000000 1.0
C      1  0.5607400000000  0.4493290000000  0.5250500000000 1.0
C      1  0.5177210000000  0.5019120000000  0.4706740000000 1.0
C      1  0.5706580000000  0.4450400000000  0.4741500000000 1.0
C      1  0.5640130000000  0.4876240000000  0.4446630000000 1.0
C      1  0.5916000000000  0.5118760000000  0.5083140000000 1.0
C      1  0.5060200000000  0.4697800000000  0.5568130000000 1.0
C      1  0.4862000000000  0.4047590000000  0.5022750000000 1.0
C      1  0.5042140000000  0.4624270000000  0.4429190000000 1.0
C      1  0.5140280000000  0.4820300000000  0.4251800000000 1.0
C      1  0.5013810000000  0.5204160000000  0.5019610000000 1.0
C      1  0.4316650000000  0.5208480000000  0.5328180000000 1.0
C      1  0.4450620000000  0.4477680000000  0.4817910000000 1.0
C      1  0.5566350000000  0.5551100000000  0.4676280000000 1.0
C      1  0.4818900000000  0.5681040000000  0.4639500000000 1.0
C      1  0.4908800000000  0.5528080000000  0.5556400000000 1.0
C      1  0.5556510000000  0.5342670000000  0.4470640000000 1.0
C      1  0.5014610000000  0.4585250000000  0.5125050000000 1.0
C      1  0.4760590000000  0.4588920000000  0.4441660000000 1.0
C      1  0.4640240000000  0.5437880000000  0.5565150000000 1.0
C      1  0.4928470000000  0.4817520000000  0.5784360000000 1.0
C      1  0.5340740000000  0.5231520000000  0.4306900000000 1.0
C      1  0.5415880000000  0.4816920000000  0.5020230000000 1.0
C      1  0.5159300000000  0.4428170000000  0.5501190000000 1.0
C      1  0.4700950000000  0.4478990000000  0.4698220000000 1.0
C      1  0.4541750000000  0.5615420000000  0.4652140000000 1.0
C      1  0.4934940000000  0.5198200000000  0.4725350000000 1.0
C      1  0.4318280000000  0.4723980000000  0.4767320000000 1.0
C      1  0.5079030000000  0.5320660000000  0.5664420000000 1.0
C      1  0.5734300000000  0.5130670000000  0.4554670000000 1.0
C      1  0.4893950000000  0.5103390000000  0.5752000000000 1.0
END
