TITL C-71930-841-5 0.0156055211495706 125000 -503.168777407465 0 0 73 (C1) n - 1
REM
REM in /rds/project/t2_vol4/rds-t2-cs072/BORA/CARBON/from-Arr/AIRSS/Generating-Clusters/GAP-ML-2020/Only-C1/SD-CG/HFTN-CG
REM
REM
REM
REM
REM
REM ./C.cell (11c1c37f851c82e70ff6c80c92926a4b)
REM AIRSS Version 0.9.1 bugfix July 2018 build 013d7b7c2542+ Fri, 06 Jul 2018 19:26:36 +0100
REM compiler GCC version 9.3.0
REM options -cpp -mtune=generic -march=x86-64 -g -O0
REM seed -809354647 1380362038 32398599 1697398578 -879442365 -685254984 -946255687 -1581273969 884773497 -600473486 1733998945 53332553 -790152302 -1213980954 -1802584573 320253112 722310380 332579559 -1997982190 2135697841 -1763320746 177084791 1095318427 2014990867 -928773493 -608374296 -753370038 1107785886 -572295654 707382863 -1258563017 903912036 -1714025314
REM
CELL 1.54180   50.00000   50.00000   50.00000   90.00000   90.00000   90.00000
LATT -1
SFAC C  
C      1  0.5204510000000  0.5716670000000  0.4588210000000 1.0
C      1  0.5814700000000  0.4821430000000  0.4973510000000 1.0
C      1  0.5726950000000  0.5052710000000  0.5098890000000 1.0
C      1  0.4295660000000  0.4932470000000  0.5039390000000 1.0
C      1  0.4806600000000  0.5205520000000  0.4327040000000 1.0
C      1  0.5282670000000  0.4378400000000  0.4780870000000 1.0
C      1  0.5628600000000  0.5261810000000  0.4921090000000 1.0
C      1  0.4488890000000  0.4920860000000  0.4507880000000 1.0
C      1  0.4529920000000  0.4493310000000  0.5397150000000 1.0
C      1  0.5073170000000  0.5309410000000  0.4334780000000 1.0
C      1  0.5229980000000  0.4347340000000  0.4502720000000 1.0
C      1  0.5345240000000  0.4714940000000  0.5613370000000 1.0
C      1  0.4378760000000  0.4938510000000  0.5511740000000 1.0
C      1  0.4967040000000  0.4255790000000  0.5281640000000 1.0
C      1  0.4744550000000  0.4932390000000  0.4369850000000 1.0
C      1  0.4432770000000  0.4479470000000  0.5117430000000 1.0
C      1  0.4810410000000  0.5145260000000  0.5286120000000 1.0
C      1  0.5632220000000  0.4685000000000  0.4825640000000 1.0
C      1  0.5490150000000  0.5327430000000  0.4485460000000 1.0
C      1  0.5011470000000  0.5488420000000  0.4571840000000 1.0
C      1  0.4988850000000  0.5076170000000  0.4798530000000 1.0
C      1  0.5129720000000  0.4752370000000  0.5097270000000 1.0
C      1  0.5046830000000  0.5361070000000  0.4857530000000 1.0
C      1  0.4987840000000  0.4754440000000  0.4437250000000 1.0
C      1  0.4569330000000  0.5243430000000  0.5151700000000 1.0
C      1  0.4819880000000  0.5220670000000  0.5566490000000 1.0
C      1  0.5190670000000  0.4484140000000  0.5610240000000 1.0
C      1  0.5306990000000  0.5246500000000  0.4990190000000 1.0
C      1  0.5452070000000  0.4885610000000  0.4672030000000 1.0
C      1  0.4337460000000  0.5070950000000  0.5284410000000 1.0
C      1  0.5046800000000  0.4509270000000  0.4892210000000 1.0
C      1  0.4574250000000  0.5603380000000  0.5410130000000 1.0
C      1  0.4640780000000  0.5446540000000  0.5598940000000 1.0
C      1  0.4524300000000  0.4723840000000  0.5581200000000 1.0
C      1  0.5552580000000  0.5549280000000  0.4909050000000 1.0
C      1  0.5300110000000  0.5162950000000  0.4338080000000 1.0
C      1  0.4881210000000  0.4879450000000  0.5161310000000 1.0
C      1  0.5089980000000  0.4486060000000  0.4336370000000 1.0
C      1  0.4949600000000  0.5001370000000  0.5704220000000 1.0
C      1  0.5288990000000  0.5344360000000  0.5277650000000 1.0
C      1  0.5264330000000  0.4899280000000  0.4441640000000 1.0
C      1  0.4519300000000  0.5072180000000  0.4909930000000 1.0
C      1  0.4606550000000  0.5549430000000  0.5113750000000 1.0
C      1  0.4881370000000  0.4302940000000  0.5019590000000 1.0
C      1  0.5508640000000  0.4456550000000  0.4942340000000 1.0
C      1  0.4303360000000  0.4678950000000  0.4939580000000 1.0
C      1  0.4776820000000  0.4906090000000  0.4890210000000 1.0
C      1  0.5592810000000  0.4969990000000  0.5337840000000 1.0
C      1  0.5451600000000  0.5573710000000  0.4630290000000 1.0
C      1  0.5614430000000  0.5145010000000  0.4652640000000 1.0
C      1  0.4613790000000  0.4354220000000  0.4943880000000 1.0
C      1  0.5231380000000  0.4978180000000  0.5643620000000 1.0
C      1  0.5244480000000  0.4955330000000  0.4905350000000 1.0
C      1  0.4915570000000  0.4507660000000  0.5664850000000 1.0
C      1  0.4717370000000  0.5417950000000  0.4503210000000 1.0
C      1  0.5138560000000  0.5748080000000  0.5103810000000 1.0
C      1  0.4926190000000  0.5535460000000  0.5084490000000 1.0
C      1  0.4864830000000  0.4660820000000  0.4707660000000 1.0
C      1  0.4788880000000  0.4753740000000  0.5717660000000 1.0
C      1  0.4453120000000  0.5617300000000  0.4875350000000 1.0
C      1  0.5006110000000  0.5365730000000  0.5301260000000 1.0
C      1  0.5531140000000  0.4697360000000  0.5398990000000 1.0
C      1  0.5462120000000  0.4459210000000  0.5229660000000 1.0
C      1  0.4403740000000  0.4680150000000  0.4659980000000 1.0
C      1  0.4429780000000  0.5162730000000  0.4655480000000 1.0
C      1  0.4482240000000  0.5454550000000  0.4650730000000 1.0
C      1  0.4771240000000  0.4355740000000  0.5466210000000 1.0
C      1  0.5233780000000  0.4341690000000  0.5364460000000 1.0
C      1  0.5134600000000  0.6009430000000  0.4995950000000 1.0
C      1  0.4617540000000  0.4501710000000  0.4687900000000 1.0
C      1  0.5166090000000  0.5934240000000  0.4748700000000 1.0
C      1  0.5378140000000  0.5605040000000  0.5141320000000 1.0
C      1  0.5397570000000  0.5140560000000  0.5462250000000 1.0
END
