TITL C-71947-759-3 82.138954779869 125000 -758.572838311605 0 0 108 (C1) n - 1
REM
REM in /rds/project/t2_vol4/rds-t2-cs072/BORA/CARBON/from-Arr/AIRSS/Generating-Clusters/GAP-ML-2020/Only-C1/SD-CG/HFTN-CG
REM
REM
REM
REM
REM
REM ./C.cell (11c1c37f851c82e70ff6c80c92926a4b)
REM AIRSS Version 0.9.1 bugfix July 2018 build 013d7b7c2542+ Fri, 06 Jul 2018 19:26:36 +0100
REM compiler GCC version 9.3.0
REM options -cpp -mtune=generic -march=x86-64 -g -O0
REM seed -321036914 6261616 1656283011 1916216497 -1281221358 529884115 -606085857 1119108746 1802785299 -360834967 -1505864296 210392035 -544541706 927577722 -2096032880 1072901390 512540360 1744982184 1546013222 -975256810 -1323387258 728809304 -429719654 1945480609 -1795943710 589091292 -397511543 1194758597 -1005111727 -1902586553 446069930 -2138023506 -1764145775
REM
CELL 1.54180   50.00000   50.00000   50.00000   90.00000   90.00000   90.00000
LATT -1
SFAC C  
C      1  0.5544430000000  0.5456130000000  0.5495290000000 1.0
C      1  0.5438520000000  0.4449010000000  0.5353540000000 1.0
C      1  0.4785300000000  0.4885220000000  0.5039730000000 1.0
C      1  0.5327340000000  0.4973510000000  0.4500710000000 1.0
C      1  0.4388980000000  0.5183110000000  0.5542820000000 1.0
C      1  0.4793060000000  0.5774410000000  0.4527070000000 1.0
C      1  0.5514510000000  0.4880590000000  0.4719600000000 1.0
C      1  0.4606180000000  0.5614420000000  0.5437530000000 1.0
C      1  0.5252290000000  0.5207620000000  0.5828320000000 1.0
C      1  0.5901690000000  0.4860100000000  0.5100270000000 1.0
C      1  0.5589310000000  0.4640750000000  0.4368900000000 1.0
C      1  0.5079250000000  0.4421780000000  0.4450770000000 1.0
C      1  0.4438910000000  0.5045560000000  0.4369650000000 1.0
C      1  0.4626960000000  0.5253190000000  0.4831920000000 1.0
C      1  0.5465430000000  0.4609310000000  0.5609800000000 1.0
C      1  0.4379540000000  0.4410340000000  0.5086070000000 1.0
C      1  0.4878630000000  0.5015160000000  0.4497290000000 1.0
C      1  0.4724390000000  0.4535980000000  0.5712430000000 1.0
C      1  0.5086640000000  0.5624130000000  0.5611190000000 1.0
C      1  0.4414520000000  0.4906080000000  0.5618940000000 1.0
C      1  0.5014240000000  0.4496700000000  0.5663120000000 1.0
C      1  0.4626790000000  0.4892020000000  0.4185340000000 1.0
C      1  0.5284290000000  0.4939200000000  0.5112670000000 1.0
C      1  0.4977400000000  0.5863450000000  0.5228160000000 1.0
C      1  0.5349220000000  0.5669870000000  0.4524840000000 1.0
C      1  0.4753060000000  0.5352240000000  0.4250450000000 1.0
C      1  0.4291920000000  0.4746640000000  0.5417250000000 1.0
C      1  0.4579730000000  0.5767670000000  0.4951910000000 1.0
C      1  0.5127000000000  0.4802060000000  0.4144180000000 1.0
C      1  0.4832500000000  0.4996310000000  0.5814240000000 1.0
C      1  0.4175990000000  0.5055110000000  0.4747890000000 1.0
C      1  0.5875280000000  0.4703830000000  0.4848610000000 1.0
C      1  0.5443090000000  0.4463170000000  0.4527980000000 1.0
C      1  0.5046170000000  0.5402820000000  0.5781630000000 1.0
C      1  0.5242190000000  0.4229350000000  0.5322290000000 1.0
C      1  0.5179690000000  0.5512270000000  0.4359300000000 1.0
C      1  0.5381390000000  0.4815640000000  0.4261960000000 1.0
C      1  0.4967070000000  0.5885520000000  0.4727620000000 1.0
C      1  0.4209630000000  0.4924760000000  0.5213100000000 1.0
C      1  0.5507900000000  0.5425130000000  0.4608810000000 1.0
C      1  0.4247850000000  0.4847870000000  0.4937480000000 1.0
C      1  0.4233550000000  0.4554690000000  0.4895090000000 1.0
C      1  0.4981850000000  0.4565990000000  0.4686830000000 1.0
C      1  0.5236820000000  0.4652700000000  0.5184410000000 1.0
C      1  0.4464330000000  0.5623910000000  0.5175860000000 1.0
C      1  0.4400230000000  0.5489330000000  0.4585360000000 1.0
C      1  0.5727240000000  0.5254270000000  0.5363900000000 1.0
C      1  0.5501200000000  0.5258920000000  0.5709510000000 1.0
C      1  0.5700670000000  0.4504060000000  0.4932360000000 1.0
C      1  0.5260980000000  0.5812550000000  0.5229720000000 1.0
C      1  0.5013320000000  0.4687300000000  0.5386310000000 1.0
C      1  0.4591800000000  0.4370690000000  0.5520260000000 1.0
C      1  0.4663990000000  0.4516600000000  0.4738900000000 1.0
C      1  0.4352410000000  0.4506100000000  0.4635860000000 1.0
C      1  0.5086290000000  0.5295360000000  0.4906430000000 1.0
C      1  0.4251350000000  0.5195320000000  0.5290420000000 1.0
C      1  0.4543530000000  0.5719960000000  0.4663440000000 1.0
C      1  0.4716230000000  0.5156680000000  0.5115420000000 1.0
C      1  0.4231840000000  0.4659410000000  0.4458050000000 1.0
C      1  0.4877430000000  0.5052750000000  0.4211650000000 1.0
C      1  0.5514810000000  0.5073070000000  0.4958280000000 1.0
C      1  0.4819680000000  0.4196100000000  0.5113020000000 1.0
C      1  0.4703940000000  0.4632310000000  0.4201160000000 1.0
C      1  0.4782510000000  0.4701540000000  0.5244110000000 1.0
C      1  0.4619820000000  0.4323120000000  0.4961490000000 1.0
C      1  0.4976420000000  0.5284880000000  0.5182730000000 1.0
C      1  0.4835360000000  0.5887290000000  0.4983110000000 1.0
C      1  0.5833370000000  0.4695860000000  0.5323610000000 1.0
C      1  0.5686500000000  0.5071530000000  0.5589210000000 1.0
C      1  0.4490860000000  0.5329400000000  0.4355790000000 1.0
C      1  0.5274630000000  0.4228400000000  0.4535620000000 1.0
C      1  0.5774720000000  0.4813580000000  0.4581550000000 1.0
C      1  0.5181130000000  0.4496180000000  0.4924410000000 1.0
C      1  0.5116560000000  0.4213540000000  0.5034700000000 1.0
C      1  0.5224930000000  0.4115940000000  0.4782540000000 1.0
C      1  0.5069550000000  0.4864700000000  0.4632800000000 1.0
C      1  0.5236110000000  0.4660150000000  0.5772600000000 1.0
C      1  0.4595990000000  0.4804810000000  0.4824910000000 1.0
C      1  0.4378250000000  0.4477440000000  0.5363250000000 1.0
C      1  0.5765190000000  0.5115700000000  0.5114660000000 1.0
C      1  0.4786570000000  0.4206050000000  0.5394430000000 1.0
C      1  0.5160260000000  0.5120000000000  0.5318570000000 1.0
C      1  0.4284990000000  0.5409100000000  0.5103130000000 1.0
C      1  0.4630540000000  0.5021690000000  0.4626960000000 1.0
C      1  0.4869680000000  0.5408790000000  0.4778510000000 1.0
C      1  0.5331850000000  0.5650700000000  0.5457170000000 1.0
C      1  0.5039110000000  0.4949300000000  0.5504690000000 1.0
C      1  0.5329240000000  0.5266050000000  0.4417690000000 1.0
C      1  0.5248990000000  0.5843490000000  0.4722700000000 1.0
C      1  0.4904170000000  0.5575330000000  0.4328580000000 1.0
C      1  0.5684460000000  0.4787500000000  0.5555090000000 1.0
C      1  0.4308580000000  0.5319340000000  0.4816550000000 1.0
C      1  0.5516390000000  0.5576800000000  0.5014720000000 1.0
C      1  0.5069770000000  0.4972140000000  0.4899210000000 1.0
C      1  0.4633950000000  0.4798720000000  0.5765650000000 1.0
C      1  0.5124080000000  0.4940210000000  0.5805220000000 1.0
C      1  0.4788960000000  0.5282680000000  0.5776320000000 1.0
C      1  0.5694920000000  0.4474220000000  0.5215730000000 1.0
C      1  0.5443190000000  0.4575900000000  0.4793790000000 1.0
C      1  0.5042990000000  0.4241000000000  0.5517020000000 1.0
C      1  0.4199460000000  0.4935040000000  0.4480300000000 1.0
C      1  0.4974730000000  0.4569390000000  0.4217360000000 1.0
C      1  0.5857690000000  0.5081720000000  0.4507290000000 1.0
C      1  0.5410180000000  0.5344000000000  0.4885610000000 1.0
C      1  0.4574220000000  0.5386510000000  0.5615560000000 1.0
C      1  0.4864830000000  0.5735950000000  0.5457570000000 1.0
C      1  0.5383950000000  0.5808160000000  0.4975570000000 1.0
C      1  0.5778520000000  0.5320040000000  0.4548960000000 1.0
END
