TITL C-71927-657-1 -0.108426569378655 125000 -736.668604916506 0 0 107 (C1) n - 1
REM
REM in /rds/project/t2_vol4/rds-t2-cs072/BORA/CARBON/from-Arr/AIRSS/Generating-Clusters/GAP-ML-2020/Only-C1/SD-CG/HFTN-CG
REM
REM
REM
REM
REM
REM ./C.cell (11c1c37f851c82e70ff6c80c92926a4b)
REM AIRSS Version 0.9.1 bugfix July 2018 build 013d7b7c2542+ Fri, 06 Jul 2018 19:26:36 +0100
REM compiler GCC version 9.3.0
REM options -cpp -mtune=generic -march=x86-64 -g -O0
REM seed -1974938429 -1739983689 -842030615 -2084276852 1324154861 -573985143 1141570433 -41407855 555510634 -382431119 -1210741281 1602639200 17836482 1114873646 563032291 462875054 -1260687428 -430600930 1635709278 -896257794 -518153075 428302614 -963798135 -724418750 30657447 -1372231702 2120380631 -706931734 297733184 878477751 -1389216741 2108375375 -785123320
REM
CELL 1.54180   50.00000   50.00000   50.00000   90.00000   90.00000   90.00000
LATT -1
SFAC C  
C      1  0.5382730000000  0.4558210000000  0.4492560000000 1.0
C      1  0.5763870000000  0.4506990000000  0.4760360000000 1.0
C      1  0.5904000000000  0.5001330000000  0.4795660000000 1.0
C      1  0.4739950000000  0.5115760000000  0.4152920000000 1.0
C      1  0.5357620000000  0.4625940000000  0.4919110000000 1.0
C      1  0.5403470000000  0.5451290000000  0.5568820000000 1.0
C      1  0.5056690000000  0.5914040000000  0.5178470000000 1.0
C      1  0.5213850000000  0.4919520000000  0.4145390000000 1.0
C      1  0.4750950000000  0.4789150000000  0.4528180000000 1.0
C      1  0.5490450000000  0.4425320000000  0.4748750000000 1.0
C      1  0.4813830000000  0.4690220000000  0.4968680000000 1.0
C      1  0.4212800000000  0.5104680000000  0.4965930000000 1.0
C      1  0.4978210000000  0.5628730000000  0.4939220000000 1.0
C      1  0.4551100000000  0.5455810000000  0.5550110000000 1.0
C      1  0.5645020000000  0.5006270000000  0.5462690000000 1.0
C      1  0.4888050000000  0.5758560000000  0.4507390000000 1.0
C      1  0.5456970000000  0.5696500000000  0.4969330000000 1.0
C      1  0.4962490000000  0.5923210000000  0.4898000000000 1.0
C      1  0.4575610000000  0.4242790000000  0.5118960000000 1.0
C      1  0.5228250000000  0.5026010000000  0.5025120000000 1.0
C      1  0.4486290000000  0.5328420000000  0.4474810000000 1.0
C      1  0.4758150000000  0.5176970000000  0.5199510000000 1.0
C      1  0.5874130000000  0.4730800000000  0.4663860000000 1.0
C      1  0.4662150000000  0.4217070000000  0.5401710000000 1.0
C      1  0.4296010000000  0.5039000000000  0.5410690000000 1.0
C      1  0.5050450000000  0.4622600000000  0.4806360000000 1.0
C      1  0.5335160000000  0.4851580000000  0.4544410000000 1.0
C      1  0.4883670000000  0.5517990000000  0.4679290000000 1.0
C      1  0.4996940000000  0.5252360000000  0.5324250000000 1.0
C      1  0.5379340000000  0.4232040000000  0.5218460000000 1.0
C      1  0.4466600000000  0.5811930000000  0.4828200000000 1.0
C      1  0.4340050000000  0.4712070000000  0.5803810000000 1.0
C      1  0.5813210000000  0.5188220000000  0.4601310000000 1.0
C      1  0.4207700000000  0.4906060000000  0.5157760000000 1.0
C      1  0.4679360000000  0.4752680000000  0.5399810000000 1.0
C      1  0.4617020000000  0.5038250000000  0.5897010000000 1.0
C      1  0.5031110000000  0.5095460000000  0.4802410000000 1.0
C      1  0.5543370000000  0.5280650000000  0.5358010000000 1.0
C      1  0.4684990000000  0.5190660000000  0.5666350000000 1.0
C      1  0.5139300000000  0.5340070000000  0.4691970000000 1.0
C      1  0.5264670000000  0.5678830000000  0.5459630000000 1.0
C      1  0.5176910000000  0.4821360000000  0.5281370000000 1.0
C      1  0.4344610000000  0.4851340000000  0.4343650000000 1.0
C      1  0.5560020000000  0.4814930000000  0.5657660000000 1.0
C      1  0.5309050000000  0.5335210000000  0.4418710000000 1.0
C      1  0.4320920000000  0.4955980000000  0.4739630000000 1.0
C      1  0.5183580000000  0.4214520000000  0.5418630000000 1.0
C      1  0.4969650000000  0.4388130000000  0.4618330000000 1.0
C      1  0.4199990000000  0.4571270000000  0.5437750000000 1.0
C      1  0.4340110000000  0.4455600000000  0.5653570000000 1.0
C      1  0.4995730000000  0.5161480000000  0.5608930000000 1.0
C      1  0.4598030000000  0.4349690000000  0.5646670000000 1.0
C      1  0.5041100000000  0.4598770000000  0.5732210000000 1.0
C      1  0.4696980000000  0.4493040000000  0.4572430000000 1.0
C      1  0.4437970000000  0.4476960000000  0.4694190000000 1.0
C      1  0.5149890000000  0.4456970000000  0.4370510000000 1.0
C      1  0.5466910000000  0.4671800000000  0.5196400000000 1.0
C      1  0.4328650000000  0.5098200000000  0.4477070000000 1.0
C      1  0.4697940000000  0.5906790000000  0.4742910000000 1.0
C      1  0.4962820000000  0.5767230000000  0.5425070000000 1.0
C      1  0.5332790000000  0.5818920000000  0.5214070000000 1.0
C      1  0.5706830000000  0.4866810000000  0.5228820000000 1.0
C      1  0.5382370000000  0.5769930000000  0.4686170000000 1.0
C      1  0.4278390000000  0.5370660000000  0.5086270000000 1.0
C      1  0.4600480000000  0.5026210000000  0.5405500000000 1.0
C      1  0.4421090000000  0.5548730000000  0.4905900000000 1.0
C      1  0.5832400000000  0.5057250000000  0.5061790000000 1.0
C      1  0.4323590000000  0.5344410000000  0.5375030000000 1.0
C      1  0.5882420000000  0.4802420000000  0.4384980000000 1.0
C      1  0.5126950000000  0.5876720000000  0.4655950000000 1.0
C      1  0.5695200000000  0.5516940000000  0.4944620000000 1.0
C      1  0.4601690000000  0.4765980000000  0.5889650000000 1.0
C      1  0.4292400000000  0.4697360000000  0.4591260000000 1.0
C      1  0.4661690000000  0.5369450000000  0.4253690000000 1.0
C      1  0.5037410000000  0.4858080000000  0.4618950000000 1.0
C      1  0.4621010000000  0.5386040000000  0.4740240000000 1.0
C      1  0.5419820000000  0.4900270000000  0.4826570000000 1.0
C      1  0.4637350000000  0.4889860000000  0.4806160000000 1.0
C      1  0.4852340000000  0.4153390000000  0.5034740000000 1.0
C      1  0.5135240000000  0.4647400000000  0.4175350000000 1.0
C      1  0.4201200000000  0.4833990000000  0.5592530000000 1.0
C      1  0.4719010000000  0.5676210000000  0.5527460000000 1.0
C      1  0.5235290000000  0.4418120000000  0.5635440000000 1.0
C      1  0.4901750000000  0.4716950000000  0.5227940000000 1.0
C      1  0.5710260000000  0.5439440000000  0.4672090000000 1.0
C      1  0.5489670000000  0.5547210000000  0.4530690000000 1.0
C      1  0.5416910000000  0.5049490000000  0.4340400000000 1.0
C      1  0.5253790000000  0.5274560000000  0.5168720000000 1.0
C      1  0.4249370000000  0.4615930000000  0.5162910000000 1.0
C      1  0.5266140000000  0.5252290000000  0.5722040000000 1.0
C      1  0.5492520000000  0.4538140000000  0.5592990000000 1.0
C      1  0.5113640000000  0.4875810000000  0.5608160000000 1.0
C      1  0.5741910000000  0.5317620000000  0.5137050000000 1.0
C      1  0.4614680000000  0.4893970000000  0.4290920000000 1.0
C      1  0.4877080000000  0.5559270000000  0.4277290000000 1.0
C      1  0.4747740000000  0.5144090000000  0.4903700000000 1.0
C      1  0.5235970000000  0.5486300000000  0.4956650000000 1.0
C      1  0.4392540000000  0.4427100000000  0.4985150000000 1.0
C      1  0.5719580000000  0.5027410000000  0.4373470000000 1.0
C      1  0.5549320000000  0.4436630000000  0.5335950000000 1.0
C      1  0.4773710000000  0.4542870000000  0.5797190000000 1.0
C      1  0.5359930000000  0.4983920000000  0.5734400000000 1.0
C      1  0.5052450000000  0.4192790000000  0.4837180000000 1.0
C      1  0.5327750000000  0.4229840000000  0.4932990000000 1.0
C      1  0.5022450000000  0.5131170000000  0.4113680000000 1.0
C      1  0.4927000000000  0.4143010000000  0.5316770000000 1.0
C      1  0.5100450000000  0.5385760000000  0.4219600000000 1.0
END
