TITL C-71918-623-5 -0.134296795433059 125000 -344.443391388737 0 0 50 (C1) n - 1
REM
REM in /rds/project/t2_vol4/rds-t2-cs072/BORA/CARBON/from-Arr/AIRSS/Generating-Clusters/GAP-ML-2020/Only-C1/SD-CG/HFTN-CG
REM
REM
REM
REM
REM
REM ./C.cell (11c1c37f851c82e70ff6c80c92926a4b)
REM AIRSS Version 0.9.1 bugfix July 2018 build 013d7b7c2542+ Fri, 06 Jul 2018 19:26:36 +0100
REM compiler GCC version 9.3.0
REM options -cpp -mtune=generic -march=x86-64 -g -O0
REM seed -1733052327 -1715897216 -1631297013 1732283906 1788818563 1461074660 -1173773317 962053427 1665082885 1645207971 1512159574 -97639728 -37008592 -330186717 395845793 -111783939 -1542962223 1171320290 -1542214012 -51747486 748584204 1172029112 1429868817 1101183473 -253349185 -768036564 -1142155532 449614293 -875968441 -1934640199 115655245 1554054245 1320522513
REM
CELL 1.54180   50.00000   50.00000   50.00000   90.00000   90.00000   90.00000
LATT -1
SFAC C  
C      1  0.4665570000000  0.4760890000000  0.4635570000000 1.0
C      1  0.5418930000000  0.4520360000000  0.4882300000000 1.0
C      1  0.4791370000000  0.4227710000000  0.5399700000000 1.0
C      1  0.5367520000000  0.5383540000000  0.4633630000000 1.0
C      1  0.5057550000000  0.4814440000000  0.5067410000000 1.0
C      1  0.5570890000000  0.4611380000000  0.5093440000000 1.0
C      1  0.5318810000000  0.5364870000000  0.5327740000000 1.0
C      1  0.4904530000000  0.5138520000000  0.4422460000000 1.0
C      1  0.5517330000000  0.4947450000000  0.4691200000000 1.0
C      1  0.4913940000000  0.5419470000000  0.4480930000000 1.0
C      1  0.5511960000000  0.5096210000000  0.4978830000000 1.0
C      1  0.5490630000000  0.5371420000000  0.4891600000000 1.0
C      1  0.4632050000000  0.4291340000000  0.5209810000000 1.0
C      1  0.5056050000000  0.5523110000000  0.5315450000000 1.0
C      1  0.4847060000000  0.5018260000000  0.5046920000000 1.0
C      1  0.4663390000000  0.5030440000000  0.4545730000000 1.0
C      1  0.5423130000000  0.4621870000000  0.5325000000000 1.0
C      1  0.4471500000000  0.5275570000000  0.4975420000000 1.0
C      1  0.5158430000000  0.5669980000000  0.5084080000000 1.0
C      1  0.5025790000000  0.5684690000000  0.4843860000000 1.0
C      1  0.4519560000000  0.4699040000000  0.4876820000000 1.0
C      1  0.5224530000000  0.4418900000000  0.5286800000000 1.0
C      1  0.4575640000000  0.4989490000000  0.5346000000000 1.0
C      1  0.4396900000000  0.5049530000000  0.5128150000000 1.0
C      1  0.4786510000000  0.5440460000000  0.5319580000000 1.0
C      1  0.5009610000000  0.5221070000000  0.4938190000000 1.0
C      1  0.4733950000000  0.5197370000000  0.5462810000000 1.0
C      1  0.5399350000000  0.5525940000000  0.5094200000000 1.0
C      1  0.4687890000000  0.4733790000000  0.5340920000000 1.0
C      1  0.5207110000000  0.5015210000000  0.4919410000000 1.0
C      1  0.5438090000000  0.5108090000000  0.5294500000000 1.0
C      1  0.4912880000000  0.4671730000000  0.5495170000000 1.0
C      1  0.5147870000000  0.4995340000000  0.4415110000000 1.0
C      1  0.4317350000000  0.4845360000000  0.4967250000000 1.0
C      1  0.4539000000000  0.5249460000000  0.4695330000000 1.0
C      1  0.5383010000000  0.5128150000000  0.4516770000000 1.0
C      1  0.4632020000000  0.5487350000000  0.5085430000000 1.0
C      1  0.5004000000000  0.4409470000000  0.5450230000000 1.0
C      1  0.4682850000000  0.5483000000000  0.4629960000000 1.0
C      1  0.5137740000000  0.5543340000000  0.4607140000000 1.0
C      1  0.4914870000000  0.4621260000000  0.4643440000000 1.0
C      1  0.5096150000000  0.4879090000000  0.5561460000000 1.0
C      1  0.4684200000000  0.4556460000000  0.5074660000000 1.0
C      1  0.5189910000000  0.4395410000000  0.4997900000000 1.0
C      1  0.4953230000000  0.5102980000000  0.5587130000000 1.0
C      1  0.4748300000000  0.5627410000000  0.4862850000000 1.0
C      1  0.5364450000000  0.4875870000000  0.5444170000000 1.0
C      1  0.5402050000000  0.4687000000000  0.4660910000000 1.0
C      1  0.5151660000000  0.4721670000000  0.4521650000000 1.0
C      1  0.4952870000000  0.4549230000000  0.4924990000000 1.0
END
