TITL C-72062-1791-12 -380.046395808529 125000 -423.959422711388 0 0 62 (C1) n - 1
REM
REM in /rds/project/t2_vol4/rds-t2-cs072/BORA/CARBON/from-Arr/AIRSS/Generating-Clusters/GAP-ML-2020/Only-C1/SD-CG/HFTN-CG
REM
REM
REM
REM
REM
REM ./C.cell (11c1c37f851c82e70ff6c80c92926a4b)
REM AIRSS Version 0.9.1 bugfix July 2018 build 013d7b7c2542+ Fri, 06 Jul 2018 19:26:36 +0100
REM compiler GCC version 9.3.0
REM options -cpp -mtune=generic -march=x86-64 -g -O0
REM seed 962958821 1863519284 -756292709 1081150026 1247935549 -1976256187 124839339 1820896517 -1891765249 -1670677387 -730997182 1580287419 948991770 175839657 2035160371 -455757530 -836961778 -1203841072 1605364938 1073898405 -1841428752 -2096092936 -1513065839 -1049067573 1744185670 -1325328748 512904392 -1931644974 -444853378 1525008846 -1492001723 1442740801 1090552598
REM
CELL 1.54180   50.00000   50.00000   50.00000   90.00000   90.00000   90.00000
LATT -1
SFAC C  
C      1  0.4967050000000  0.5015140000000  0.4414060000000 1.0
C      1  0.5001000000000  0.5282480000000  0.4534080000000 1.0
C      1  0.4408660000000  0.4877760000000  0.5555460000000 1.0
C      1  0.4850590000000  0.4785180000000  0.4928130000000 1.0
C      1  0.5457970000000  0.5452390000000  0.4576600000000 1.0
C      1  0.5081250000000  0.5196640000000  0.4860080000000 1.0
C      1  0.5193960000000  0.5796170000000  0.4744920000000 1.0
C      1  0.4610770000000  0.5046740000000  0.5666380000000 1.0
C      1  0.4548820000000  0.4436160000000  0.5112210000000 1.0
C      1  0.4590210000000  0.4654970000000  0.5590710000000 1.0
C      1  0.5255780000000  0.4365710000000  0.4983360000000 1.0
C      1  0.5211010000000  0.5496220000000  0.5415920000000 1.0
C      1  0.5151340000000  0.4384500000000  0.4714730000000 1.0
C      1  0.5036560000000  0.5698510000000  0.4964130000000 1.0
C      1  0.5091980000000  0.4915700000000  0.4900940000000 1.0
C      1  0.5035130000000  0.4359290000000  0.5168130000000 1.0
C      1  0.5488140000000  0.5565400000000  0.5043680000000 1.0
C      1  0.5711980000000  0.4933180000000  0.5039000000000 1.0
C      1  0.5394320000000  0.4583710000000  0.5367010000000 1.0
C      1  0.4743050000000  0.5381780000000  0.4633330000000 1.0
C      1  0.5210750000000  0.4848430000000  0.4422710000000 1.0
C      1  0.5234590000000  0.5628430000000  0.5179490000000 1.0
C      1  0.4563530000000  0.5162520000000  0.4631080000000 1.0
C      1  0.4388890000000  0.4605630000000  0.4940460000000 1.0
C      1  0.5579750000000  0.5196160000000  0.4614400000000 1.0
C      1  0.4392260000000  0.4889730000000  0.5037920000000 1.0
C      1  0.5649740000000  0.5337610000000  0.5094290000000 1.0
C      1  0.4510050000000  0.5585080000000  0.4999030000000 1.0
C      1  0.5281430000000  0.4583970000000  0.4557000000000 1.0
C      1  0.4870400000000  0.5287880000000  0.5022290000000 1.0
C      1  0.4355810000000  0.5259440000000  0.5310570000000 1.0
C      1  0.4376160000000  0.5354810000000  0.5039920000000 1.0
C      1  0.4567930000000  0.4686780000000  0.4470420000000 1.0
C      1  0.5252250000000  0.5243230000000  0.5495720000000 1.0
C      1  0.5061500000000  0.4796130000000  0.5546650000000 1.0
C      1  0.4684610000000  0.4947560000000  0.4474180000000 1.0
C      1  0.5470310000000  0.4515690000000  0.5098110000000 1.0
C      1  0.4801540000000  0.5133700000000  0.5256720000000 1.0
C      1  0.5617750000000  0.4691450000000  0.4928740000000 1.0
C      1  0.4813190000000  0.4827980000000  0.5695700000000 1.0
C      1  0.5223470000000  0.4962090000000  0.5134290000000 1.0
C      1  0.5459140000000  0.5648180000000  0.4775300000000 1.0
C      1  0.4611250000000  0.5241990000000  0.5452360000000 1.0
C      1  0.4860360000000  0.4332290000000  0.4737290000000 1.0
C      1  0.4289800000000  0.4981120000000  0.5309200000000 1.0
C      1  0.5383610000000  0.4801540000000  0.5546730000000 1.0
C      1  0.5526030000000  0.4703630000000  0.4657120000000 1.0
C      1  0.4390840000000  0.5130300000000  0.4858830000000 1.0
C      1  0.4789150000000  0.4319760000000  0.5017360000000 1.0
C      1  0.4651890000000  0.4426860000000  0.4566790000000 1.0
C      1  0.5650750000000  0.5104830000000  0.5274150000000 1.0
C      1  0.4687760000000  0.4864150000000  0.5150880000000 1.0
C      1  0.5470540000000  0.4953080000000  0.4514680000000 1.0
C      1  0.5108570000000  0.5746960000000  0.4488780000000 1.0
C      1  0.4622830000000  0.4606320000000  0.5322570000000 1.0
C      1  0.5709440000000  0.5166450000000  0.4866490000000 1.0
C      1  0.5059690000000  0.5046790000000  0.5371190000000 1.0
C      1  0.5492210000000  0.5061290000000  0.5506970000000 1.0
C      1  0.4773970000000  0.5544380000000  0.4906340000000 1.0
C      1  0.5111580000000  0.4516050000000  0.5392850000000 1.0
C      1  0.4420310000000  0.4549360000000  0.4672110000000 1.0
C      1  0.5194820000000  0.5482760000000  0.4449500000000 1.0
END
