TITL C-72049-1787-6 69.6311740814498 125000 -644.621046999658 0 0 95 (C1) n - 1
REM
REM in /rds/project/t2_vol4/rds-t2-cs072/BORA/CARBON/from-Arr/AIRSS/Generating-Clusters/GAP-ML-2020/Only-C1/SD-CG/HFTN-CG
REM
REM
REM
REM
REM
REM ./C.cell (11c1c37f851c82e70ff6c80c92926a4b)
REM AIRSS Version 0.9.1 bugfix July 2018 build 013d7b7c2542+ Fri, 06 Jul 2018 19:26:36 +0100
REM compiler GCC version 9.3.0
REM options -cpp -mtune=generic -march=x86-64 -g -O0
REM seed -836166709 -542530943 -1075028240 1700518190 -1556026492 1763048407 -1356689287 1977069845 -21820735 -808151707 -612619065 -115486640 -1673582669 1825110275 -994588218 718341941 547940846 -508385333 496963630 -121403219 1276525938 1872425502 1726681684 -200345187 -267047732 640773258 1217498019 -447931401 937918404 -1167277839 -495049869 -10727693 -1229144676
REM
CELL 1.54180   50.00000   50.00000   50.00000   90.00000   90.00000   90.00000
LATT -1
SFAC C  
C      1  0.4736230000000  0.5583560000000  0.4656020000000 1.0
C      1  0.4723520000000  0.4429720000000  0.5391220000000 1.0
C      1  0.5146450000000  0.5430530000000  0.4966040000000 1.0
C      1  0.5371290000000  0.5028060000000  0.4768390000000 1.0
C      1  0.4787210000000  0.5807970000000  0.5074560000000 1.0
C      1  0.4427560000000  0.4637610000000  0.4429080000000 1.0
C      1  0.4548570000000  0.5439680000000  0.4859650000000 1.0
C      1  0.5744480000000  0.4808420000000  0.4867900000000 1.0
C      1  0.5034870000000  0.4181280000000  0.5087930000000 1.0
C      1  0.4866290000000  0.5781860000000  0.4805150000000 1.0
C      1  0.5038420000000  0.5806320000000  0.5236590000000 1.0
C      1  0.5443060000000  0.4412260000000  0.4900220000000 1.0
C      1  0.4817210000000  0.4908690000000  0.5301270000000 1.0
C      1  0.4699500000000  0.5159410000000  0.4881380000000 1.0
C      1  0.5588280000000  0.4850340000000  0.4622160000000 1.0
C      1  0.4880670000000  0.4244670000000  0.4846490000000 1.0
C      1  0.5572380000000  0.5313390000000  0.5618280000000 1.0
C      1  0.4338650000000  0.5067350000000  0.4256320000000 1.0
C      1  0.5568170000000  0.5557680000000  0.5244080000000 1.0
C      1  0.5492120000000  0.4856550000000  0.5469480000000 1.0
C      1  0.5073680000000  0.4664580000000  0.5646240000000 1.0
C      1  0.4618150000000  0.4676320000000  0.4044640000000 1.0
C      1  0.4308450000000  0.4347110000000  0.4653000000000 1.0
C      1  0.4481360000000  0.4797980000000  0.4658170000000 1.0
C      1  0.5631890000000  0.4595630000000  0.5023220000000 1.0
C      1  0.4617340000000  0.4927870000000  0.5072940000000 1.0
C      1  0.5766660000000  0.5080070000000  0.5001760000000 1.0
C      1  0.5735520000000  0.5604210000000  0.4987630000000 1.0
C      1  0.4841600000000  0.4581040000000  0.4192930000000 1.0
C      1  0.4894500000000  0.5081360000000  0.5815230000000 1.0
C      1  0.4912520000000  0.5004250000000  0.4472820000000 1.0
C      1  0.5214950000000  0.4426500000000  0.5583930000000 1.0
C      1  0.5169260000000  0.5302380000000  0.5365020000000 1.0
C      1  0.4421780000000  0.4466350000000  0.5053050000000 1.0
C      1  0.5202940000000  0.5601140000000  0.4524240000000 1.0
C      1  0.5145410000000  0.5719240000000  0.4795160000000 1.0
C      1  0.5084010000000  0.4687620000000  0.4848580000000 1.0
C      1  0.5015540000000  0.4302360000000  0.4585460000000 1.0
C      1  0.4204340000000  0.4507460000000  0.4856580000000 1.0
C      1  0.5680630000000  0.5088250000000  0.5490810000000 1.0
C      1  0.5273950000000  0.5623810000000  0.5628590000000 1.0
C      1  0.5280400000000  0.4840490000000  0.4297040000000 1.0
C      1  0.5052900000000  0.5063180000000  0.5235190000000 1.0
C      1  0.4512620000000  0.4364560000000  0.4472590000000 1.0
C      1  0.5268610000000  0.4340750000000  0.5128420000000 1.0
C      1  0.4951850000000  0.5491870000000  0.4454580000000 1.0
C      1  0.4402850000000  0.4759730000000  0.5520440000000 1.0
C      1  0.5842640000000  0.5099710000000  0.5271510000000 1.0
C      1  0.4506590000000  0.5265170000000  0.5523450000000 1.0
C      1  0.4838820000000  0.4547690000000  0.4833600000000 1.0
C      1  0.4303210000000  0.5289080000000  0.4743330000000 1.0
C      1  0.5547160000000  0.5794370000000  0.5071270000000 1.0
C      1  0.5674100000000  0.5340450000000  0.4567440000000 1.0
C      1  0.5030850000000  0.5741840000000  0.5531580000000 1.0
C      1  0.5543160000000  0.5587180000000  0.5524760000000 1.0
C      1  0.4577190000000  0.5515980000000  0.5389790000000 1.0
C      1  0.5378940000000  0.5343470000000  0.5152030000000 1.0
C      1  0.4455750000000  0.4528200000000  0.5349900000000 1.0
C      1  0.4932270000000  0.4641910000000  0.5365490000000 1.0
C      1  0.4739340000000  0.5300290000000  0.5699960000000 1.0
C      1  0.4336430000000  0.5008260000000  0.5146530000000 1.0
C      1  0.5094940000000  0.4966810000000  0.4747150000000 1.0
C      1  0.4795690000000  0.5565870000000  0.5580430000000 1.0
C      1  0.4638820000000  0.5042970000000  0.4602750000000 1.0
C      1  0.4425680000000  0.4802770000000  0.4193060000000 1.0
C      1  0.5304060000000  0.4887760000000  0.5214400000000 1.0
C      1  0.4351370000000  0.5038670000000  0.5427380000000 1.0
C      1  0.4998360000000  0.5170360000000  0.4940260000000 1.0
C      1  0.5425260000000  0.5434610000000  0.4433760000000 1.0
C      1  0.4804310000000  0.4362260000000  0.4393340000000 1.0
C      1  0.5018950000000  0.5513120000000  0.5216070000000 1.0
C      1  0.4824050000000  0.4803620000000  0.5785050000000 1.0
C      1  0.5040880000000  0.5241500000000  0.4358920000000 1.0
C      1  0.5145160000000  0.4638950000000  0.5138310000000 1.0
C      1  0.4200590000000  0.5066550000000  0.4899210000000 1.0
C      1  0.4599930000000  0.4675150000000  0.4905600000000 1.0
C      1  0.4786100000000  0.4199120000000  0.5237150000000 1.0
C      1  0.5271610000000  0.4478950000000  0.4659730000000 1.0
C      1  0.5282230000000  0.5324720000000  0.5662790000000 1.0
C      1  0.4207120000000  0.4814380000000  0.4767350000000 1.0
C      1  0.5004590000000  0.4799240000000  0.4279420000000 1.0
C      1  0.5460880000000  0.5078190000000  0.5031480000000 1.0
C      1  0.4407320000000  0.5191390000000  0.4484110000000 1.0
C      1  0.5608600000000  0.5088400000000  0.4460610000000 1.0
C      1  0.5587780000000  0.4600320000000  0.5323230000000 1.0
C      1  0.4571250000000  0.4747430000000  0.5729750000000 1.0
C      1  0.4617730000000  0.4221710000000  0.5010060000000 1.0
C      1  0.5269620000000  0.5852130000000  0.5031270000000 1.0
C      1  0.5763040000000  0.5357780000000  0.4838200000000 1.0
C      1  0.5397370000000  0.4397820000000  0.5388410000000 1.0
C      1  0.5290320000000  0.4850060000000  0.5690690000000 1.0
C      1  0.5418320000000  0.4665130000000  0.4476580000000 1.0
C      1  0.5335140000000  0.5157750000000  0.4321150000000 1.0
C      1  0.5178410000000  0.5093380000000  0.5797780000000 1.0
C      1  0.4579440000000  0.5616050000000  0.5113410000000 1.0
END
