TITL C-72054-1758-8 9.07436619658914 125000 -150.728828515406 0 0 23 (C1) n - 1
REM
REM in /rds/project/t2_vol4/rds-t2-cs072/BORA/CARBON/from-Arr/AIRSS/Generating-Clusters/GAP-ML-2020/Only-C1/SD-CG/HFTN-CG
REM
REM
REM
REM
REM
REM ./C.cell (11c1c37f851c82e70ff6c80c92926a4b)
REM AIRSS Version 0.9.1 bugfix July 2018 build 013d7b7c2542+ Fri, 06 Jul 2018 19:26:36 +0100
REM compiler GCC version 9.3.0
REM options -cpp -mtune=generic -march=x86-64 -g -O0
REM seed 567555218 -329257148 843788850 -2039657491 545013127 1579405747 -1936607434 80076194 718552714 2054973454 -959885160 1718774454 -1718267606 167457785 1875295411 -906673422 994009582 -854958676 -1044945917 1574446935 -1050160171 -530887490 670595572 1325199232 -585763558 565328887 605331551 2132180956 -1660768967 742715423 -1390498575 589398198 2012024859
REM
CELL 1.54180   50.00000   50.00000   50.00000   90.00000   90.00000   90.00000
LATT -1
SFAC C  
C      1  0.4643600000000  0.4531540000000  0.4671360000000 1.0
C      1  0.5443280000000  0.5076860000000  0.4880380000000 1.0
C      1  0.4536550000000  0.5119970000000  0.5004460000000 1.0
C      1  0.4652690000000  0.5124710000000  0.5265880000000 1.0
C      1  0.4859230000000  0.4519150000000  0.4519910000000 1.0
C      1  0.4524960000000  0.4871350000000  0.5322680000000 1.0
C      1  0.5073310000000  0.5374900000000  0.5160590000000 1.0
C      1  0.5039280000000  0.5066850000000  0.5541760000000 1.0
C      1  0.4457040000000  0.4833980000000  0.5040060000000 1.0
C      1  0.5560590000000  0.4978730000000  0.5113950000000 1.0
C      1  0.4624210000000  0.5218640000000  0.4772590000000 1.0
C      1  0.4826280000000  0.5267560000000  0.4616100000000 1.0
C      1  0.5476260000000  0.4846230000000  0.5590390000000 1.0
C      1  0.4512990000000  0.4635960000000  0.4864710000000 1.0
C      1  0.5033620000000  0.5402950000000  0.4756850000000 1.0
C      1  0.5246420000000  0.5289200000000  0.4919570000000 1.0
C      1  0.4910110000000  0.5210340000000  0.5346560000000 1.0
C      1  0.4943880000000  0.5562360000000  0.4996060000000 1.0
C      1  0.5231880000000  0.4940100000000  0.5639370000000 1.0
C      1  0.5421450000000  0.4908100000000  0.4659430000000 1.0
C      1  0.5095990000000  0.4589850000000  0.4454630000000 1.0
C      1  0.5310510000000  0.4735880000000  0.4513780000000 1.0
C      1  0.5575860000000  0.4894800000000  0.5348940000000 1.0
END
