TITL C-72039-1758-7 18.109603615485 125000 -864.493257630599 0 0 125 (C1) n - 1
REM
REM in /rds/project/t2_vol4/rds-t2-cs072/BORA/CARBON/from-Arr/AIRSS/Generating-Clusters/GAP-ML-2020/Only-C1/SD-CG/HFTN-CG
REM
REM
REM
REM
REM
REM ./C.cell (11c1c37f851c82e70ff6c80c92926a4b)
REM AIRSS Version 0.9.1 bugfix July 2018 build 013d7b7c2542+ Fri, 06 Jul 2018 19:26:36 +0100
REM compiler GCC version 9.3.0
REM options -cpp -mtune=generic -march=x86-64 -g -O0
REM seed 2126022781 1547532240 863340596 1826398321 1978441046 -544628785 822162525 1163823441 -1209157528 1584955617 497058354 -1487390279 1560900045 1087130530 856641378 -442074958 1271495334 -51718080 -147563029 -707506942 1333497622 -733188138 508862773 -895649359 -1746335858 1709587978 1435814427 -1301997890 -283202462 -1062411993 937620105 588352377 744075202
REM
CELL 1.54180   50.00000   50.00000   50.00000   90.00000   90.00000   90.00000
LATT -1
SFAC C  
C      1  0.4541100000000  0.4136980000000  0.4653730000000 1.0
C      1  0.5223750000000  0.4923440000000  0.4614300000000 1.0
C      1  0.5003930000000  0.4075310000000  0.4990550000000 1.0
C      1  0.4463720000000  0.4534760000000  0.5829630000000 1.0
C      1  0.5029890000000  0.5162820000000  0.4624480000000 1.0
C      1  0.4113600000000  0.5355100000000  0.5399110000000 1.0
C      1  0.5018370000000  0.4986130000000  0.5942340000000 1.0
C      1  0.5352110000000  0.4584820000000  0.4299470000000 1.0
C      1  0.4628300000000  0.4587890000000  0.4218010000000 1.0
C      1  0.4752380000000  0.5114520000000  0.5014310000000 1.0
C      1  0.4738570000000  0.4499780000000  0.5798060000000 1.0
C      1  0.4742990000000  0.5695460000000  0.4469020000000 1.0
C      1  0.3975910000000  0.4861780000000  0.5323750000000 1.0
C      1  0.4510880000000  0.4112370000000  0.4944840000000 1.0
C      1  0.5124960000000  0.4814530000000  0.4322370000000 1.0
C      1  0.5362790000000  0.5276820000000  0.5816790000000 1.0
C      1  0.5563730000000  0.4794090000000  0.4275940000000 1.0
C      1  0.4923710000000  0.4685120000000  0.5292570000000 1.0
C      1  0.4231250000000  0.4503420000000  0.4469300000000 1.0
C      1  0.4358730000000  0.5532540000000  0.5036500000000 1.0
C      1  0.5895170000000  0.5023530000000  0.4889470000000 1.0
C      1  0.5334300000000  0.5453430000000  0.4953180000000 1.0
C      1  0.4147760000000  0.4779400000000  0.4854700000000 1.0
C      1  0.5863340000000  0.5255760000000  0.4702150000000 1.0
C      1  0.4247670000000  0.5009090000000  0.4464710000000 1.0
C      1  0.4722630000000  0.4439630000000  0.5291100000000 1.0
C      1  0.5430540000000  0.5182750000000  0.4977030000000 1.0
C      1  0.4837110000000  0.4366970000000  0.5565960000000 1.0
C      1  0.4899620000000  0.5361890000000  0.5038220000000 1.0
C      1  0.5598940000000  0.5875920000000  0.5201790000000 1.0
C      1  0.5404310000000  0.5564000000000  0.4309420000000 1.0
C      1  0.4524480000000  0.5334980000000  0.4273760000000 1.0
C      1  0.5576020000000  0.4922360000000  0.5541450000000 1.0
C      1  0.5430070000000  0.4242680000000  0.4947850000000 1.0
C      1  0.5029980000000  0.5458620000000  0.5279560000000 1.0
C      1  0.5643000000000  0.5756020000000  0.4710210000000 1.0
C      1  0.5690460000000  0.5252720000000  0.5159260000000 1.0
C      1  0.5202370000000  0.4662700000000  0.4773850000000 1.0
C      1  0.4454760000000  0.5047910000000  0.5069040000000 1.0
C      1  0.3963930000000  0.5153500000000  0.5351400000000 1.0
C      1  0.5011260000000  0.5253250000000  0.4303040000000 1.0
C      1  0.5231480000000  0.5024540000000  0.5159460000000 1.0
C      1  0.4455460000000  0.5058170000000  0.4253700000000 1.0
C      1  0.5486560000000  0.5020080000000  0.4721840000000 1.0
C      1  0.5551100000000  0.5233180000000  0.5608660000000 1.0
C      1  0.4269960000000  0.4265870000000  0.4944640000000 1.0
C      1  0.4596940000000  0.5506910000000  0.5496100000000 1.0
C      1  0.5888930000000  0.5048770000000  0.5179740000000 1.0
C      1  0.4450190000000  0.4784250000000  0.4926750000000 1.0
C      1  0.4287210000000  0.4282570000000  0.4648000000000 1.0
C      1  0.5838790000000  0.5537470000000  0.4786470000000 1.0
C      1  0.5307990000000  0.4212800000000  0.4685380000000 1.0
C      1  0.4751160000000  0.4228620000000  0.5065670000000 1.0
C      1  0.5274940000000  0.5991860000000  0.4893040000000 1.0
C      1  0.5755190000000  0.4696760000000  0.4453410000000 1.0
C      1  0.5329410000000  0.5879780000000  0.5331450000000 1.0
C      1  0.5419520000000  0.5752880000000  0.4510590000000 1.0
C      1  0.5242130000000  0.5885930000000  0.5599720000000 1.0
C      1  0.4918250000000  0.4674840000000  0.4834970000000 1.0
C      1  0.5663720000000  0.4537760000000  0.4671380000000 1.0
C      1  0.5385050000000  0.4474010000000  0.4575340000000 1.0
C      1  0.4871610000000  0.5876870000000  0.5173070000000 1.0
C      1  0.4472470000000  0.4607640000000  0.5209640000000 1.0
C      1  0.4780870000000  0.5460850000000  0.4288050000000 1.0
C      1  0.5842120000000  0.5503060000000  0.5062830000000 1.0
C      1  0.4287710000000  0.5274060000000  0.4920350000000 1.0
C      1  0.5217190000000  0.4586230000000  0.5755250000000 1.0
C      1  0.4214310000000  0.4467340000000  0.5135920000000 1.0
C      1  0.5550290000000  0.5919750000000  0.4926620000000 1.0
C      1  0.4760930000000  0.5076440000000  0.4721650000000 1.0
C      1  0.4681120000000  0.4802630000000  0.4719950000000 1.0
C      1  0.4496600000000  0.5723330000000  0.4872960000000 1.0
C      1  0.4646160000000  0.5267180000000  0.5651500000000 1.0
C      1  0.4023760000000  0.4696820000000  0.5092530000000 1.0
C      1  0.5112260000000  0.5198810000000  0.5347880000000 1.0
C      1  0.4909150000000  0.5234580000000  0.5799930000000 1.0
C      1  0.5092260000000  0.5374390000000  0.4832320000000 1.0
C      1  0.5251110000000  0.4084030000000  0.5149580000000 1.0
C      1  0.5045160000000  0.4116590000000  0.4706150000000 1.0
C      1  0.4371390000000  0.4497080000000  0.4233960000000 1.0
C      1  0.4955790000000  0.4875250000000  0.5074600000000 1.0
C      1  0.5310320000000  0.5550130000000  0.5238690000000 1.0
C      1  0.5729690000000  0.4321500000000  0.4879530000000 1.0
C      1  0.4994520000000  0.5076270000000  0.5559370000000 1.0
C      1  0.4358180000000  0.5450020000000  0.4480440000000 1.0
C      1  0.5568860000000  0.5426330000000  0.5387890000000 1.0
C      1  0.4669110000000  0.4877940000000  0.4178010000000 1.0
C      1  0.4354390000000  0.5501690000000  0.5329840000000 1.0
C      1  0.4857200000000  0.4832420000000  0.5545080000000 1.0
C      1  0.4839810000000  0.4414650000000  0.4325230000000 1.0
C      1  0.5299230000000  0.5014890000000  0.5922030000000 1.0
C      1  0.5397780000000  0.4828750000000  0.5299950000000 1.0
C      1  0.5337160000000  0.4530370000000  0.5024850000000 1.0
C      1  0.4899750000000  0.5855910000000  0.4653250000000 1.0
C      1  0.4749210000000  0.5857260000000  0.4916930000000 1.0
C      1  0.4492780000000  0.5661910000000  0.4597250000000 1.0
C      1  0.4144440000000  0.4764330000000  0.4572370000000 1.0
C      1  0.5186100000000  0.5903300000000  0.4643730000000 1.0
C      1  0.5830520000000  0.4602150000000  0.5228700000000 1.0
C      1  0.4805980000000  0.4247920000000  0.4578900000000 1.0
C      1  0.4186080000000  0.4815290000000  0.5513140000000 1.0
C      1  0.5132640000000  0.5979250000000  0.5139270000000 1.0
C      1  0.4260080000000  0.4642990000000  0.5718190000000 1.0
C      1  0.5205430000000  0.4586630000000  0.5298360000000 1.0
C      1  0.5245250000000  0.4134800000000  0.5421420000000 1.0
C      1  0.5904100000000  0.4390990000000  0.5085330000000 1.0
C      1  0.4609780000000  0.4996080000000  0.5548190000000 1.0
C      1  0.4810910000000  0.4408140000000  0.4831840000000 1.0
C      1  0.4242880000000  0.5246420000000  0.4634960000000 1.0
C      1  0.5149280000000  0.4379040000000  0.5543680000000 1.0
C      1  0.5575300000000  0.4701470000000  0.5085690000000 1.0
C      1  0.5417200000000  0.4800240000000  0.5769730000000 1.0
C      1  0.5317600000000  0.5310060000000  0.4234960000000 1.0
C      1  0.5679450000000  0.4819540000000  0.4821080000000 1.0
C      1  0.5058420000000  0.5695440000000  0.5668210000000 1.0
C      1  0.5655370000000  0.5171790000000  0.4526440000000 1.0
C      1  0.5840810000000  0.4847630000000  0.5379210000000 1.0
C      1  0.4931910000000  0.4985220000000  0.4198820000000 1.0
C      1  0.4423980000000  0.4889470000000  0.5352750000000 1.0
C      1  0.5530290000000  0.5103840000000  0.4273190000000 1.0
C      1  0.5074600000000  0.4537470000000  0.4258540000000 1.0
C      1  0.5747410000000  0.5653350000000  0.5274780000000 1.0
C      1  0.4958480000000  0.4709430000000  0.5825640000000 1.0
C      1  0.5113970000000  0.5443330000000  0.5800850000000 1.0
C      1  0.4849100000000  0.5659520000000  0.5420440000000 1.0
END
