TITL C-72066-1744-1 1395.04330918439 125000 -914.247937239466 0 0 130 (C1) n - 1
REM
REM in /rds/project/t2_vol4/rds-t2-cs072/BORA/CARBON/from-Arr/AIRSS/Generating-Clusters/GAP-ML-2020/Only-C1/SD-CG/HFTN-CG
REM
REM
REM
REM
REM
REM ./C.cell (11c1c37f851c82e70ff6c80c92926a4b)
REM AIRSS Version 0.9.1 bugfix July 2018 build 013d7b7c2542+ Fri, 06 Jul 2018 19:26:36 +0100
REM compiler GCC version 9.3.0
REM options -cpp -mtune=generic -march=x86-64 -g -O0
REM seed 140980281 636743303 -1068352014 1915336369 -1822790501 -2064545483 1901930610 -2111131401 -61716699 1711907339 1992164928 -1468167916 -826170154 1959827789 -171233492 488074818 836837368 989158035 583719734 -1402929643 -1532572493 2134343935 781273409 74628882 -411164077 -1397187733 112804745 1923652495 1229529430 -298810952 1958688688 -713352345 -1490513268
REM
CELL 1.54180   50.00000   50.00000   50.00000   90.00000   90.00000   90.00000
LATT -1
SFAC C  
C      1  0.4654820000000  0.4111270000000  0.4921000000000 1.0
C      1  0.5645970000000  0.5747360000000  0.5137800000000 1.0
C      1  0.4726240000000  0.5529950000000  0.4275880000000 1.0
C      1  0.4709620000000  0.4461350000000  0.5737670000000 1.0
C      1  0.5736350000000  0.4458140000000  0.5081840000000 1.0
C      1  0.4825450000000  0.5475670000000  0.5482570000000 1.0
C      1  0.4831440000000  0.5231430000000  0.5226000000000 1.0
C      1  0.5239650000000  0.6050370000000  0.5320270000000 1.0
C      1  0.5229920000000  0.5430440000000  0.4310030000000 1.0
C      1  0.5866010000000  0.4978290000000  0.4854130000000 1.0
C      1  0.5819260000000  0.5307930000000  0.4458760000000 1.0
C      1  0.4162230000000  0.4130420000000  0.5070310000000 1.0
C      1  0.4442950000000  0.4962270000000  0.4966290000000 1.0
C      1  0.5489630000000  0.5806920000000  0.5638030000000 1.0
C      1  0.4543780000000  0.5320080000000  0.4318730000000 1.0
C      1  0.5805580000000  0.4744660000000  0.4707050000000 1.0
C      1  0.4833720000000  0.6048730000000  0.5085390000000 1.0
C      1  0.5278710000000  0.4270480000000  0.5009790000000 1.0
C      1  0.4587780000000  0.5230050000000  0.4619760000000 1.0
C      1  0.5853450000000  0.5214230000000  0.5303660000000 1.0
C      1  0.4571880000000  0.5115200000000  0.4139790000000 1.0
C      1  0.5291700000000  0.4893800000000  0.5459990000000 1.0
C      1  0.5095410000000  0.5877370000000  0.4626380000000 1.0
C      1  0.4417200000000  0.4282130000000  0.4925620000000 1.0
C      1  0.5123960000000  0.4660660000000  0.4108110000000 1.0
C      1  0.4849970000000  0.5124190000000  0.4075140000000 1.0
C      1  0.5762960000000  0.4713110000000  0.5249990000000 1.0
C      1  0.5106850000000  0.5165290000000  0.5124840000000 1.0
C      1  0.4250300000000  0.5238600000000  0.4998640000000 1.0
C      1  0.5751900000000  0.4478660000000  0.4806690000000 1.0
C      1  0.5571390000000  0.4344350000000  0.4621600000000 1.0
C      1  0.5662420000000  0.5202590000000  0.4228520000000 1.0
C      1  0.5387410000000  0.4719600000000  0.4186940000000 1.0
C      1  0.4935830000000  0.4678570000000  0.5737440000000 1.0
C      1  0.5321780000000  0.4778550000000  0.4992070000000 1.0
C      1  0.5643100000000  0.4770420000000  0.4483970000000 1.0
C      1  0.4212430000000  0.4899860000000  0.5462370000000 1.0
C      1  0.5884380000000  0.4969150000000  0.5136330000000 1.0
C      1  0.5697310000000  0.4909140000000  0.5690850000000 1.0
C      1  0.4601240000000  0.5108310000000  0.5689870000000 1.0
C      1  0.5253380000000  0.5425630000000  0.5900190000000 1.0
C      1  0.5818550000000  0.5106580000000  0.5554150000000 1.0
C      1  0.5393530000000  0.4910020000000  0.5776350000000 1.0
C      1  0.4791450000000  0.4125420000000  0.4669290000000 1.0
C      1  0.5291180000000  0.5651890000000  0.5738920000000 1.0
C      1  0.5019650000000  0.5943490000000  0.5470570000000 1.0
C      1  0.3999450000000  0.5084390000000  0.5025480000000 1.0
C      1  0.5741350000000  0.5191440000000  0.4711090000000 1.0
C      1  0.4962280000000  0.5389370000000  0.4167260000000 1.0
C      1  0.4744450000000  0.4425330000000  0.4262490000000 1.0
C      1  0.4772860000000  0.5944740000000  0.5343570000000 1.0
C      1  0.4985150000000  0.4591170000000  0.4727370000000 1.0
C      1  0.5683660000000  0.5562570000000  0.4427770000000 1.0
C      1  0.4639580000000  0.5698220000000  0.5386090000000 1.0
C      1  0.4630250000000  0.4288310000000  0.4487850000000 1.0
C      1  0.5379110000000  0.4435990000000  0.5789270000000 1.0
C      1  0.5237040000000  0.5641530000000  0.4529680000000 1.0
C      1  0.4806540000000  0.4104920000000  0.5421700000000 1.0
C      1  0.3989660000000  0.4964730000000  0.4762280000000 1.0
C      1  0.5262990000000  0.5980120000000  0.4842790000000 1.0
C      1  0.4795850000000  0.5301250000000  0.5722460000000 1.0
C      1  0.4067760000000  0.4883610000000  0.5221880000000 1.0
C      1  0.5341980000000  0.5491090000000  0.4782110000000 1.0
C      1  0.5063630000000  0.4051200000000  0.4722460000000 1.0
C      1  0.4320330000000  0.5334910000000  0.4714200000000 1.0
C      1  0.5287180000000  0.5154950000000  0.5340860000000 1.0
C      1  0.4430580000000  0.4516890000000  0.5142270000000 1.0
C      1  0.5445760000000  0.5386040000000  0.5345890000000 1.0
C      1  0.4160420000000  0.5084200000000  0.4573380000000 1.0
C      1  0.4901450000000  0.4833620000000  0.4053380000000 1.0
C      1  0.5028880000000  0.4436070000000  0.4259510000000 1.0
C      1  0.4858510000000  0.4831860000000  0.4661750000000 1.0
C      1  0.5499650000000  0.4971540000000  0.4313160000000 1.0
C      1  0.5455870000000  0.4810720000000  0.5238750000000 1.0
C      1  0.5264120000000  0.5608350000000  0.5282930000000 1.0
C      1  0.5112540000000  0.4572410000000  0.4992540000000 1.0
C      1  0.5311800000000  0.4231540000000  0.4695730000000 1.0
C      1  0.5463130000000  0.5855070000000  0.5351220000000 1.0
C      1  0.4502310000000  0.4658010000000  0.5770830000000 1.0
C      1  0.5765690000000  0.4669810000000  0.5547360000000 1.0
C      1  0.4809410000000  0.5887300000000  0.4634350000000 1.0
C      1  0.5283260000000  0.5147260000000  0.5906150000000 1.0
C      1  0.5233520000000  0.4661190000000  0.5860340000000 1.0
C      1  0.4358670000000  0.4397760000000  0.5417930000000 1.0
C      1  0.5082440000000  0.4040990000000  0.5006810000000 1.0
C      1  0.5517350000000  0.4254350000000  0.5449210000000 1.0
C      1  0.5287140000000  0.5155010000000  0.4466350000000 1.0
C      1  0.5041160000000  0.5057810000000  0.4651710000000 1.0
C      1  0.4666950000000  0.4675900000000  0.4134920000000 1.0
C      1  0.4688310000000  0.4864310000000  0.5798940000000 1.0
C      1  0.4612780000000  0.4283250000000  0.5544700000000 1.0
C      1  0.4619130000000  0.4995180000000  0.5203210000000 1.0
C      1  0.4643140000000  0.5702340000000  0.4494940000000 1.0
C      1  0.4146310000000  0.4192020000000  0.5316490000000 1.0
C      1  0.4920400000000  0.5384060000000  0.4991540000000 1.0
C      1  0.5525180000000  0.5829030000000  0.4874800000000 1.0
C      1  0.4939360000000  0.4635120000000  0.5225200000000 1.0
C      1  0.5125810000000  0.6084960000000  0.5063080000000 1.0
C      1  0.4343370000000  0.5361500000000  0.5243740000000 1.0
C      1  0.5049590000000  0.4729660000000  0.5463830000000 1.0
C      1  0.4421720000000  0.5114110000000  0.5442680000000 1.0
C      1  0.4678570000000  0.5935380000000  0.4884370000000 1.0
C      1  0.5532960000000  0.4282190000000  0.5173400000000 1.0
C      1  0.5280290000000  0.4207910000000  0.5620650000000 1.0
C      1  0.4577310000000  0.4936200000000  0.4686900000000 1.0
C      1  0.4862080000000  0.5285570000000  0.4723530000000 1.0
C      1  0.5074970000000  0.5655030000000  0.5508810000000 1.0
C      1  0.4073470000000  0.4692300000000  0.4797000000000 1.0
C      1  0.5518240000000  0.5449670000000  0.4212740000000 1.0
C      1  0.4335790000000  0.4849310000000  0.4465940000000 1.0
C      1  0.4298740000000  0.4650830000000  0.5581450000000 1.0
C      1  0.5240010000000  0.5035370000000  0.4887500000000 1.0
C      1  0.5625660000000  0.4450200000000  0.5633980000000 1.0
C      1  0.4419550000000  0.5617160000000  0.4683160000000 1.0
C      1  0.5178140000000  0.4449380000000  0.4516180000000 1.0
C      1  0.4230290000000  0.4714650000000  0.5044150000000 1.0
C      1  0.4235610000000  0.4596230000000  0.4586420000000 1.0
C      1  0.5158260000000  0.5538080000000  0.5011950000000 1.0
C      1  0.5434960000000  0.5219640000000  0.4730380000000 1.0
C      1  0.5473010000000  0.4542100000000  0.4418250000000 1.0
C      1  0.4400460000000  0.4373470000000  0.4637780000000 1.0
C      1  0.5025220000000  0.5259700000000  0.5888920000000 1.0
C      1  0.4438690000000  0.5624060000000  0.5204630000000 1.0
C      1  0.4825370000000  0.4038980000000  0.5136770000000 1.0
C      1  0.5043670000000  0.4108670000000  0.5570310000000 1.0
C      1  0.4461330000000  0.4857770000000  0.4201630000000 1.0
C      1  0.5525280000000  0.5675550000000  0.4631790000000 1.0
C      1  0.5694660000000  0.5459900000000  0.5239620000000 1.0
C      1  0.4466650000000  0.5746830000000  0.4933630000000 1.0
C      1  0.4674240000000  0.4706190000000  0.5200300000000 1.0
END
