TITL C-72055-7836-8 -3.15781530360613 125000 -114.14190789905 0 0 18 (C1) n - 1
REM
REM in /rds/project/t2_vol4/rds-t2-cs072/BORA/CARBON/from-Arr/AIRSS/Generating-Clusters/GAP-ML-2020/Only-C1/SD-CG/HFTN-CG
REM
REM
REM
REM
REM
REM ./C.cell (11c1c37f851c82e70ff6c80c92926a4b)
REM AIRSS Version 0.9.1 bugfix July 2018 build 013d7b7c2542+ Fri, 06 Jul 2018 19:26:36 +0100
REM compiler GCC version 9.3.0
REM options -cpp -mtune=generic -march=x86-64 -g -O0
REM seed 1831193088 -139337380 360720405 1848686870 871283591 1820501794 -689446371 -2060852209 1918059374 56938331 303796607 1640960957 -1915807851 -630112488 2050234741 -1746076138 -1495467756 -546997574 638788084 693126232 -735049781 -987397887 1190675867 -417846493 403325732 1521003882 -465560880 -6982035 592136135 -1888586066 1438929780 -473275148 1160478745
REM
CELL 1.54180   50.00000   50.00000   50.00000   90.00000   90.00000   90.00000
LATT -1
SFAC C  
C      1  0.5042750000000  0.4751060000000  0.5482240000000 1.0
C      1  0.5178340000000  0.4676630000000  0.4886230000000 1.0
C      1  0.4580170000000  0.5073650000000  0.4834530000000 1.0
C      1  0.4762080000000  0.5085190000000  0.5284240000000 1.0
C      1  0.5198250000000  0.4545090000000  0.5447420000000 1.0
C      1  0.4757710000000  0.5256510000000  0.4757230000000 1.0
C      1  0.5021920000000  0.5228330000000  0.4607040000000 1.0
C      1  0.5127280000000  0.4985280000000  0.4559200000000 1.0
C      1  0.4896200000000  0.5404750000000  0.4972300000000 1.0
C      1  0.4967650000000  0.4548800000000  0.4989630000000 1.0
C      1  0.4819450000000  0.5357500000000  0.5224250000000 1.0
C      1  0.4745030000000  0.4668990000000  0.5029620000000 1.0
C      1  0.5381770000000  0.5273510000000  0.4923630000000 1.0
C      1  0.5154250000000  0.5378110000000  0.4831180000000 1.0
C      1  0.4655360000000  0.4923990000000  0.5059770000000 1.0
C      1  0.5261720000000  0.4786110000000  0.4662410000000 1.0
C      1  0.4885450000000  0.4951310000000  0.5483460000000 1.0
C      1  0.5564620000000  0.5105200000000  0.4965620000000 1.0
END
