TITL C-72054-1758-4 14.2986618942567 125000 -101.418496000867 0 0 16 (C1) n - 1
REM
REM in /rds/project/t2_vol4/rds-t2-cs072/BORA/CARBON/from-Arr/AIRSS/Generating-Clusters/GAP-ML-2020/Only-C1/SD-CG/HFTN-CG
REM
REM
REM
REM
REM
REM ./C.cell (11c1c37f851c82e70ff6c80c92926a4b)
REM AIRSS Version 0.9.1 bugfix July 2018 build 013d7b7c2542+ Fri, 06 Jul 2018 19:26:36 +0100
REM compiler GCC version 9.3.0
REM options -cpp -mtune=generic -march=x86-64 -g -O0
REM seed 2074355455 1113957828 1459844329 1182451498 404311060 1066067426 -1443545812 -1767716326 -1355082632 -1943224771 1302000511 -1392570303 -1264743090 102276675 -687462604 -1973484903 775438683 1882937944 -1771353954 -1395297216 -1433922375 471914343 642077450 121761995 1867876918 -1637828033 70357286 -232460175 -765526057 662252234 -1167858900 -1169804154 -1697953388
REM
CELL 1.54180   50.00000   50.00000   50.00000   90.00000   90.00000   90.00000
LATT -1
SFAC C  
C      1  0.4656360000000  0.5076260000000  0.5427530000000 1.0
C      1  0.5086010000000  0.4867970000000  0.5575410000000 1.0
C      1  0.4847010000000  0.4946950000000  0.5553340000000 1.0
C      1  0.4657410000000  0.5193360000000  0.4831840000000 1.0
C      1  0.4756100000000  0.5064280000000  0.4613700000000 1.0
C      1  0.4996900000000  0.4753280000000  0.4471240000000 1.0
C      1  0.5025870000000  0.5056630000000  0.4493260000000 1.0
C      1  0.5470260000000  0.4837500000000  0.5261050000000 1.0
C      1  0.4800440000000  0.5357870000000  0.4973890000000 1.0
C      1  0.4730320000000  0.4786930000000  0.4534450000000 1.0
C      1  0.4467920000000  0.5226650000000  0.5340290000000 1.0
C      1  0.5327350000000  0.4837480000000  0.5473410000000 1.0
C      1  0.5410900000000  0.4853100000000  0.4772820000000 1.0
C      1  0.5225280000000  0.4881570000000  0.4588430000000 1.0
C      1  0.5026010000000  0.5419230000000  0.5085210000000 1.0
C      1  0.5515870000000  0.4840960000000  0.5004150000000 1.0
END
