TITL C-72047-1717-8 70.7641909452679 125000 -269.845230170432 0 0 41 (C1) n - 1
REM
REM in /rds/project/t2_vol4/rds-t2-cs072/BORA/CARBON/from-Arr/AIRSS/Generating-Clusters/GAP-ML-2020/Only-C1/SD-CG/HFTN-CG
REM
REM
REM
REM
REM
REM ./C.cell (11c1c37f851c82e70ff6c80c92926a4b)
REM AIRSS Version 0.9.1 bugfix July 2018 build 013d7b7c2542+ Fri, 06 Jul 2018 19:26:36 +0100
REM compiler GCC version 9.3.0
REM options -cpp -mtune=generic -march=x86-64 -g -O0
REM seed -302730920 -1661929489 -931029002 -1103552486 -83630105 159780694 -1462805026 -1948798925 -1465481286 1242897667 290783356 895402555 -597991371 178010045 -1503567656 2024305531 1687069876 -917835193 -1948469168 -56268739 -825079661 -1031782694 -1681487481 1564315730 -1433206923 146478613 1201282170 926174916 390808847 2062497206 1395467087 2111869464 -683806359
REM
CELL 1.54180   50.00000   50.00000   50.00000   90.00000   90.00000   90.00000
LATT -1
SFAC C  
C      1  0.5005940000000  0.5257950000000  0.4506220000000 1.0
C      1  0.4948710000000  0.5566350000000  0.5009770000000 1.0
C      1  0.5199470000000  0.5253940000000  0.5395130000000 1.0
C      1  0.4584040000000  0.4896410000000  0.5629530000000 1.0
C      1  0.4639230000000  0.4995330000000  0.4506060000000 1.0
C      1  0.5642190000000  0.5156490000000  0.5159730000000 1.0
C      1  0.4480770000000  0.5204110000000  0.4572690000000 1.0
C      1  0.4418350000000  0.4706060000000  0.5592140000000 1.0
C      1  0.4870020000000  0.4564350000000  0.5085790000000 1.0
C      1  0.4697420000000  0.5110990000000  0.5237700000000 1.0
C      1  0.5313510000000  0.4581980000000  0.5417980000000 1.0
C      1  0.5256990000000  0.5397630000000  0.4542130000000 1.0
C      1  0.4345120000000  0.4841570000000  0.5118690000000 1.0
C      1  0.5116870000000  0.5367850000000  0.5152800000000 1.0
C      1  0.4733050000000  0.4925000000000  0.4783520000000 1.0
C      1  0.5319570000000  0.4509550000000  0.4899150000000 1.0
C      1  0.4433610000000  0.4655220000000  0.5305110000000 1.0
C      1  0.5349890000000  0.4920950000000  0.4620780000000 1.0
C      1  0.5638000000000  0.5209490000000  0.4910350000000 1.0
C      1  0.4756560000000  0.5400290000000  0.4875910000000 1.0
C      1  0.5271730000000  0.4917510000000  0.5081050000000 1.0
C      1  0.5374580000000  0.4823900000000  0.5538080000000 1.0
C      1  0.5413050000000  0.4777600000000  0.4859390000000 1.0
C      1  0.4844050000000  0.4665160000000  0.4810630000000 1.0
C      1  0.4653040000000  0.4507580000000  0.5228490000000 1.0
C      1  0.4923080000000  0.5176270000000  0.4791790000000 1.0
C      1  0.5388670000000  0.5203680000000  0.4726210000000 1.0
C      1  0.5414150000000  0.5048230000000  0.5316870000000 1.0
C      1  0.5204620000000  0.4370970000000  0.4702820000000 1.0
C      1  0.5171590000000  0.4617910000000  0.5163840000000 1.0
C      1  0.5035370000000  0.5126350000000  0.5587020000000 1.0
C      1  0.5194230000000  0.4937290000000  0.5715880000000 1.0
C      1  0.4754530000000  0.5064390000000  0.5500200000000 1.0
C      1  0.4540430000000  0.5021180000000  0.5024190000000 1.0
C      1  0.4920530000000  0.5014290000000  0.4383040000000 1.0
C      1  0.5231750000000  0.5686270000000  0.4580910000000 1.0
C      1  0.5121970000000  0.4827890000000  0.4478700000000 1.0
C      1  0.4492320000000  0.5305890000000  0.4830470000000 1.0
C      1  0.5031030000000  0.4579170000000  0.4616660000000 1.0
C      1  0.5100800000000  0.5635480000000  0.4796710000000 1.0
C      1  0.5169210000000  0.5171480000000  0.4945870000000 1.0
END
