TITL C-72067-4676-7 395.995632376743 125000 -459.004766617084 0 0 66 (C1) n - 1
REM
REM in /rds/project/t2_vol4/rds-t2-cs072/BORA/CARBON/from-Arr/AIRSS/Generating-Clusters/GAP-ML-2020/Only-C1/SD-CG/HFTN-CG
REM
REM
REM
REM
REM
REM ./C.cell (11c1c37f851c82e70ff6c80c92926a4b)
REM AIRSS Version 0.9.1 bugfix July 2018 build 013d7b7c2542+ Fri, 06 Jul 2018 19:26:36 +0100
REM compiler GCC version 9.3.0
REM options -cpp -mtune=generic -march=x86-64 -g -O0
REM seed 1097295483 475983125 -1800979726 -1990083928 -254938051 -2098812689 1544457799 290608731 1353304902 562669883 1992211746 -1980264865 139826052 588078566 -347828159 1553693630 -64775358 2119158649 1595161171 1277418112 1212656408 -638702806 -489301267 542148188 -1673184959 -981070905 229409770 699278135 -1623986988 1012141007 -1192981461 -1059657129 412916255
REM
CELL 1.54180   50.00000   50.00000   50.00000   90.00000   90.00000   90.00000
LATT -1
SFAC C  
C      1  0.5250450000000  0.5127860000000  0.4909660000000 1.0
C      1  0.4443840000000  0.4660440000000  0.5283710000000 1.0
C      1  0.5254290000000  0.5088870000000  0.5183170000000 1.0
C      1  0.5717360000000  0.5254750000000  0.4890060000000 1.0
C      1  0.4373360000000  0.4798840000000  0.4805640000000 1.0
C      1  0.5168050000000  0.5547510000000  0.4605070000000 1.0
C      1  0.4864710000000  0.5292740000000  0.5715550000000 1.0
C      1  0.5686930000000  0.4765350000000  0.4922480000000 1.0
C      1  0.5667620000000  0.4880040000000  0.5166760000000 1.0
C      1  0.4866760000000  0.5174610000000  0.5978090000000 1.0
C      1  0.5564350000000  0.4811860000000  0.4684110000000 1.0
C      1  0.5114640000000  0.4795340000000  0.5693420000000 1.0
C      1  0.4273850000000  0.5268290000000  0.4755750000000 1.0
C      1  0.4596110000000  0.5495380000000  0.5077800000000 1.0
C      1  0.4876770000000  0.4286320000000  0.4771170000000 1.0
C      1  0.5348080000000  0.5240800000000  0.5555740000000 1.0
C      1  0.4799320000000  0.4854440000000  0.4415910000000 1.0
C      1  0.4623410000000  0.4451960000000  0.5197400000000 1.0
C      1  0.4714980000000  0.5503800000000  0.5333580000000 1.0
C      1  0.5002890000000  0.5549220000000  0.5351760000000 1.0
C      1  0.4925340000000  0.4414740000000  0.4512730000000 1.0
C      1  0.5091480000000  0.4926020000000  0.4515920000000 1.0
C      1  0.5103310000000  0.5397960000000  0.5578550000000 1.0
C      1  0.4370630000000  0.5318400000000  0.5015540000000 1.0
C      1  0.5480860000000  0.5302210000000  0.5298060000000 1.0
C      1  0.5191620000000  0.4513050000000  0.4411220000000 1.0
C      1  0.5417620000000  0.4821990000000  0.5314790000000 1.0
C      1  0.5334660000000  0.4934500000000  0.5584910000000 1.0
C      1  0.5159630000000  0.5620170000000  0.5120430000000 1.0
C      1  0.4342370000000  0.5101560000000  0.5196680000000 1.0
C      1  0.5038970000000  0.5621720000000  0.4858000000000 1.0
C      1  0.4809770000000  0.5274100000000  0.4713490000000 1.0
C      1  0.5179500000000  0.4626560000000  0.4898320000000 1.0
C      1  0.4872340000000  0.4429720000000  0.5364080000000 1.0
C      1  0.5700820000000  0.5160700000000  0.5153720000000 1.0
C      1  0.5290120000000  0.4701090000000  0.4624720000000 1.0
C      1  0.4713820000000  0.4597750000000  0.4495660000000 1.0
C      1  0.5652520000000  0.5090440000000  0.4655220000000 1.0
C      1  0.4833710000000  0.4889300000000  0.5162580000000 1.0
C      1  0.4524810000000  0.4575570000000  0.4721800000000 1.0
C      1  0.5231080000000  0.4673050000000  0.4176540000000 1.0
C      1  0.4630020000000  0.5320650000000  0.5536320000000 1.0
C      1  0.5045760000000  0.5369840000000  0.4404830000000 1.0
C      1  0.5239700000000  0.5137640000000  0.4352560000000 1.0
C      1  0.5083250000000  0.4333170000000  0.4938380000000 1.0
C      1  0.5440220000000  0.5491930000000  0.4625390000000 1.0
C      1  0.4501380000000  0.4825820000000  0.5516090000000 1.0
C      1  0.5111940000000  0.4379020000000  0.5218490000000 1.0
C      1  0.4635820000000  0.4395820000000  0.4911520000000 1.0
C      1  0.5305130000000  0.4592780000000  0.5178450000000 1.0
C      1  0.4913000000000  0.4590490000000  0.5596390000000 1.0
C      1  0.4621130000000  0.5067900000000  0.4449890000000 1.0
C      1  0.5481470000000  0.5241830000000  0.4493190000000 1.0
C      1  0.5265180000000  0.4927590000000  0.4132440000000 1.0
C      1  0.4929210000000  0.4815780000000  0.4915960000000 1.0
C      1  0.5432570000000  0.5540450000000  0.5124970000000 1.0
C      1  0.4977570000000  0.5064010000000  0.5290450000000 1.0
C      1  0.4385510000000  0.5039830000000  0.4635630000000 1.0
C      1  0.4337580000000  0.4835270000000  0.5086040000000 1.0
C      1  0.4780820000000  0.5514250000000  0.4865190000000 1.0
C      1  0.5570200000000  0.5500700000000  0.4878970000000 1.0
C      1  0.4777490000000  0.5306580000000  0.4435110000000 1.0
C      1  0.5016370000000  0.5055440000000  0.4774230000000 1.0
C      1  0.4891550000000  0.4952420000000  0.5814980000000 1.0
C      1  0.4455010000000  0.5104920000000  0.5455920000000 1.0
C      1  0.4699360000000  0.4756830000000  0.5698810000000 1.0
END
