TITL C-72067-4676-5 -151.04360238464 125000 -483.81332125447 0 0 70 (C1) n - 1
REM
REM in /rds/project/t2_vol4/rds-t2-cs072/BORA/CARBON/from-Arr/AIRSS/Generating-Clusters/GAP-ML-2020/Only-C1/SD-CG/HFTN-CG
REM
REM
REM
REM
REM
REM ./C.cell (11c1c37f851c82e70ff6c80c92926a4b)
REM AIRSS Version 0.9.1 bugfix July 2018 build 013d7b7c2542+ Fri, 06 Jul 2018 19:26:36 +0100
REM compiler GCC version 9.3.0
REM options -cpp -mtune=generic -march=x86-64 -g -O0
REM seed 1646916218 -680049519 -1481063165 -287549656 -2037901653 -609738362 1889719545 -114707529 1359901574 -335968261 1200877559 -783181311 -1347635858 2046697338 -342342629 -1297276358 -1417508229 -1338573467 1688063499 -1879393685 -1110815929 1354193136 -600341512 1103741120 162255396 1480650009 1214734485 430739384 -1911158089 -2031440182 -2114686359 1775245183 -1288238781
REM
CELL 1.54180   50.00000   50.00000   50.00000   90.00000   90.00000   90.00000
LATT -1
SFAC C  
C      1  0.5066070000000  0.4578340000000  0.5652340000000 1.0
C      1  0.5138010000000  0.4843820000000  0.5621540000000 1.0
C      1  0.5506490000000  0.4347270000000  0.5015750000000 1.0
C      1  0.5379870000000  0.4901040000000  0.5489610000000 1.0
C      1  0.4502930000000  0.5341240000000  0.4674510000000 1.0
C      1  0.4709870000000  0.5742150000000  0.4818080000000 1.0
C      1  0.4608870000000  0.5659600000000  0.5089220000000 1.0
C      1  0.5297130000000  0.4243480000000  0.4858360000000 1.0
C      1  0.4807280000000  0.5015690000000  0.5192900000000 1.0
C      1  0.5048750000000  0.4692050000000  0.4331530000000 1.0
C      1  0.4370240000000  0.4894060000000  0.4747290000000 1.0
C      1  0.5058100000000  0.4221740000000  0.5025860000000 1.0
C      1  0.5102310000000  0.4683030000000  0.5077230000000 1.0
C      1  0.4803130000000  0.4589870000000  0.5486010000000 1.0
C      1  0.5355230000000  0.5565090000000  0.4644520000000 1.0
C      1  0.4610250000000  0.5590900000000  0.4584690000000 1.0
C      1  0.4745740000000  0.5463120000000  0.4387220000000 1.0
C      1  0.5571110000000  0.5061220000000  0.4687870000000 1.0
C      1  0.5421730000000  0.4412660000000  0.5278720000000 1.0
C      1  0.4672380000000  0.4806030000000  0.5616260000000 1.0
C      1  0.4644120000000  0.5308760000000  0.4934230000000 1.0
C      1  0.4507500000000  0.4648700000000  0.4755940000000 1.0
C      1  0.4896760000000  0.5025300000000  0.5646840000000 1.0
C      1  0.4353020000000  0.5111950000000  0.5438760000000 1.0
C      1  0.5425960000000  0.5638460000000  0.5363080000000 1.0
C      1  0.4854350000000  0.5225120000000  0.4305310000000 1.0
C      1  0.4653480000000  0.4564520000000  0.4533500000000 1.0
C      1  0.5150090000000  0.5416570000000  0.5782010000000 1.0
C      1  0.5084010000000  0.4441120000000  0.4472750000000 1.0
C      1  0.5138140000000  0.5170550000000  0.4319640000000 1.0
C      1  0.5317920000000  0.4381290000000  0.4605930000000 1.0
C      1  0.4975400000000  0.5773670000000  0.4928960000000 1.0
C      1  0.5482010000000  0.4849660000000  0.4507100000000 1.0
C      1  0.5398980000000  0.5172110000000  0.5410660000000 1.0
C      1  0.4618390000000  0.4566350000000  0.5021830000000 1.0
C      1  0.5497690000000  0.5324890000000  0.4622400000000 1.0
C      1  0.5631070000000  0.4565090000000  0.4886400000000 1.0
C      1  0.5596880000000  0.5031760000000  0.4969020000000 1.0
C      1  0.5401440000000  0.5724300000000  0.5101820000000 1.0
C      1  0.4297590000000  0.4937630000000  0.5022460000000 1.0
C      1  0.4461640000000  0.5086870000000  0.4552310000000 1.0
C      1  0.5152000000000  0.4278160000000  0.5300060000000 1.0
C      1  0.5568770000000  0.5513350000000  0.5162610000000 1.0
C      1  0.4912910000000  0.5159150000000  0.4960620000000 1.0
C      1  0.4993780000000  0.4358340000000  0.5517330000000 1.0
C      1  0.4967980000000  0.5248220000000  0.5847190000000 1.0
C      1  0.5454390000000  0.5235220000000  0.5133380000000 1.0
C      1  0.5136130000000  0.4784060000000  0.4837120000000 1.0
C      1  0.4992310000000  0.4987010000000  0.4757040000000 1.0
C      1  0.5243540000000  0.4900650000000  0.4339480000000 1.0
C      1  0.4840370000000  0.4370630000000  0.4621200000000 1.0
C      1  0.4816890000000  0.4325240000000  0.4903780000000 1.0
C      1  0.4842750000000  0.4721540000000  0.5196390000000 1.0
C      1  0.5252030000000  0.5740130000000  0.4858780000000 1.0
C      1  0.5522850000000  0.4591920000000  0.4619140000000 1.0
C      1  0.4398440000000  0.4728100000000  0.5194850000000 1.0
C      1  0.5292370000000  0.5379970000000  0.4441410000000 1.0
C      1  0.4438240000000  0.4847010000000  0.5458700000000 1.0
C      1  0.4665570000000  0.5012960000000  0.4360270000000 1.0
C      1  0.5015270000000  0.5431650000000  0.5318220000000 1.0
C      1  0.4483800000000  0.5411800000000  0.5157980000000 1.0
C      1  0.4824140000000  0.5209740000000  0.5416210000000 1.0
C      1  0.4277560000000  0.5182690000000  0.5169790000000 1.0
C      1  0.4768640000000  0.4752510000000  0.4351500000000 1.0
C      1  0.4882970000000  0.5680390000000  0.5196700000000 1.0
C      1  0.5260820000000  0.5431480000000  0.5498580000000 1.0
C      1  0.5507350000000  0.4693030000000  0.5329160000000 1.0
C      1  0.5635630000000  0.4775940000000  0.5079220000000 1.0
C      1  0.5138860000000  0.5319150000000  0.5075730000000 1.0
C      1  0.4551710000000  0.5312940000000  0.5437080000000 1.0
END
