TITL C-72043-1777-3 -10.283001101388 125000 -70.8552149713463 0 0 12 (C1) n - 1
REM
REM in /rds/project/t2_vol4/rds-t2-cs072/BORA/CARBON/from-Arr/AIRSS/Generating-Clusters/GAP-ML-2020/Only-C1/SD-CG/HFTN-CG
REM
REM
REM
REM
REM
REM ./C.cell (11c1c37f851c82e70ff6c80c92926a4b)
REM AIRSS Version 0.9.1 bugfix July 2018 build 013d7b7c2542+ Fri, 06 Jul 2018 19:26:36 +0100
REM compiler GCC version 9.3.0
REM options -cpp -mtune=generic -march=x86-64 -g -O0
REM seed 1083353517 1917742458 93150373 -835191059 -1925843105 -1245418839 1494871558 1921937708 -87913342 1232321836 -452923645 -549092701 -682683919 39126905 -1478879331 1245964422 1801542948 -1345683601 980512356 -7927918 1989465493 -485329424 -798181484 350911612 -1435791480 71776599 -1033807782 -1275802485 -556770754 781427302 -267444382 -1553411635 -570533201
REM
CELL 1.54180   50.00000   50.00000   50.00000   90.00000   90.00000   90.00000
LATT -1
SFAC C  
C      1  0.4728880000000  0.5377770000000  0.5014930000000 1.0
C      1  0.4924740000000  0.4707860000000  0.4921920000000 1.0
C      1  0.5045690000000  0.4968350000000  0.5490600000000 1.0
C      1  0.5036580000000  0.4942360000000  0.4503810000000 1.0
C      1  0.5060820000000  0.4954490000000  0.5071660000000 1.0
C      1  0.5208990000000  0.5016340000000  0.4697470000000 1.0
C      1  0.4896500000000  0.4803990000000  0.4674960000000 1.0
C      1  0.4984030000000  0.5408950000000  0.5024230000000 1.0
C      1  0.4891850000000  0.5167850000000  0.5162400000000 1.0
C      1  0.5079210000000  0.4554500000000  0.5069830000000 1.0
C      1  0.4836940000000  0.5091010000000  0.5429150000000 1.0
C      1  0.5305770000000  0.5006530000000  0.4939040000000 1.0
END
