TITL C-72040-1715-1 0.00785483202092369 125000 -174.932934920049 0 0 27 (C1) n - 1
REM
REM in /rds/project/t2_vol4/rds-t2-cs072/BORA/CARBON/from-Arr/AIRSS/Generating-Clusters/GAP-ML-2020/Only-C1/SD-CG/HFTN-CG
REM
REM
REM
REM
REM
REM ./C.cell (11c1c37f851c82e70ff6c80c92926a4b)
REM AIRSS Version 0.9.1 bugfix July 2018 build 013d7b7c2542+ Fri, 06 Jul 2018 19:26:36 +0100
REM compiler GCC version 9.3.0
REM options -cpp -mtune=generic -march=x86-64 -g -O0
REM seed -340165602 1186332981 -1247885045 -2038216846 -526178630 -158749703 1774715247 1334238970 1683137532 1135509957 -1095901908 2017815493 635366847 165562107 1048645026 -1501946102 -875575737 -1474905858 -1027838422 -215663629 -2030647243 1908060719 2008874468 -365219116 -1248884202 1052359859 -668245819 76598546 64377095 1403338619 -406199473 404805012 1894503103
REM
CELL 1.54180   50.00000   50.00000   50.00000   90.00000   90.00000   90.00000
LATT -1
SFAC C  
C      1  0.5203840000000  0.4800790000000  0.5100240000000 1.0
C      1  0.4717480000000  0.4877260000000  0.5114540000000 1.0
C      1  0.5410530000000  0.4947160000000  0.5235060000000 1.0
C      1  0.5039900000000  0.5517000000000  0.5331490000000 1.0
C      1  0.5148180000000  0.5220690000000  0.4268330000000 1.0
C      1  0.4868640000000  0.4728690000000  0.4653800000000 1.0
C      1  0.4646850000000  0.4458200000000  0.5331560000000 1.0
C      1  0.4975260000000  0.4897310000000  0.5229100000000 1.0
C      1  0.4724740000000  0.5332370000000  0.4981630000000 1.0
C      1  0.4865270000000  0.4795120000000  0.5663660000000 1.0
C      1  0.4666750000000  0.4944390000000  0.4649040000000 1.0
C      1  0.5545890000000  0.5326700000000  0.4975860000000 1.0
C      1  0.5136980000000  0.4838620000000  0.4607880000000 1.0
C      1  0.4800630000000  0.4524570000000  0.4824670000000 1.0
C      1  0.4661050000000  0.5190380000000  0.4198350000000 1.0
C      1  0.5295140000000  0.4869570000000  0.4837530000000 1.0
C      1  0.4690770000000  0.4588780000000  0.5075940000000 1.0
C      1  0.4846920000000  0.5461540000000  0.5167950000000 1.0
C      1  0.5278230000000  0.5384200000000  0.5376590000000 1.0
C      1  0.4655240000000  0.5071300000000  0.4910240000000 1.0
C      1  0.5169060000000  0.5011470000000  0.4403320000000 1.0
C      1  0.5493260000000  0.5046110000000  0.4976300000000 1.0
C      1  0.5287200000000  0.5101440000000  0.5449290000000 1.0
C      1  0.5489950000000  0.5451290000000  0.5195450000000 1.0
C      1  0.5027040000000  0.4951480000000  0.5500480000000 1.0
C      1  0.4732230000000  0.4604280000000  0.5530820000000 1.0
C      1  0.4622980000000  0.5059280000000  0.4410890000000 1.0
END
