TITL C-72062-1791-4 15.021693757044 125000 -282.412009354254 0 0 43 (C1) n - 1
REM
REM in /rds/project/t2_vol4/rds-t2-cs072/BORA/CARBON/from-Arr/AIRSS/Generating-Clusters/GAP-ML-2020/Only-C1/SD-CG/HFTN-CG
REM
REM
REM
REM
REM
REM ./C.cell (11c1c37f851c82e70ff6c80c92926a4b)
REM AIRSS Version 0.9.1 bugfix July 2018 build 013d7b7c2542+ Fri, 06 Jul 2018 19:26:36 +0100
REM compiler GCC version 9.3.0
REM options -cpp -mtune=generic -march=x86-64 -g -O0
REM seed -1105376530 535555326 -1278722388 135506645 408284299 1502713734 1050302106 -752261161 -2004728253 -392478678 -1153822101 -758585099 -2113112318 -966574646 -1962347034 -594566794 -679913107 1537638006 838540971 -1547714549 1609977277 -1846073311 -1283496225 494631277 1541637735 -1756606651 -872902382 395518386 1445141693 -1487293989 1363592658 -598249180 1472303141
REM
CELL 1.54180   50.00000   50.00000   50.00000   90.00000   90.00000   90.00000
LATT -1
SFAC C  
C      1  0.4976300000000  0.4588290000000  0.4567480000000 1.0
C      1  0.5039230000000  0.4395550000000  0.5000860000000 1.0
C      1  0.5657410000000  0.5009030000000  0.5346560000000 1.0
C      1  0.5130110000000  0.5199720000000  0.4242030000000 1.0
C      1  0.4772790000000  0.4414880000000  0.5082430000000 1.0
C      1  0.4860710000000  0.5426230000000  0.4601080000000 1.0
C      1  0.5399180000000  0.5144760000000  0.4864450000000 1.0
C      1  0.5401120000000  0.4640740000000  0.4732030000000 1.0
C      1  0.4726090000000  0.4553020000000  0.5355960000000 1.0
C      1  0.4679610000000  0.4673080000000  0.4979430000000 1.0
C      1  0.5406690000000  0.5134290000000  0.5367880000000 1.0
C      1  0.4567450000000  0.4772650000000  0.5251820000000 1.0
C      1  0.4628140000000  0.5048250000000  0.5263830000000 1.0
C      1  0.5034850000000  0.5346270000000  0.5075780000000 1.0
C      1  0.5298420000000  0.5212310000000  0.5121640000000 1.0
C      1  0.4924900000000  0.5535260000000  0.5263580000000 1.0
C      1  0.4848870000000  0.5382560000000  0.5501640000000 1.0
C      1  0.5027840000000  0.5273440000000  0.5668150000000 1.0
C      1  0.5103290000000  0.4816220000000  0.5596380000000 1.0
C      1  0.5079170000000  0.5452730000000  0.4780540000000 1.0
C      1  0.5623040000000  0.4795350000000  0.5187920000000 1.0
C      1  0.5133280000000  0.4633430000000  0.5169350000000 1.0
C      1  0.5578680000000  0.4616030000000  0.4947360000000 1.0
C      1  0.4798880000000  0.4981470000000  0.4574450000000 1.0
C      1  0.4548960000000  0.5539900000000  0.4967010000000 1.0
C      1  0.4682340000000  0.5126780000000  0.4799040000000 1.0
C      1  0.4618610000000  0.5393200000000  0.4752850000000 1.0
C      1  0.4701170000000  0.5683720000000  0.5160300000000 1.0
C      1  0.5317970000000  0.4914090000000  0.4662340000000 1.0
C      1  0.5293010000000  0.5146780000000  0.4449240000000 1.0
C      1  0.4710800000000  0.4687690000000  0.4521260000000 1.0
C      1  0.5312530000000  0.5339450000000  0.4668960000000 1.0
C      1  0.4904390000000  0.5197950000000  0.4408460000000 1.0
C      1  0.4949450000000  0.4831030000000  0.4988300000000 1.0
C      1  0.4994790000000  0.4632300000000  0.5432530000000 1.0
C      1  0.5148780000000  0.4459570000000  0.4736540000000 1.0
C      1  0.4479000000000  0.5499220000000  0.5234520000000 1.0
C      1  0.5421060000000  0.4603210000000  0.5182420000000 1.0
C      1  0.5204360000000  0.5071800000000  0.5593070000000 1.0
C      1  0.4568570000000  0.4600790000000  0.4736490000000 1.0
C      1  0.4575920000000  0.5287640000000  0.5398070000000 1.0
C      1  0.5038260000000  0.4842880000000  0.4712480000000 1.0
C      1  0.4834000000000  0.5096450000000  0.5053470000000 1.0
END
