TITL C-72063-1767-1 0.0532120066867511 125000 -538.201131797716 0 0 79 (C1) n - 1
REM
REM in /rds/project/t2_vol4/rds-t2-cs072/BORA/CARBON/from-Arr/AIRSS/Generating-Clusters/GAP-ML-2020/Only-C1/SD-CG/HFTN-CG
REM
REM
REM
REM
REM
REM ./C.cell (11c1c37f851c82e70ff6c80c92926a4b)
REM AIRSS Version 0.9.1 bugfix July 2018 build 013d7b7c2542+ Fri, 06 Jul 2018 19:26:36 +0100
REM compiler GCC version 9.3.0
REM options -cpp -mtune=generic -march=x86-64 -g -O0
REM seed 300819183 -1301445549 -2032374578 1954863222 -1403507500 -1638610539 -1463026275 -376061963 -1850881270 2090139693 -2031289217 -21281897 -61033495 -177636130 636255033 1597411570 2088812858 88267508 635631630 -732913198 10709964 140503977 2050928509 -552375640 -965286632 -93243081 -1349057265 -1251170144 1536906948 -474236741 751250808 -1581407990 675301153
REM
CELL 1.54180   50.00000   50.00000   50.00000   90.00000   90.00000   90.00000
LATT -1
SFAC C  
C      1  0.4920220000000  0.5273760000000  0.5702390000000 1.0
C      1  0.4272170000000  0.4624810000000  0.4795600000000 1.0
C      1  0.5553270000000  0.5386330000000  0.4810030000000 1.0
C      1  0.5259000000000  0.5621530000000  0.5204140000000 1.0
C      1  0.4962030000000  0.5065110000000  0.4539060000000 1.0
C      1  0.4325710000000  0.5116810000000  0.4826980000000 1.0
C      1  0.4402940000000  0.5033920000000  0.5342240000000 1.0
C      1  0.5697770000000  0.4700710000000  0.4878870000000 1.0
C      1  0.5013330000000  0.5730850000000  0.5070900000000 1.0
C      1  0.4733020000000  0.5478930000000  0.5620930000000 1.0
C      1  0.4987190000000  0.5268470000000  0.5221920000000 1.0
C      1  0.4438670000000  0.5309460000000  0.5258530000000 1.0
C      1  0.4404350000000  0.5187530000000  0.5817610000000 1.0
C      1  0.4940800000000  0.4775690000000  0.5735970000000 1.0
C      1  0.5106230000000  0.5658720000000  0.4390850000000 1.0
C      1  0.5444570000000  0.4385240000000  0.5090770000000 1.0
C      1  0.5282830000000  0.5733340000000  0.4638030000000 1.0
C      1  0.4704220000000  0.5454560000000  0.5327710000000 1.0
C      1  0.4559460000000  0.5542420000000  0.4891010000000 1.0
C      1  0.4882950000000  0.4998180000000  0.5306820000000 1.0
C      1  0.5921620000000  0.5164540000000  0.5041060000000 1.0
C      1  0.4536400000000  0.4536320000000  0.4870500000000 1.0
C      1  0.4666320000000  0.4391270000000  0.5248520000000 1.0
C      1  0.5343440000000  0.4949400000000  0.4941850000000 1.0
C      1  0.4973970000000  0.4582540000000  0.4447880000000 1.0
C      1  0.5281540000000  0.5013960000000  0.5715950000000 1.0
C      1  0.4518810000000  0.4688130000000  0.5666120000000 1.0
C      1  0.5501800000000  0.4584290000000  0.5289350000000 1.0
C      1  0.4996710000000  0.4280030000000  0.4894420000000 1.0
C      1  0.4826280000000  0.5208930000000  0.4758420000000 1.0
C      1  0.5534430000000  0.5312640000000  0.5269440000000 1.0
C      1  0.4256670000000  0.4812840000000  0.5200960000000 1.0
C      1  0.4732880000000  0.5009050000000  0.4356130000000 1.0
C      1  0.5111580000000  0.4360290000000  0.5393120000000 1.0
C      1  0.4727200000000  0.4320440000000  0.4979820000000 1.0
C      1  0.5237240000000  0.5179860000000  0.4500410000000 1.0
C      1  0.4636600000000  0.4925710000000  0.5160690000000 1.0
C      1  0.4978140000000  0.4805930000000  0.4689800000000 1.0
C      1  0.5601600000000  0.4818310000000  0.5137690000000 1.0
C      1  0.5708250000000  0.5088930000000  0.5203130000000 1.0
C      1  0.5253360000000  0.5361180000000  0.5373890000000 1.0
C      1  0.4760730000000  0.4562810000000  0.5672280000000 1.0
C      1  0.5732750000000  0.4902630000000  0.4682420000000 1.0
C      1  0.5405460000000  0.5023500000000  0.4311400000000 1.0
C      1  0.4312390000000  0.5158770000000  0.4540850000000 1.0
C      1  0.5061890000000  0.5642510000000  0.4806960000000 1.0
C      1  0.4839830000000  0.4378220000000  0.5468740000000 1.0
C      1  0.5220610000000  0.4750330000000  0.5692630000000 1.0
C      1  0.5189430000000  0.4658920000000  0.4268690000000 1.0
C      1  0.5305690000000  0.5199100000000  0.4803360000000 1.0
C      1  0.4506190000000  0.5418930000000  0.5783110000000 1.0
C      1  0.5231560000000  0.4891400000000  0.4133450000000 1.0
C      1  0.4665890000000  0.4757970000000  0.4713950000000 1.0
C      1  0.5491070000000  0.5559470000000  0.4581330000000 1.0
C      1  0.4882900000000  0.5627470000000  0.4563880000000 1.0
C      1  0.4733670000000  0.5645520000000  0.5107880000000 1.0
C      1  0.4618060000000  0.5013710000000  0.4869830000000 1.0
C      1  0.5765570000000  0.5168690000000  0.4818050000000 1.0
C      1  0.5311640000000  0.4548420000000  0.5498390000000 1.0
C      1  0.4674650000000  0.5444140000000  0.4624280000000 1.0
C      1  0.5182880000000  0.4281950000000  0.5122280000000 1.0
C      1  0.4201970000000  0.4859840000000  0.4930980000000 1.0
C      1  0.5550370000000  0.4458020000000  0.4842100000000 1.0
C      1  0.5049040000000  0.5311360000000  0.4918420000000 1.0
C      1  0.5108920000000  0.4814690000000  0.4944710000000 1.0
C      1  0.4500180000000  0.4972030000000  0.5627320000000 1.0
C      1  0.5589680000000  0.4838650000000  0.4446270000000 1.0
C      1  0.5296880000000  0.5443390000000  0.4387420000000 1.0
C      1  0.5440210000000  0.4599680000000  0.4414170000000 1.0
C      1  0.5097310000000  0.4374530000000  0.4639600000000 1.0
C      1  0.4700670000000  0.4732430000000  0.4414360000000 1.0
C      1  0.4812030000000  0.5014050000000  0.5623700000000 1.0
C      1  0.5011640000000  0.4779070000000  0.5197590000000 1.0
C      1  0.5381710000000  0.4421890000000  0.4620140000000 1.0
C      1  0.5507000000000  0.5526750000000  0.5081650000000 1.0
C      1  0.4512510000000  0.4634130000000  0.5169440000000 1.0
C      1  0.4372800000000  0.5359980000000  0.4994480000000 1.0
C      1  0.5195990000000  0.5261790000000  0.5650190000000 1.0
C      1  0.4542670000000  0.5222340000000  0.4424210000000 1.0
END
