TITL C-72045-1703-4 27.0325858065346 125000 -1003.79173895076 0 0 143 (C1) n - 1
REM
REM in /rds/project/t2_vol4/rds-t2-cs072/BORA/CARBON/from-Arr/AIRSS/Generating-Clusters/GAP-ML-2020/Only-C1/SD-CG/HFTN-CG
REM
REM
REM
REM
REM
REM ./C.cell (11c1c37f851c82e70ff6c80c92926a4b)
REM AIRSS Version 0.9.1 bugfix July 2018 build 013d7b7c2542+ Fri, 06 Jul 2018 19:26:36 +0100
REM compiler GCC version 9.3.0
REM options -cpp -mtune=generic -march=x86-64 -g -O0
REM seed -1411871765 667184889 -1986447492 -1164677386 2114312661 -1181020641 -967829127 1435608638 1177471455 -101775296 -1168620818 -789848737 -25654361 -1244067231 862182913 -340552219 -1861448561 -2012259381 1442057053 -174382832 1542125906 -1263851723 -2083186849 -569104111 346199203 -1033622055 498581335 -1839297356 -1043239329 2097454494 -373559838 -590484886 75553104
REM
CELL 1.54180   50.00000   50.00000   50.00000   90.00000   90.00000   90.00000
LATT -1
SFAC C  
C      1  0.5082660000000  0.5220510000000  0.5346920000000 1.0
C      1  0.5316450000000  0.4082380000000  0.4907620000000 1.0
C      1  0.5881420000000  0.4585220000000  0.5250990000000 1.0
C      1  0.4953420000000  0.5181220000000  0.4984770000000 1.0
C      1  0.5563970000000  0.5613330000000  0.5068110000000 1.0
C      1  0.4818000000000  0.5307890000000  0.4190440000000 1.0
C      1  0.4675520000000  0.5105510000000  0.4859250000000 1.0
C      1  0.4162360000000  0.4634880000000  0.4710460000000 1.0
C      1  0.4563400000000  0.4202670000000  0.5383640000000 1.0
C      1  0.4159580000000  0.5024280000000  0.4978170000000 1.0
C      1  0.4610140000000  0.4079190000000  0.5127420000000 1.0
C      1  0.5515740000000  0.4499450000000  0.5545640000000 1.0
C      1  0.4401900000000  0.5057110000000  0.4257520000000 1.0
C      1  0.4104140000000  0.4558770000000  0.4982290000000 1.0
C      1  0.4925670000000  0.5623000000000  0.4841590000000 1.0
C      1  0.5359070000000  0.5498170000000  0.5777890000000 1.0
C      1  0.5225230000000  0.4615260000000  0.5410850000000 1.0
C      1  0.5415140000000  0.5708900000000  0.4517470000000 1.0
C      1  0.4528370000000  0.5308530000000  0.4196480000000 1.0
C      1  0.5193430000000  0.4471650000000  0.4332550000000 1.0
C      1  0.4541580000000  0.4813600000000  0.4196800000000 1.0
C      1  0.4223330000000  0.5058580000000  0.5527740000000 1.0
C      1  0.4990660000000  0.5868150000000  0.4678120000000 1.0
C      1  0.5307000000000  0.4760510000000  0.5165650000000 1.0
C      1  0.4664600000000  0.5821700000000  0.5242820000000 1.0
C      1  0.4240420000000  0.5583430000000  0.5426360000000 1.0
C      1  0.5166070000000  0.5280970000000  0.4533890000000 1.0
C      1  0.5248940000000  0.5518060000000  0.4329580000000 1.0
C      1  0.4334790000000  0.4467530000000  0.4548520000000 1.0
C      1  0.5838010000000  0.5222370000000  0.5270030000000 1.0
C      1  0.5594290000000  0.5422180000000  0.5621560000000 1.0
C      1  0.5362790000000  0.5247340000000  0.5262050000000 1.0
C      1  0.4918310000000  0.5153700000000  0.4456370000000 1.0
C      1  0.5494150000000  0.4984200000000  0.5220680000000 1.0
C      1  0.4765140000000  0.5827990000000  0.5511750000000 1.0
C      1  0.5559330000000  0.4261570000000  0.5351970000000 1.0
C      1  0.5235070000000  0.5110100000000  0.4056420000000 1.0
C      1  0.5137470000000  0.4911560000000  0.4941930000000 1.0
C      1  0.4212910000000  0.4315710000000  0.5085130000000 1.0
C      1  0.4088260000000  0.5315840000000  0.5017090000000 1.0
C      1  0.6049710000000  0.4725220000000  0.5089120000000 1.0
C      1  0.4722150000000  0.4197770000000  0.4505810000000 1.0
C      1  0.5851170000000  0.5405150000000  0.4523510000000 1.0
C      1  0.4868170000000  0.4082170000000  0.5027160000000 1.0
C      1  0.5182460000000  0.4127600000000  0.5432010000000 1.0
C      1  0.5139390000000  0.5890360000000  0.5205690000000 1.0
C      1  0.4147660000000  0.4920990000000  0.4693690000000 1.0
C      1  0.4071030000000  0.4790090000000  0.5150320000000 1.0
C      1  0.4609760000000  0.4708650000000  0.5108530000000 1.0
C      1  0.5556640000000  0.5111980000000  0.4941300000000 1.0
C      1  0.5129910000000  0.5662630000000  0.5718560000000 1.0
C      1  0.4830690000000  0.6044400000000  0.4867840000000 1.0
C      1  0.5639780000000  0.5150180000000  0.5686910000000 1.0
C      1  0.5452570000000  0.4139070000000  0.4634410000000 1.0
C      1  0.4420070000000  0.5677450000000  0.4937220000000 1.0
C      1  0.4483660000000  0.4559710000000  0.4320000000000 1.0
C      1  0.5131540000000  0.4384440000000  0.5833610000000 1.0
C      1  0.5678170000000  0.4412020000000  0.5144380000000 1.0
C      1  0.4933260000000  0.4546400000000  0.4199410000000 1.0
C      1  0.5381860000000  0.4071320000000  0.5233820000000 1.0
C      1  0.4601810000000  0.5687500000000  0.4482960000000 1.0
C      1  0.4325500000000  0.4577920000000  0.5477440000000 1.0
C      1  0.4955300000000  0.5072360000000  0.4071510000000 1.0
C      1  0.5467030000000  0.4662490000000  0.4729140000000 1.0
C      1  0.5230490000000  0.4368130000000  0.4913730000000 1.0
C      1  0.5674360000000  0.5629220000000  0.4586320000000 1.0
C      1  0.4334450000000  0.5243920000000  0.5780730000000 1.0
C      1  0.5827690000000  0.5213970000000  0.4309370000000 1.0
C      1  0.4857660000000  0.5772160000000  0.4410140000000 1.0
C      1  0.4822830000000  0.4808740000000  0.4116340000000 1.0
C      1  0.5368530000000  0.5830410000000  0.5019570000000 1.0
C      1  0.4196750000000  0.5492320000000  0.4824420000000 1.0
C      1  0.4630930000000  0.5380610000000  0.5360100000000 1.0
C      1  0.5922450000000  0.4792290000000  0.4624570000000 1.0
C      1  0.5767240000000  0.5627930000000  0.4865420000000 1.0
C      1  0.4149100000000  0.4787050000000  0.5426030000000 1.0
C      1  0.5399900000000  0.4649040000000  0.4218880000000 1.0
C      1  0.5451240000000  0.4550440000000  0.5003290000000 1.0
C      1  0.5925670000000  0.5396370000000  0.4803260000000 1.0
C      1  0.4890490000000  0.5379780000000  0.5226300000000 1.0
C      1  0.4859250000000  0.4519580000000  0.5787780000000 1.0
C      1  0.5032770000000  0.4379490000000  0.5358400000000 1.0
C      1  0.4419880000000  0.5513690000000  0.4357100000000 1.0
C      1  0.4616110000000  0.4649220000000  0.5400440000000 1.0
C      1  0.4474510000000  0.4238210000000  0.4660330000000 1.0
C      1  0.5330580000000  0.4802940000000  0.5838790000000 1.0
C      1  0.5846930000000  0.4920810000000  0.4379140000000 1.0
C      1  0.5384430000000  0.5361020000000  0.4981620000000 1.0
C      1  0.5678460000000  0.4269850000000  0.4578210000000 1.0
C      1  0.4409270000000  0.4168850000000  0.4933410000000 1.0
C      1  0.4586270000000  0.5948740000000  0.4994370000000 1.0
C      1  0.4708170000000  0.4910740000000  0.5522670000000 1.0
C      1  0.5868000000000  0.5165230000000  0.4972070000000 1.0
C      1  0.4999290000000  0.6105740000000  0.5078820000000 1.0
C      1  0.5712830000000  0.4561460000000  0.4569760000000 1.0
C      1  0.5169490000000  0.4145130000000  0.5710020000000 1.0
C      1  0.5667230000000  0.4700920000000  0.4302760000000 1.0
C      1  0.4928270000000  0.5665980000000  0.5131850000000 1.0
C      1  0.4973940000000  0.5268950000000  0.5951760000000 1.0
C      1  0.4768980000000  0.5048130000000  0.5978350000000 1.0
C      1  0.5051550000000  0.5839720000000  0.5507510000000 1.0
C      1  0.5116430000000  0.5373120000000  0.4822050000000 1.0
C      1  0.4715660000000  0.4396830000000  0.4298580000000 1.0
C      1  0.4799910000000  0.4953080000000  0.4638170000000 1.0
C      1  0.5040080000000  0.3984430000000  0.4831250000000 1.0
C      1  0.4519200000000  0.5105720000000  0.5369760000000 1.0
C      1  0.4975280000000  0.5581740000000  0.4247980000000 1.0
C      1  0.4900490000000  0.5512820000000  0.5814730000000 1.0
C      1  0.4757060000000  0.4792130000000  0.5824920000000 1.0
C      1  0.4049460000000  0.5415030000000  0.5288750000000 1.0
C      1  0.4637190000000  0.5587120000000  0.4762140000000 1.0
C      1  0.4980730000000  0.4088220000000  0.4574290000000 1.0
C      1  0.5659930000000  0.5317760000000  0.4110310000000 1.0
C      1  0.5389180000000  0.5355600000000  0.4113360000000 1.0
C      1  0.4216910000000  0.5096960000000  0.4482730000000 1.0
C      1  0.4668480000000  0.5578910000000  0.5646200000000 1.0
C      1  0.4967270000000  0.4738110000000  0.4764660000000 1.0
C      1  0.5997080000000  0.4897390000000  0.4886350000000 1.0
C      1  0.5217370000000  0.4194630000000  0.4453510000000 1.0
C      1  0.5349300000000  0.4924870000000  0.4236250000000 1.0
C      1  0.5188420000000  0.4545920000000  0.4654870000000 1.0
C      1  0.4986230000000  0.5006810000000  0.5497910000000 1.0
C      1  0.4301570000000  0.4320820000000  0.5360140000000 1.0
C      1  0.4456010000000  0.5612100000000  0.5235690000000 1.0
C      1  0.5634620000000  0.5426240000000  0.5326350000000 1.0
C      1  0.4768990000000  0.4408850000000  0.5507690000000 1.0
C      1  0.5383200000000  0.4522540000000  0.5824280000000 1.0
C      1  0.4271710000000  0.5372330000000  0.4570150000000 1.0
C      1  0.5718360000000  0.4991640000000  0.5445590000000 1.0
C      1  0.4975990000000  0.4368170000000  0.5071930000000 1.0
C      1  0.5284870000000  0.5851860000000  0.4729730000000 1.0
C      1  0.4810400000000  0.4595310000000  0.4957440000000 1.0
C      1  0.5398730000000  0.4950470000000  0.4755410000000 1.0
C      1  0.5360330000000  0.5071450000000  0.4501360000000 1.0
C      1  0.4516820000000  0.5159760000000  0.5957810000000 1.0
C      1  0.5751490000000  0.4691640000000  0.5478710000000 1.0
C      1  0.4371420000000  0.5511630000000  0.5677000000000 1.0
C      1  0.5450710000000  0.5055020000000  0.5883030000000 1.0
C      1  0.4502480000000  0.4985440000000  0.5075360000000 1.0
C      1  0.5263360000000  0.5269800000000  0.5928510000000 1.0
C      1  0.5161930000000  0.4817030000000  0.5604860000000 1.0
C      1  0.4544070000000  0.5323580000000  0.4725210000000 1.0
C      1  0.3997300000000  0.5209420000000  0.5452470000000 1.0
END
