TITL C-72054-1758-5 7.7934457298811 125000 -543.321699165446 0 0 77 (C1) n - 1
REM
REM in /rds/project/t2_vol4/rds-t2-cs072/BORA/CARBON/from-Arr/AIRSS/Generating-Clusters/GAP-ML-2020/Only-C1/SD-CG/HFTN-CG
REM
REM
REM
REM
REM
REM ./C.cell (11c1c37f851c82e70ff6c80c92926a4b)
REM AIRSS Version 0.9.1 bugfix July 2018 build 013d7b7c2542+ Fri, 06 Jul 2018 19:26:36 +0100
REM compiler GCC version 9.3.0
REM options -cpp -mtune=generic -march=x86-64 -g -O0
REM seed -1915296520 1788638129 565713422 1200265367 773616573 -1125073487 1976110067 -2035034089 1034747121 -1500790093 -1212656648 -1737007270 1168963763 -1841821055 -303625076 -598227310 375418219 1039181187 1899634783 -1360060335 1468575332 81685408 -496074627 -1633616628 2051010590 -504692924 -1454019215 -277560006 -1584414786 679163651 804180299 -121569789 -1232895680
REM
CELL 1.54180   50.00000   50.00000   50.00000   90.00000   90.00000   90.00000
LATT -1
SFAC C  
C      1  0.4500630000000  0.5023980000000  0.5650470000000 1.0
C      1  0.4277010000000  0.4870110000000  0.4865260000000 1.0
C      1  0.4815480000000  0.5737650000000  0.5188370000000 1.0
C      1  0.5111070000000  0.5019180000000  0.4804640000000 1.0
C      1  0.5021430000000  0.5777320000000  0.4993570000000 1.0
C      1  0.4232320000000  0.5140130000000  0.4980720000000 1.0
C      1  0.4683270000000  0.5228440000000  0.5690320000000 1.0
C      1  0.4874180000000  0.4558860000000  0.4387520000000 1.0
C      1  0.5704510000000  0.4460310000000  0.5394760000000 1.0
C      1  0.4356450000000  0.4992390000000  0.4614000000000 1.0
C      1  0.5126470000000  0.4244320000000  0.4995810000000 1.0
C      1  0.5601410000000  0.4728870000000  0.4653690000000 1.0
C      1  0.4468210000000  0.5479340000000  0.4629790000000 1.0
C      1  0.4313130000000  0.5258420000000  0.4726270000000 1.0
C      1  0.4620500000000  0.5649900000000  0.4799390000000 1.0
C      1  0.4634300000000  0.5450170000000  0.5512380000000 1.0
C      1  0.4277930000000  0.5220220000000  0.5248180000000 1.0
C      1  0.4971870000000  0.4806240000000  0.4272590000000 1.0
C      1  0.4400650000000  0.4704180000000  0.5406790000000 1.0
C      1  0.4699660000000  0.4300880000000  0.4860930000000 1.0
C      1  0.5299440000000  0.5180540000000  0.4304700000000 1.0
C      1  0.4786670000000  0.5003530000000  0.5231210000000 1.0
C      1  0.5094690000000  0.5381380000000  0.4360350000000 1.0
C      1  0.5835840000000  0.4681480000000  0.5351880000000 1.0
C      1  0.4871330000000  0.5579210000000  0.5413520000000 1.0
C      1  0.5500910000000  0.5542650000000  0.5208930000000 1.0
C      1  0.5666040000000  0.5206610000000  0.4592950000000 1.0
C      1  0.4375610000000  0.4614610000000  0.4930880000000 1.0
C      1  0.5415890000000  0.4709950000000  0.4419530000000 1.0
C      1  0.5417890000000  0.5266750000000  0.5659060000000 1.0
C      1  0.4612270000000  0.4603250000000  0.4489240000000 1.0
C      1  0.4567190000000  0.5644980000000  0.5085270000000 1.0
C      1  0.5659410000000  0.5375710000000  0.5034300000000 1.0
C      1  0.5703170000000  0.4974140000000  0.4759690000000 1.0
C      1  0.5377970000000  0.5435360000000  0.5452310000000 1.0
C      1  0.4618920000000  0.5422870000000  0.4414180000000 1.0
C      1  0.4763110000000  0.5001760000000  0.4297380000000 1.0
C      1  0.4543920000000  0.4877530000000  0.4439300000000 1.0
C      1  0.4521960000000  0.4474430000000  0.4724710000000 1.0
C      1  0.5197590000000  0.4935640000000  0.5251280000000 1.0
C      1  0.5664080000000  0.4893110000000  0.5277130000000 1.0
C      1  0.5156030000000  0.4387690000000  0.5434850000000 1.0
C      1  0.5635040000000  0.5071400000000  0.5041240000000 1.0
C      1  0.5302580000000  0.5098580000000  0.5038200000000 1.0
C      1  0.5004280000000  0.5107790000000  0.5414010000000 1.0
C      1  0.4909840000000  0.5708440000000  0.4737380000000 1.0
C      1  0.4966910000000  0.5117760000000  0.5704200000000 1.0
C      1  0.4588720000000  0.4743710000000  0.5631740000000 1.0
C      1  0.5086320000000  0.5385150000000  0.5356100000000 1.0
C      1  0.4971930000000  0.4282140000000  0.5239410000000 1.0
C      1  0.5411750000000  0.4466350000000  0.5300180000000 1.0
C      1  0.5566980000000  0.5222470000000  0.4343000000000 1.0
C      1  0.5090760000000  0.4585020000000  0.5640450000000 1.0
C      1  0.4444720000000  0.5458460000000  0.5294960000000 1.0
C      1  0.5314380000000  0.4463510000000  0.4527620000000 1.0
C      1  0.5601600000000  0.5435330000000  0.4759120000000 1.0
C      1  0.5286510000000  0.5648150000000  0.5010550000000 1.0
C      1  0.4462370000000  0.4527180000000  0.5194530000000 1.0
C      1  0.5481070000000  0.4479890000000  0.4764430000000 1.0
C      1  0.4979360000000  0.4785270000000  0.4850990000000 1.0
C      1  0.5405870000000  0.4781890000000  0.5380220000000 1.0
C      1  0.5049090000000  0.4382310000000  0.4523770000000 1.0
C      1  0.5379060000000  0.4372320000000  0.5011130000000 1.0
C      1  0.4961110000000  0.4256910000000  0.4765390000000 1.0
C      1  0.4693510000000  0.4339790000000  0.5148090000000 1.0
C      1  0.4961570000000  0.4794420000000  0.5122680000000 1.0
C      1  0.5254230000000  0.5061480000000  0.5756320000000 1.0
C      1  0.5242820000000  0.4892040000000  0.4284390000000 1.0
C      1  0.5309100000000  0.4782940000000  0.5661490000000 1.0
C      1  0.5148600000000  0.5364480000000  0.5062780000000 1.0
C      1  0.4325940000000  0.4996310000000  0.5422530000000 1.0
C      1  0.4727120000000  0.5177890000000  0.5028270000000 1.0
C      1  0.5128000000000  0.5582520000000  0.4569120000000 1.0
C      1  0.4824920000000  0.5285800000000  0.4314940000000 1.0
C      1  0.5370830000000  0.5601760000000  0.4729840000000 1.0
C      1  0.4831500000000  0.4650500000000  0.5683600000000 1.0
C      1  0.4941170000000  0.5245930000000  0.4879210000000 1.0
END
