TITL C-72050-1764-6 -0.0983275103674936 125000 -149.946091992315 0 0 23 (C1) n - 1
REM
REM in /rds/project/t2_vol4/rds-t2-cs072/BORA/CARBON/from-Arr/AIRSS/Generating-Clusters/GAP-ML-2020/Only-C1/SD-CG/HFTN-CG
REM
REM
REM
REM
REM
REM ./C.cell (11c1c37f851c82e70ff6c80c92926a4b)
REM AIRSS Version 0.9.1 bugfix July 2018 build 013d7b7c2542+ Fri, 06 Jul 2018 19:26:36 +0100
REM compiler GCC version 9.3.0
REM options -cpp -mtune=generic -march=x86-64 -g -O0
REM seed -146364434 281924360 -981639735 102223854 1334410158 -1023471112 2136888056 335542277 2110359367 555799100 -955270488 274837846 -897060590 93675826 -1365675056 897503084 -350800934 2096019545 865191267 1820210972 935090638 563773781 -1355806876 -1552504696 1936024418 393388682 2118783875 -617946435 2115438624 2141821264 1339372039 91097255 945473632
REM
CELL 1.54180   50.00000   50.00000   50.00000   90.00000   90.00000   90.00000
LATT -1
SFAC C  
C      1  0.5629370000000  0.4919050000000  0.4987570000000 1.0
C      1  0.4676870000000  0.4736070000000  0.5089420000000 1.0
C      1  0.4502960000000  0.4949430000000  0.4983790000000 1.0
C      1  0.4429080000000  0.4935310000000  0.4722190000000 1.0
C      1  0.5515680000000  0.5376750000000  0.5168590000000 1.0
C      1  0.5297880000000  0.4579080000000  0.4957960000000 1.0
C      1  0.4884920000000  0.4570050000000  0.4512610000000 1.0
C      1  0.5028410000000  0.4985810000000  0.5399080000000 1.0
C      1  0.4512220000000  0.5208040000000  0.5086960000000 1.0
C      1  0.4617880000000  0.5429040000000  0.5129220000000 1.0
C      1  0.5177790000000  0.4711540000000  0.5159520000000 1.0
C      1  0.4713240000000  0.4742440000000  0.4430260000000 1.0
C      1  0.5499770000000  0.5095160000000  0.5167320000000 1.0
C      1  0.4800090000000  0.5616650000000  0.5178050000000 1.0
C      1  0.4693090000000  0.4494220000000  0.4946070000000 1.0
C      1  0.5289470000000  0.4947150000000  0.5293650000000 1.0
C      1  0.4500280000000  0.4894200000000  0.4478860000000 1.0
C      1  0.4910780000000  0.4770850000000  0.5248340000000 1.0
C      1  0.5558880000000  0.5612490000000  0.5047480000000 1.0
C      1  0.4864120000000  0.4466630000000  0.4758520000000 1.0
C      1  0.5051740000000  0.5649100000000  0.5182380000000 1.0
C      1  0.5531920000000  0.4706860000000  0.4889780000000 1.0
C      1  0.5313570000000  0.5604070000000  0.5182400000000 1.0
END
