TITL C-72055-7836-7 -39.0901312585278 125000 -214.079906461722 0 0 32 (C1) n - 1
REM
REM in /rds/project/t2_vol4/rds-t2-cs072/BORA/CARBON/from-Arr/AIRSS/Generating-Clusters/GAP-ML-2020/Only-C1/SD-CG/HFTN-CG
REM
REM
REM
REM
REM
REM ./C.cell (11c1c37f851c82e70ff6c80c92926a4b)
REM AIRSS Version 0.9.1 bugfix July 2018 build 013d7b7c2542+ Fri, 06 Jul 2018 19:26:36 +0100
REM compiler GCC version 9.3.0
REM options -cpp -mtune=generic -march=x86-64 -g -O0
REM seed 1795490948 1337226465 -1798035542 728494213 -1537143925 -1267687666 -1567775345 1114632516 -642937404 649485007 -391336344 -1167093358 80874789 -131061389 1387260675 53695328 -614597474 1540230893 1071961247 850857689 -1760103242 -89658270 1860500467 -538917170 1584685685 -562966508 337689800 1147696787 830724259 -2127057118 1184317439 -1160115658 -761981554
REM
CELL 1.54180   50.00000   50.00000   50.00000   90.00000   90.00000   90.00000
LATT -1
SFAC C  
C      1  0.4854190000000  0.5570250000000  0.4930690000000 1.0
C      1  0.5561740000000  0.5203610000000  0.4979670000000 1.0
C      1  0.5342860000000  0.4768620000000  0.4846050000000 1.0
C      1  0.4853640000000  0.4643860000000  0.5332750000000 1.0
C      1  0.4683910000000  0.4748260000000  0.4541720000000 1.0
C      1  0.4927270000000  0.4896250000000  0.4599330000000 1.0
C      1  0.4774630000000  0.5317200000000  0.4855880000000 1.0
C      1  0.5597710000000  0.5158800000000  0.5239360000000 1.0
C      1  0.5230000000000  0.4909110000000  0.5448400000000 1.0
C      1  0.4444710000000  0.4814780000000  0.4410380000000 1.0
C      1  0.5356270000000  0.5158420000000  0.5389970000000 1.0
C      1  0.4964130000000  0.4474940000000  0.5147270000000 1.0
C      1  0.4795780000000  0.5141430000000  0.5330100000000 1.0
C      1  0.5368260000000  0.4670680000000  0.5359420000000 1.0
C      1  0.5224190000000  0.5542600000000  0.5103360000000 1.0
C      1  0.5241710000000  0.4461910000000  0.5222120000000 1.0
C      1  0.5187780000000  0.5396260000000  0.5351680000000 1.0
C      1  0.5367660000000  0.5413580000000  0.4896550000000 1.0
C      1  0.4914970000000  0.4514660000000  0.4861780000000 1.0
C      1  0.5246360000000  0.5231800000000  0.4704830000000 1.0
C      1  0.4416990000000  0.5021910000000  0.5008680000000 1.0
C      1  0.5424890000000  0.4626350000000  0.5086610000000 1.0
C      1  0.4285490000000  0.4838120000000  0.4613720000000 1.0
C      1  0.4966610000000  0.5167500000000  0.4678580000000 1.0
C      1  0.5092240000000  0.4702490000000  0.4732720000000 1.0
C      1  0.5018130000000  0.5738630000000  0.5032610000000 1.0
C      1  0.4633430000000  0.5167310000000  0.5080240000000 1.0
C      1  0.4247870000000  0.4896440000000  0.4866820000000 1.0
C      1  0.5437890000000  0.5023400000000  0.4785510000000 1.0
C      1  0.4937000000000  0.4892220000000  0.5417260000000 1.0
C      1  0.4681010000000  0.4522290000000  0.4719060000000 1.0
C      1  0.4920680000000  0.5366360000000  0.5426870000000 1.0
END
