TITL C-72041-1759-3 -169.741720415123 125000 -335.547625292997 0 0 50 (C1) n - 1
REM
REM in /rds/project/t2_vol4/rds-t2-cs072/BORA/CARBON/from-Arr/AIRSS/Generating-Clusters/GAP-ML-2020/Only-C1/SD-CG/HFTN-CG
REM
REM
REM
REM
REM
REM ./C.cell (11c1c37f851c82e70ff6c80c92926a4b)
REM AIRSS Version 0.9.1 bugfix July 2018 build 013d7b7c2542+ Fri, 06 Jul 2018 19:26:36 +0100
REM compiler GCC version 9.3.0
REM options -cpp -mtune=generic -march=x86-64 -g -O0
REM seed 128859143 -2006034755 2066659808 1859285578 964380887 -575176398 1700627163 1859738839 -2085546503 1204749272 -1957363728 1939903040 -900917973 -1557408197 372612506 -2111356148 649172140 -1465034268 -371905862 -130979610 -1988276851 1881276081 -73070825 -459759730 -672236919 -55279664 1694662084 -195882825 -8306909 -1785915732 145951888 1956490513 -1317396296
REM
CELL 1.54180   50.00000   50.00000   50.00000   90.00000   90.00000   90.00000
LATT -1
SFAC C  
C      1  0.4450150000000  0.4860430000000  0.4776390000000 1.0
C      1  0.5363790000000  0.4750750000000  0.5471340000000 1.0
C      1  0.5025530000000  0.5612270000000  0.4786530000000 1.0
C      1  0.5159600000000  0.5416020000000  0.5223850000000 1.0
C      1  0.5574640000000  0.5096420000000  0.4609650000000 1.0
C      1  0.5125650000000  0.4695940000000  0.4602690000000 1.0
C      1  0.5233730000000  0.5317740000000  0.4376490000000 1.0
C      1  0.4881720000000  0.4419700000000  0.5176060000000 1.0
C      1  0.4782550000000  0.5054590000000  0.4547620000000 1.0
C      1  0.5466650000000  0.5527140000000  0.4882530000000 1.0
C      1  0.4740960000000  0.4432700000000  0.4711290000000 1.0
C      1  0.5338410000000  0.4792870000000  0.4433600000000 1.0
C      1  0.5238890000000  0.5612090000000  0.4996830000000 1.0
C      1  0.5573740000000  0.4821610000000  0.4610150000000 1.0
C      1  0.4653250000000  0.4764980000000  0.5468540000000 1.0
C      1  0.5365590000000  0.5213330000000  0.5307120000000 1.0
C      1  0.5471500000000  0.5233980000000  0.4850510000000 1.0
C      1  0.5417990000000  0.4443070000000  0.5069760000000 1.0
C      1  0.4594390000000  0.5475840000000  0.5115950000000 1.0
C      1  0.4682450000000  0.5437580000000  0.5386540000000 1.0
C      1  0.5670690000000  0.4869950000000  0.5142510000000 1.0
C      1  0.4440640000000  0.4815990000000  0.5272380000000 1.0
C      1  0.4729700000000  0.5023430000000  0.5588710000000 1.0
C      1  0.4467210000000  0.4700620000000  0.5013580000000 1.0
C      1  0.5011870000000  0.4951510000000  0.4705560000000 1.0
C      1  0.4373090000000  0.5095500000000  0.5296950000000 1.0
C      1  0.4725700000000  0.4553880000000  0.4972360000000 1.0
C      1  0.4398100000000  0.5265350000000  0.5069100000000 1.0
C      1  0.5232160000000  0.4580100000000  0.4891650000000 1.0
C      1  0.4820830000000  0.5051560000000  0.5126950000000 1.0
C      1  0.5140880000000  0.4790180000000  0.5074030000000 1.0
C      1  0.4542570000000  0.5217060000000  0.5495350000000 1.0
C      1  0.4960600000000  0.5402520000000  0.5439550000000 1.0
C      1  0.5151260000000  0.4363350000000  0.5063360000000 1.0
C      1  0.4864820000000  0.4585150000000  0.5411490000000 1.0
C      1  0.5371800000000  0.5088750000000  0.4392340000000 1.0
C      1  0.5536660000000  0.4664550000000  0.5246180000000 1.0
C      1  0.5125200000000  0.5429500000000  0.4590170000000 1.0
C      1  0.4987100000000  0.5266500000000  0.5022780000000 1.0
C      1  0.4999050000000  0.5147040000000  0.5568980000000 1.0
C      1  0.5255510000000  0.5033310000000  0.5493550000000 1.0
C      1  0.4653240000000  0.5266780000000  0.4692900000000 1.0
C      1  0.4888890000000  0.4840950000000  0.4960050000000 1.0
C      1  0.4629380000000  0.4811660000000  0.4551720000000 1.0
C      1  0.4789120000000  0.5460570000000  0.4889590000000 1.0
C      1  0.4834080000000  0.4598680000000  0.4527950000000 1.0
C      1  0.5115610000000  0.4697360000000  0.5372710000000 1.0
C      1  0.5160170000000  0.5190640000000  0.4794080000000 1.0
C      1  0.4435350000000  0.5144400000000  0.4819140000000 1.0
C      1  0.5547530000000  0.5114090000000  0.5110880000000 1.0
END
