TITL C-72061-1774-4 -20.6710334807689 125000 -865.17600063774 0 0 123 (C1) n - 1
REM
REM in /rds/project/t2_vol4/rds-t2-cs072/BORA/CARBON/from-Arr/AIRSS/Generating-Clusters/GAP-ML-2020/Only-C1/SD-CG/HFTN-CG
REM
REM
REM
REM
REM
REM ./C.cell (11c1c37f851c82e70ff6c80c92926a4b)
REM AIRSS Version 0.9.1 bugfix July 2018 build 013d7b7c2542+ Fri, 06 Jul 2018 19:26:36 +0100
REM compiler GCC version 9.3.0
REM options -cpp -mtune=generic -march=x86-64 -g -O0
REM seed -2127228128 -1987088525 -686101055 859820442 -560493810 686119364 -449216719 -2040828603 73549820 -1208031251 -40432676 1577008112 -22974195 1911298291 496899962 -1686134252 -1077892240 873486338 350273188 1658298670 360620646 -343834488 -1840895132 801899944 366926052 -1840286698 -874901276 693723968 112974182 -735934653 -353595929 -1152778184 -1817336929
REM
CELL 1.54180   50.00000   50.00000   50.00000   90.00000   90.00000   90.00000
LATT -1
SFAC C  
C      1  0.5636260000000  0.4461980000000  0.5499920000000 1.0
C      1  0.5403060000000  0.4866470000000  0.5752360000000 1.0
C      1  0.4620770000000  0.5076970000000  0.4223430000000 1.0
C      1  0.4526350000000  0.5737730000000  0.4811920000000 1.0
C      1  0.5689820000000  0.5398220000000  0.4389250000000 1.0
C      1  0.5709510000000  0.5598370000000  0.4596210000000 1.0
C      1  0.5056960000000  0.5684990000000  0.4333840000000 1.0
C      1  0.4439270000000  0.5084250000000  0.5166400000000 1.0
C      1  0.5781370000000  0.4603350000000  0.5291710000000 1.0
C      1  0.4707700000000  0.5353340000000  0.4220990000000 1.0
C      1  0.5474320000000  0.5759930000000  0.4598710000000 1.0
C      1  0.5176820000000  0.5031570000000  0.5303640000000 1.0
C      1  0.4535710000000  0.5354650000000  0.5574480000000 1.0
C      1  0.4805370000000  0.3892240000000  0.4837460000000 1.0
C      1  0.5741640000000  0.4385620000000  0.5103770000000 1.0
C      1  0.5649210000000  0.4866990000000  0.5268430000000 1.0
C      1  0.5358700000000  0.4786400000000  0.5356720000000 1.0
C      1  0.4998990000000  0.5372900000000  0.4874420000000 1.0
C      1  0.5240140000000  0.5278580000000  0.4172310000000 1.0
C      1  0.5565920000000  0.5100430000000  0.5678850000000 1.0
C      1  0.5755040000000  0.4591880000000  0.4670470000000 1.0
C      1  0.4836250000000  0.4735390000000  0.5209650000000 1.0
C      1  0.4638660000000  0.5743310000000  0.4548250000000 1.0
C      1  0.5560780000000  0.5540540000000  0.5499080000000 1.0
C      1  0.5372040000000  0.5670740000000  0.5078370000000 1.0
C      1  0.4471910000000  0.4405370000000  0.4414350000000 1.0
C      1  0.4695050000000  0.3980090000000  0.4622850000000 1.0
C      1  0.5932340000000  0.5076490000000  0.4684670000000 1.0
C      1  0.4938200000000  0.4896480000000  0.4625620000000 1.0
C      1  0.5660580000000  0.4370560000000  0.4832610000000 1.0
C      1  0.5361470000000  0.4532240000000  0.4374740000000 1.0
C      1  0.4660620000000  0.5635250000000  0.5520500000000 1.0
C      1  0.5399110000000  0.4600960000000  0.5608260000000 1.0
C      1  0.5054130000000  0.5613070000000  0.5830120000000 1.0
C      1  0.4884160000000  0.4341030000000  0.4911870000000 1.0
C      1  0.5314120000000  0.4992990000000  0.4271780000000 1.0
C      1  0.4097780000000  0.4442840000000  0.4739450000000 1.0
C      1  0.4086120000000  0.4572580000000  0.4985320000000 1.0
C      1  0.5289870000000  0.4596840000000  0.5133190000000 1.0
C      1  0.5120000000000  0.5178730000000  0.5948710000000 1.0
C      1  0.4464780000000  0.5166550000000  0.5813040000000 1.0
C      1  0.5586190000000  0.5461680000000  0.5030790000000 1.0
C      1  0.4906470000000  0.5830870000000  0.4530200000000 1.0
C      1  0.5597870000000  0.4934970000000  0.4973450000000 1.0
C      1  0.4541450000000  0.4917160000000  0.4945420000000 1.0
C      1  0.5706320000000  0.5101880000000  0.5430260000000 1.0
C      1  0.5135470000000  0.4933220000000  0.5847600000000 1.0
C      1  0.4159750000000  0.5065380000000  0.5539430000000 1.0
C      1  0.5239250000000  0.4342450000000  0.4562150000000 1.0
C      1  0.4214430000000  0.4380920000000  0.4522010000000 1.0
C      1  0.4943810000000  0.4665790000000  0.4196940000000 1.0
C      1  0.5600180000000  0.4244640000000  0.5320790000000 1.0
C      1  0.5392110000000  0.5734900000000  0.5372640000000 1.0
C      1  0.4732260000000  0.4864680000000  0.5487150000000 1.0
C      1  0.4918160000000  0.4509230000000  0.5712170000000 1.0
C      1  0.4231180000000  0.5127060000000  0.4574290000000 1.0
C      1  0.5972030000000  0.5303660000000  0.5152470000000 1.0
C      1  0.4615300000000  0.4674660000000  0.5035660000000 1.0
C      1  0.4734210000000  0.5303140000000  0.4799350000000 1.0
C      1  0.4339630000000  0.5395540000000  0.4557480000000 1.0
C      1  0.5321810000000  0.5835330000000  0.4828090000000 1.0
C      1  0.4987660000000  0.4954710000000  0.5113210000000 1.0
C      1  0.4479740000000  0.4968960000000  0.4468800000000 1.0
C      1  0.5336020000000  0.5690580000000  0.4360700000000 1.0
C      1  0.5608220000000  0.4663620000000  0.4439390000000 1.0
C      1  0.4440890000000  0.5455050000000  0.4831290000000 1.0
C      1  0.5598270000000  0.4934050000000  0.4347280000000 1.0
C      1  0.4656750000000  0.4434180000000  0.5615660000000 1.0
C      1  0.4860290000000  0.4640220000000  0.4490620000000 1.0
C      1  0.5122830000000  0.4914880000000  0.4854950000000 1.0
C      1  0.4539910000000  0.5516410000000  0.4393430000000 1.0
C      1  0.5827160000000  0.4841580000000  0.4801020000000 1.0
C      1  0.4186290000000  0.4909720000000  0.5291280000000 1.0
C      1  0.4985320000000  0.5439210000000  0.4200430000000 1.0
C      1  0.4937870000000  0.4375260000000  0.4605970000000 1.0
C      1  0.5484030000000  0.5373080000000  0.5724300000000 1.0
C      1  0.4121080000000  0.5091130000000  0.4845160000000 1.0
C      1  0.4597520000000  0.4400930000000  0.4968520000000 1.0
C      1  0.4922250000000  0.5722600000000  0.5624480000000 1.0
C      1  0.4057470000000  0.4861600000000  0.5021210000000 1.0
C      1  0.5152030000000  0.5295470000000  0.5331890000000 1.0
C      1  0.4267260000000  0.5303060000000  0.5024960000000 1.0
C      1  0.5358420000000  0.4117700000000  0.5270880000000 1.0
C      1  0.5269480000000  0.4096280000000  0.5001690000000 1.0
C      1  0.4218070000000  0.4444510000000  0.5219600000000 1.0
C      1  0.5048850000000  0.5916020000000  0.4769280000000 1.0
C      1  0.4913250000000  0.4793430000000  0.5727670000000 1.0
C      1  0.5777780000000  0.5132720000000  0.4445310000000 1.0
C      1  0.5038950000000  0.5999690000000  0.5244290000000 1.0
C      1  0.4573000000000  0.4679770000000  0.4390040000000 1.0
C      1  0.5134170000000  0.5853920000000  0.5449970000000 1.0
C      1  0.5355480000000  0.4760080000000  0.4910320000000 1.0
C      1  0.5223360000000  0.5207050000000  0.4762700000000 1.0
C      1  0.4632320000000  0.5135550000000  0.5387740000000 1.0
C      1  0.4226420000000  0.5341140000000  0.5509070000000 1.0
C      1  0.4696410000000  0.4218330000000  0.4482780000000 1.0
C      1  0.5136230000000  0.5086810000000  0.4504140000000 1.0
C      1  0.5973410000000  0.5289440000000  0.4879330000000 1.0
C      1  0.4633440000000  0.5866600000000  0.5038360000000 1.0
C      1  0.5720300000000  0.5370680000000  0.5298710000000 1.0
C      1  0.4683690000000  0.5028730000000  0.4712580000000 1.0
C      1  0.4708920000000  0.4818950000000  0.4144160000000 1.0
C      1  0.4163590000000  0.5475680000000  0.5259490000000 1.0
C      1  0.5450600000000  0.5454910000000  0.4246250000000 1.0
C      1  0.4461760000000  0.4283800000000  0.5194420000000 1.0
C      1  0.5164670000000  0.4399040000000  0.5636790000000 1.0
C      1  0.5084970000000  0.5472890000000  0.5125910000000 1.0
C      1  0.4896630000000  0.4111800000000  0.5328330000000 1.0
C      1  0.5019000000000  0.4518590000000  0.5129430000000 1.0
C      1  0.4902300000000  0.5969960000000  0.5011100000000 1.0
C      1  0.5810960000000  0.5522930000000  0.4840150000000 1.0
C      1  0.5216940000000  0.4713720000000  0.4210340000000 1.0
C      1  0.4648950000000  0.4240260000000  0.5407680000000 1.0
C      1  0.4340990000000  0.4942460000000  0.5731070000000 1.0
C      1  0.4246940000000  0.5733840000000  0.5278780000000 1.0
C      1  0.4526120000000  0.5773430000000  0.5296730000000 1.0
C      1  0.4963770000000  0.4068050000000  0.5016890000000 1.0
C      1  0.4481510000000  0.4689470000000  0.5584320000000 1.0
C      1  0.5143110000000  0.4171250000000  0.5459700000000 1.0
C      1  0.5233580000000  0.5414250000000  0.5874350000000 1.0
C      1  0.5490480000000  0.5208460000000  0.4889810000000 1.0
C      1  0.5401420000000  0.4230730000000  0.4779440000000 1.0
C      1  0.4262160000000  0.4654660000000  0.5399810000000 1.0
END
