TITL C-72043-1777-6 0.0410917662232989 125000 -137.064030643178 0 0 21 (C1) n - 1
REM
REM in /rds/project/t2_vol4/rds-t2-cs072/BORA/CARBON/from-Arr/AIRSS/Generating-Clusters/GAP-ML-2020/Only-C1/SD-CG/HFTN-CG
REM
REM
REM
REM
REM
REM ./C.cell (11c1c37f851c82e70ff6c80c92926a4b)
REM AIRSS Version 0.9.1 bugfix July 2018 build 013d7b7c2542+ Fri, 06 Jul 2018 19:26:36 +0100
REM compiler GCC version 9.3.0
REM options -cpp -mtune=generic -march=x86-64 -g -O0
REM seed 987216651 298159355 794842578 -1859658794 -834867874 820266692 -2004423929 573488734 2051887024 -167319959 -683508394 1175802072 -1205817062 359518731 1925595025 581796827 -1564020941 1536759341 575174130 -246081589 -802844167 628996505 -1442535752 308968908 -1355849325 1360133150 -22784647 2095543472 1196155854 -1518687848 -144187137 -1537629512 1901343535
REM
CELL 1.54180   50.00000   50.00000   50.00000   90.00000   90.00000   90.00000
LATT -1
SFAC C  
C      1  0.4760610000000  0.5531590000000  0.4767220000000 1.0
C      1  0.4837160000000  0.4523370000000  0.5326770000000 1.0
C      1  0.5408120000000  0.4832670000000  0.4643470000000 1.0
C      1  0.5370130000000  0.5090730000000  0.5013630000000 1.0
C      1  0.4840810000000  0.4803820000000  0.5310630000000 1.0
C      1  0.5279970000000  0.4397190000000  0.4865660000000 1.0
C      1  0.5200040000000  0.5292170000000  0.4611720000000 1.0
C      1  0.5023810000000  0.5414010000000  0.5064100000000 1.0
C      1  0.5036600000000  0.5443970000000  0.4767860000000 1.0
C      1  0.5095640000000  0.4919380000000  0.5251990000000 1.0
C      1  0.4447840000000  0.5126440000000  0.5180040000000 1.0
C      1  0.5154780000000  0.5192800000000  0.5167800000000 1.0
C      1  0.4619610000000  0.4965000000000  0.5266040000000 1.0
C      1  0.5137640000000  0.4254730000000  0.5021450000000 1.0
C      1  0.5363140000000  0.5099210000000  0.4727530000000 1.0
C      1  0.4977580000000  0.4354390000000  0.5204430000000 1.0
C      1  0.4510280000000  0.5355780000000  0.5036230000000 1.0
C      1  0.4504730000000  0.5418220000000  0.4748110000000 1.0
C      1  0.5355530000000  0.4659820000000  0.4861840000000 1.0
C      1  0.4751650000000  0.5501810000000  0.5066240000000 1.0
C      1  0.5324310000000  0.4822900000000  0.5097230000000 1.0
END
