TITL C-72065-1726-11 31.0254315627398 125000 -375.192430698665 0 0 56 (C1) n - 1
REM
REM in /rds/project/t2_vol4/rds-t2-cs072/BORA/CARBON/from-Arr/AIRSS/Generating-Clusters/GAP-ML-2020/Only-C1/SD-CG/HFTN-CG
REM
REM
REM
REM
REM
REM ./C.cell (11c1c37f851c82e70ff6c80c92926a4b)
REM AIRSS Version 0.9.1 bugfix July 2018 build 013d7b7c2542+ Fri, 06 Jul 2018 19:26:36 +0100
REM compiler GCC version 9.3.0
REM options -cpp -mtune=generic -march=x86-64 -g -O0
REM seed -401490159 417634089 796785631 -69583117 -369996826 -449841667 1757655749 -337405342 -1329136996 297611967 1769427142 -2032337971 -362782177 416047928 -1692969014 -1037728068 -1605940886 -1767476478 288498914 1208409328 2000455963 -1450259469 -1120658260 -1069553508 1973946131 -1325554406 -1792126360 959305599 -1472029159 -1482326056 -1624656961 949044256 -759027932
REM
CELL 1.54180   50.00000   50.00000   50.00000   90.00000   90.00000   90.00000
LATT -1
SFAC C  
C      1  0.4468080000000  0.5052200000000  0.5115990000000 1.0
C      1  0.5219240000000  0.4914580000000  0.5569160000000 1.0
C      1  0.5250420000000  0.5363220000000  0.5346130000000 1.0
C      1  0.4601700000000  0.4380840000000  0.5132230000000 1.0
C      1  0.5790500000000  0.5257830000000  0.5106850000000 1.0
C      1  0.5015110000000  0.5476220000000  0.4747730000000 1.0
C      1  0.4846570000000  0.4557840000000  0.4741280000000 1.0
C      1  0.5002840000000  0.5058710000000  0.5679950000000 1.0
C      1  0.5208760000000  0.5644620000000  0.4905740000000 1.0
C      1  0.4245620000000  0.4629450000000  0.4881060000000 1.0
C      1  0.5043350000000  0.5496030000000  0.5481770000000 1.0
C      1  0.5063350000000  0.5805990000000  0.5088600000000 1.0
C      1  0.5610570000000  0.5432980000000  0.5214800000000 1.0
C      1  0.5105290000000  0.4600140000000  0.4337270000000 1.0
C      1  0.5137130000000  0.4658290000000  0.5481170000000 1.0
C      1  0.5570930000000  0.5037950000000  0.4772760000000 1.0
C      1  0.4216810000000  0.5195930000000  0.5094170000000 1.0
C      1  0.4792360000000  0.5038970000000  0.4383640000000 1.0
C      1  0.5025840000000  0.5012050000000  0.4568960000000 1.0
C      1  0.4628390000000  0.5257260000000  0.4412960000000 1.0
C      1  0.5007580000000  0.4274640000000  0.5154860000000 1.0
C      1  0.5387750000000  0.4706360000000  0.5082700000000 1.0
C      1  0.4767350000000  0.5439670000000  0.5116180000000 1.0
C      1  0.4742420000000  0.5168140000000  0.5219040000000 1.0
C      1  0.4748850000000  0.5436880000000  0.4833040000000 1.0
C      1  0.4541320000000  0.4997140000000  0.4816920000000 1.0
C      1  0.5559600000000  0.4744420000000  0.4866800000000 1.0
C      1  0.4671180000000  0.4781020000000  0.4382470000000 1.0
C      1  0.5336460000000  0.5177730000000  0.4903020000000 1.0
C      1  0.5349250000000  0.5426620000000  0.5078210000000 1.0
C      1  0.4862240000000  0.4566730000000  0.4452230000000 1.0
C      1  0.4592610000000  0.5259430000000  0.4685260000000 1.0
C      1  0.4665160000000  0.4804170000000  0.5478870000000 1.0
C      1  0.4941550000000  0.4953280000000  0.5079940000000 1.0
C      1  0.5350280000000  0.5086040000000  0.5368280000000 1.0
C      1  0.5471450000000  0.4813180000000  0.4614670000000 1.0
C      1  0.4858050000000  0.4593070000000  0.5496710000000 1.0
C      1  0.5638340000000  0.5160420000000  0.5307160000000 1.0
C      1  0.5233260000000  0.4966970000000  0.5105220000000 1.0
C      1  0.4472960000000  0.4797220000000  0.5274800000000 1.0
C      1  0.5628570000000  0.5489570000000  0.4715880000000 1.0
C      1  0.4907740000000  0.5307280000000  0.5651120000000 1.0
C      1  0.5755240000000  0.5251480000000  0.4799970000000 1.0
C      1  0.5232370000000  0.4814160000000  0.4465480000000 1.0
C      1  0.4916050000000  0.5644200000000  0.5257460000000 1.0
C      1  0.5259270000000  0.4241080000000  0.5228990000000 1.0
C      1  0.4341440000000  0.4798520000000  0.4688080000000 1.0
C      1  0.4392960000000  0.4575980000000  0.5115410000000 1.0
C      1  0.4848050000000  0.4858040000000  0.4814450000000 1.0
C      1  0.5299060000000  0.4518660000000  0.5273310000000 1.0
C      1  0.4823670000000  0.4347720000000  0.4931060000000 1.0
C      1  0.4790460000000  0.4367050000000  0.5340930000000 1.0
C      1  0.4403770000000  0.4761540000000  0.4416180000000 1.0
C      1  0.5146740000000  0.5241090000000  0.4683830000000 1.0
C      1  0.5459540000000  0.5675240000000  0.4736600000000 1.0
C      1  0.4754540000000  0.5084150000000  0.5502680000000 1.0
END
