TITL C-72040-1715-4 0.026917220877224 125000 -882.842587989851 0 0 126 (C1) n - 1
REM
REM in /rds/project/t2_vol4/rds-t2-cs072/BORA/CARBON/from-Arr/AIRSS/Generating-Clusters/GAP-ML-2020/Only-C1/SD-CG/HFTN-CG
REM
REM
REM
REM
REM
REM ./C.cell (11c1c37f851c82e70ff6c80c92926a4b)
REM AIRSS Version 0.9.1 bugfix July 2018 build 013d7b7c2542+ Fri, 06 Jul 2018 19:26:36 +0100
REM compiler GCC version 9.3.0
REM options -cpp -mtune=generic -march=x86-64 -g -O0
REM seed -1851175044 -268691617 434160525 -318411058 -433985340 -427020725 1989718725 629274996 -848292909 462912120 -1130980898 -1480349768 84985159 1145942595 1832886696 -1251460315 -1477268146 -866730160 1466453419 278247276 1171679009 2099802427 274401125 580430764 1352409173 358506001 1533120297 -342145944 -1078003622 -1779167453 -2057561533 -492765192 1344908807
REM
CELL 1.54180   50.00000   50.00000   50.00000   90.00000   90.00000   90.00000
LATT -1
SFAC C  
C      1  0.5237540000000  0.4000140000000  0.4964260000000 1.0
C      1  0.4955190000000  0.5002760000000  0.5490080000000 1.0
C      1  0.5422640000000  0.5035230000000  0.4649820000000 1.0
C      1  0.4822020000000  0.4297910000000  0.4470660000000 1.0
C      1  0.5252490000000  0.4283010000000  0.5413160000000 1.0
C      1  0.4864290000000  0.4871000000000  0.5960460000000 1.0
C      1  0.4816230000000  0.4582860000000  0.4388960000000 1.0
C      1  0.4296520000000  0.4743530000000  0.5371740000000 1.0
C      1  0.4752190000000  0.5385310000000  0.4094160000000 1.0
C      1  0.5145370000000  0.4815360000000  0.5938540000000 1.0
C      1  0.4742590000000  0.5661020000000  0.4770140000000 1.0
C      1  0.4262690000000  0.5204080000000  0.5408130000000 1.0
C      1  0.4640730000000  0.5123420000000  0.4681830000000 1.0
C      1  0.4723360000000  0.5927250000000  0.4647000000000 1.0
C      1  0.4819900000000  0.5109590000000  0.4162920000000 1.0
C      1  0.4882740000000  0.6026880000000  0.4858300000000 1.0
C      1  0.5693370000000  0.5626500000000  0.5223440000000 1.0
C      1  0.4617030000000  0.4743500000000  0.5851210000000 1.0
C      1  0.5145470000000  0.5897480000000  0.4825150000000 1.0
C      1  0.5495780000000  0.4269270000000  0.5262400000000 1.0
C      1  0.4607320000000  0.4506510000000  0.5688320000000 1.0
C      1  0.4910910000000  0.5745630000000  0.5750260000000 1.0
C      1  0.4971510000000  0.4802960000000  0.4594940000000 1.0
C      1  0.5369920000000  0.5262990000000  0.4870210000000 1.0
C      1  0.5581190000000  0.5699490000000  0.4686880000000 1.0
C      1  0.4509770000000  0.4689580000000  0.4443910000000 1.0
C      1  0.4445300000000  0.5137400000000  0.5187440000000 1.0
C      1  0.4493660000000  0.4300890000000  0.5245590000000 1.0
C      1  0.5819540000000  0.4559650000000  0.5037060000000 1.0
C      1  0.5070990000000  0.5309030000000  0.4488880000000 1.0
C      1  0.5367650000000  0.5170720000000  0.5144180000000 1.0
C      1  0.4272150000000  0.4962910000000  0.5569500000000 1.0
C      1  0.5066840000000  0.4175420000000  0.4560210000000 1.0
C      1  0.5388310000000  0.4490910000000  0.4306970000000 1.0
C      1  0.4556210000000  0.4233740000000  0.4567640000000 1.0
C      1  0.5339650000000  0.5322240000000  0.5425010000000 1.0
C      1  0.4960280000000  0.5560880000000  0.4047610000000 1.0
C      1  0.4352800000000  0.5315150000000  0.4355120000000 1.0
C      1  0.5307420000000  0.4601650000000  0.5814200000000 1.0
C      1  0.5898280000000  0.4829930000000  0.5076430000000 1.0
C      1  0.4501860000000  0.4865120000000  0.4688820000000 1.0
C      1  0.4861990000000  0.5084730000000  0.4472120000000 1.0
C      1  0.4855960000000  0.4712360000000  0.4872010000000 1.0
C      1  0.5530970000000  0.4276990000000  0.4741020000000 1.0
C      1  0.4793910000000  0.5931190000000  0.5133280000000 1.0
C      1  0.5169430000000  0.4383810000000  0.5674850000000 1.0
C      1  0.5012920000000  0.4362130000000  0.5231940000000 1.0
C      1  0.4362270000000  0.4445820000000  0.4553690000000 1.0
C      1  0.4420550000000  0.4477260000000  0.5461170000000 1.0
C      1  0.5264130000000  0.4799580000000  0.4679740000000 1.0
C      1  0.5213260000000  0.4688730000000  0.4159250000000 1.0
C      1  0.4663010000000  0.5345130000000  0.5123430000000 1.0
C      1  0.5756500000000  0.4949900000000  0.4624990000000 1.0
C      1  0.4061390000000  0.4633410000000  0.4948720000000 1.0
C      1  0.4497530000000  0.5443740000000  0.5738480000000 1.0
C      1  0.5287110000000  0.4695240000000  0.4948920000000 1.0
C      1  0.5171440000000  0.4812220000000  0.5417150000000 1.0
C      1  0.5645560000000  0.4619090000000  0.4316390000000 1.0
C      1  0.5744310000000  0.4465610000000  0.4775090000000 1.0
C      1  0.4520430000000  0.4855510000000  0.5189350000000 1.0
C      1  0.4537760000000  0.5811870000000  0.5173150000000 1.0
C      1  0.5270940000000  0.5069190000000  0.5904650000000 1.0
C      1  0.4106330000000  0.4817380000000  0.5142210000000 1.0
C      1  0.4534970000000  0.5589420000000  0.4970270000000 1.0
C      1  0.5844390000000  0.4903240000000  0.5348160000000 1.0
C      1  0.5041520000000  0.5274170000000  0.5501950000000 1.0
C      1  0.5703450000000  0.4466820000000  0.5283780000000 1.0
C      1  0.5883140000000  0.5030910000000  0.4876500000000 1.0
C      1  0.4849600000000  0.5469140000000  0.5355590000000 1.0
C      1  0.4691800000000  0.5636070000000  0.5608750000000 1.0
C      1  0.4830450000000  0.5199510000000  0.4921930000000 1.0
C      1  0.4772720000000  0.4051450000000  0.4947450000000 1.0
C      1  0.4316820000000  0.5470820000000  0.5519260000000 1.0
C      1  0.5022400000000  0.4021020000000  0.4804570000000 1.0
C      1  0.4569770000000  0.4722420000000  0.4919510000000 1.0
C      1  0.4946750000000  0.4593360000000  0.5393990000000 1.0
C      1  0.5058380000000  0.4516680000000  0.4973780000000 1.0
C      1  0.4884470000000  0.4443660000000  0.5642380000000 1.0
C      1  0.4143620000000  0.5264640000000  0.4870100000000 1.0
C      1  0.5516690000000  0.5014450000000  0.5773180000000 1.0
C      1  0.5488790000000  0.5792980000000  0.5145000000000 1.0
C      1  0.4208560000000  0.4447020000000  0.4812700000000 1.0
C      1  0.5333940000000  0.5181270000000  0.4380580000000 1.0
C      1  0.4463230000000  0.5715640000000  0.5425180000000 1.0
C      1  0.4357550000000  0.4261470000000  0.4990450000000 1.0
C      1  0.4556480000000  0.5512460000000  0.4281670000000 1.0
C      1  0.4299260000000  0.5485980000000  0.4825090000000 1.0
C      1  0.4761840000000  0.4192110000000  0.5194110000000 1.0
C      1  0.5762510000000  0.5081680000000  0.4351050000000 1.0
C      1  0.5331180000000  0.4293610000000  0.4516570000000 1.0
C      1  0.4979430000000  0.5564380000000  0.4329770000000 1.0
C      1  0.4786850000000  0.4868680000000  0.5299830000000 1.0
C      1  0.5550560000000  0.4732900000000  0.5714790000000 1.0
C      1  0.5133870000000  0.5587490000000  0.5770940000000 1.0
C      1  0.5826870000000  0.5388500000000  0.5214310000000 1.0
C      1  0.5842290000000  0.5302320000000  0.4944140000000 1.0
C      1  0.5600540000000  0.5326610000000  0.4334980000000 1.0
C      1  0.5769330000000  0.4655430000000  0.4569640000000 1.0
C      1  0.5087860000000  0.5356530000000  0.4796860000000 1.0
C      1  0.5236770000000  0.4911110000000  0.5146350000000 1.0
C      1  0.5714360000000  0.4683010000000  0.5480230000000 1.0
C      1  0.5643710000000  0.5575010000000  0.4450140000000 1.0
C      1  0.5456650000000  0.4152710000000  0.4992410000000 1.0
C      1  0.5361210000000  0.4941740000000  0.4169720000000 1.0
C      1  0.4326550000000  0.5087270000000  0.4194190000000 1.0
C      1  0.4833000000000  0.5156550000000  0.5946410000000 1.0
C      1  0.4927200000000  0.4664580000000  0.4127370000000 1.0
C      1  0.5632020000000  0.4879840000000  0.4196430000000 1.0
C      1  0.4987390000000  0.5696810000000  0.5190340000000 1.0
C      1  0.5423420000000  0.5876020000000  0.4856670000000 1.0
C      1  0.4533430000000  0.4112200000000  0.4821330000000 1.0
C      1  0.4739230000000  0.4866660000000  0.4052080000000 1.0
C      1  0.4564600000000  0.5208760000000  0.5874880000000 1.0
C      1  0.5257440000000  0.5763680000000  0.5313030000000 1.0
C      1  0.4435630000000  0.4960670000000  0.5798440000000 1.0
C      1  0.4474790000000  0.4859790000000  0.4196020000000 1.0
C      1  0.5080060000000  0.5286550000000  0.5838490000000 1.0
C      1  0.4365260000000  0.5281080000000  0.4640000000000 1.0
C      1  0.4734910000000  0.5689840000000  0.4454060000000 1.0
C      1  0.5309870000000  0.5604050000000  0.5537100000000 1.0
C      1  0.5798850000000  0.5175900000000  0.5412640000000 1.0
C      1  0.5018430000000  0.5627720000000  0.4894900000000 1.0
C      1  0.5619060000000  0.5432180000000  0.4806470000000 1.0
C      1  0.5574790000000  0.5206530000000  0.5581320000000 1.0
C      1  0.4149990000000  0.5106680000000  0.5107130000000 1.0
C      1  0.4922060000000  0.4948450000000  0.5049910000000 1.0
END
