TITL C-72063-1767-7 0.0959285341521011 125000 -505.590056960182 0 0 74 (C1) n - 1
REM
REM in /rds/project/t2_vol4/rds-t2-cs072/BORA/CARBON/from-Arr/AIRSS/Generating-Clusters/GAP-ML-2020/Only-C1/SD-CG/HFTN-CG
REM
REM
REM
REM
REM
REM ./C.cell (11c1c37f851c82e70ff6c80c92926a4b)
REM AIRSS Version 0.9.1 bugfix July 2018 build 013d7b7c2542+ Fri, 06 Jul 2018 19:26:36 +0100
REM compiler GCC version 9.3.0
REM options -cpp -mtune=generic -march=x86-64 -g -O0
REM seed 46695735 869504251 -494246353 -568968626 238613493 -618796120 -1207754332 1956982133 595807310 -1199337552 1044793799 -1057112861 1203641777 -546350421 2118941156 162818739 -52992307 551258612 -1355664833 162993054 -1916593745 -1741636125 1733291683 1250679966 1630822292 1654423002 467541056 -1801194013 -115821468 -928429259 204738996 -743220259 1052828492
REM
CELL 1.54180   50.00000   50.00000   50.00000   90.00000   90.00000   90.00000
LATT -1
SFAC C  
C      1  0.4637370000000  0.5081100000000  0.4862420000000 1.0
C      1  0.4524890000000  0.5522220000000  0.5015240000000 1.0
C      1  0.4468290000000  0.5243190000000  0.5072560000000 1.0
C      1  0.4406170000000  0.5054060000000  0.4632030000000 1.0
C      1  0.4204190000000  0.5097120000000  0.5049100000000 1.0
C      1  0.5117480000000  0.5016080000000  0.4718380000000 1.0
C      1  0.5148090000000  0.4324890000000  0.4708010000000 1.0
C      1  0.5183190000000  0.4928340000000  0.4259190000000 1.0
C      1  0.4883500000000  0.5541840000000  0.4852880000000 1.0
C      1  0.5454800000000  0.4468240000000  0.5000850000000 1.0
C      1  0.4605900000000  0.5547750000000  0.4727860000000 1.0
C      1  0.4743070000000  0.4912850000000  0.4294110000000 1.0
C      1  0.5151990000000  0.5497870000000  0.4473900000000 1.0
C      1  0.4951540000000  0.4782470000000  0.4696330000000 1.0
C      1  0.4732770000000  0.4803960000000  0.4887060000000 1.0
C      1  0.4670930000000  0.5185440000000  0.5596130000000 1.0
C      1  0.5142350000000  0.4656090000000  0.4351800000000 1.0
C      1  0.4218810000000  0.4920850000000  0.4829770000000 1.0
C      1  0.4884550000000  0.4242540000000  0.4697960000000 1.0
C      1  0.4494070000000  0.4873690000000  0.4428100000000 1.0
C      1  0.5091000000000  0.4922110000000  0.5160570000000 1.0
C      1  0.5162600000000  0.5273540000000  0.5638840000000 1.0
C      1  0.5573390000000  0.4575140000000  0.5231520000000 1.0
C      1  0.5495240000000  0.4623730000000  0.4762300000000 1.0
C      1  0.5728400000000  0.4799570000000  0.5134380000000 1.0
C      1  0.5471750000000  0.4897160000000  0.5573030000000 1.0
C      1  0.5305440000000  0.4975680000000  0.4948140000000 1.0
C      1  0.5117920000000  0.5645070000000  0.4713500000000 1.0
C      1  0.5879140000000  0.4951680000000  0.5300770000000 1.0
C      1  0.5068660000000  0.4750670000000  0.5723820000000 1.0
C      1  0.5706880000000  0.5167310000000  0.4826500000000 1.0
C      1  0.5586750000000  0.5568110000000  0.4846780000000 1.0
C      1  0.4548270000000  0.4571850000000  0.4807200000000 1.0
C      1  0.5342830000000  0.5713850000000  0.4883220000000 1.0
C      1  0.4792700000000  0.4675640000000  0.5773610000000 1.0
C      1  0.5342460000000  0.5431820000000  0.5482680000000 1.0
C      1  0.5608100000000  0.4890450000000  0.4881370000000 1.0
C      1  0.4283220000000  0.4672420000000  0.5229580000000 1.0
C      1  0.4943490000000  0.4431390000000  0.5124990000000 1.0
C      1  0.4295690000000  0.4661440000000  0.4932590000000 1.0
C      1  0.4705930000000  0.4462120000000  0.5567230000000 1.0
C      1  0.4889360000000  0.5368790000000  0.5580710000000 1.0
C      1  0.4905030000000  0.5582960000000  0.5380550000000 1.0
C      1  0.4565220000000  0.4610520000000  0.4517620000000 1.0
C      1  0.4945820000000  0.4397860000000  0.5427110000000 1.0
C      1  0.4743660000000  0.4356500000000  0.4899270000000 1.0
C      1  0.4721620000000  0.4908910000000  0.5644860000000 1.0
C      1  0.5437030000000  0.4623500000000  0.5477550000000 1.0
C      1  0.4855740000000  0.4669450000000  0.4422020000000 1.0
C      1  0.5684270000000  0.5375170000000  0.5044090000000 1.0
C      1  0.5386730000000  0.5334170000000  0.4466090000000 1.0
C      1  0.5645520000000  0.5064540000000  0.5409030000000 1.0
C      1  0.5303330000000  0.5256080000000  0.5062330000000 1.0
C      1  0.4919800000000  0.5376060000000  0.4354710000000 1.0
C      1  0.4660550000000  0.5448480000000  0.4455050000000 1.0
C      1  0.4661880000000  0.4836760000000  0.5355070000000 1.0
C      1  0.5197520000000  0.4351570000000  0.4988490000000 1.0
C      1  0.5290330000000  0.5069450000000  0.4465660000000 1.0
C      1  0.5524010000000  0.5300310000000  0.5285870000000 1.0
C      1  0.4905970000000  0.5214930000000  0.4852450000000 1.0
C      1  0.4499600000000  0.4581590000000  0.5392310000000 1.0
C      1  0.5234870000000  0.4994920000000  0.5697670000000 1.0
C      1  0.4238850000000  0.4962090000000  0.5295030000000 1.0
C      1  0.5298920000000  0.4533390000000  0.4565350000000 1.0
C      1  0.4771970000000  0.5604810000000  0.5128720000000 1.0
C      1  0.5188060000000  0.5639200000000  0.5351070000000 1.0
C      1  0.5293460000000  0.5771450000000  0.5145560000000 1.0
C      1  0.4500090000000  0.5107030000000  0.5348130000000 1.0
C      1  0.4870540000000  0.4752750000000  0.5137480000000 1.0
C      1  0.4445920000000  0.5337490000000  0.4569390000000 1.0
C      1  0.5597790000000  0.5365620000000  0.4646630000000 1.0
C      1  0.5022310000000  0.5199730000000  0.5133740000000 1.0
C      1  0.4948520000000  0.5099970000000  0.4253320000000 1.0
C      1  0.5171940000000  0.4542610000000  0.5550770000000 1.0
END
