TITL C-72063-1767-2 -0.0368540236635399 125000 -616.142974649732 0 0 87 (C1) n - 1
REM
REM in /rds/project/t2_vol4/rds-t2-cs072/BORA/CARBON/from-Arr/AIRSS/Generating-Clusters/GAP-ML-2020/Only-C1/SD-CG/HFTN-CG
REM
REM
REM
REM
REM
REM ./C.cell (11c1c37f851c82e70ff6c80c92926a4b)
REM AIRSS Version 0.9.1 bugfix July 2018 build 013d7b7c2542+ Fri, 06 Jul 2018 19:26:36 +0100
REM compiler GCC version 9.3.0
REM options -cpp -mtune=generic -march=x86-64 -g -O0
REM seed 1575181153 -39048717 1020723288 1189096903 -75832165 -2001393958 -337129963 1699218268 -801466442 -721445853 -1571535139 -20323186 888570603 -1898727445 2018266604 86207844 1180074422 460141534 -1721064178 -199151214 -1216753201 -726776439 -929845807 -1907052131 -985723551 1043678760 687369154 1756455118 1734873794 -1406866034 428304820 330081603 1875518175
REM
CELL 1.54180   50.00000   50.00000   50.00000   90.00000   90.00000   90.00000
LATT -1
SFAC C  
C      1  0.5810910000000  0.4858960000000  0.4535520000000 1.0
C      1  0.4868400000000  0.5628680000000  0.5345020000000 1.0
C      1  0.4882990000000  0.4387390000000  0.5431320000000 1.0
C      1  0.4853140000000  0.5706230000000  0.5072740000000 1.0
C      1  0.4729790000000  0.4930210000000  0.5131960000000 1.0
C      1  0.5332360000000  0.5453830000000  0.4429820000000 1.0
C      1  0.5096890000000  0.4814850000000  0.4488100000000 1.0
C      1  0.5127380000000  0.5315950000000  0.4825690000000 1.0
C      1  0.4272900000000  0.5155950000000  0.4574900000000 1.0
C      1  0.5743190000000  0.4616880000000  0.5098910000000 1.0
C      1  0.4889230000000  0.4920200000000  0.5377370000000 1.0
C      1  0.4424420000000  0.5577290000000  0.4803260000000 1.0
C      1  0.5158470000000  0.5000130000000  0.5254940000000 1.0
C      1  0.5143650000000  0.5605080000000  0.5427090000000 1.0
C      1  0.5360200000000  0.5698950000000  0.4962660000000 1.0
C      1  0.4855440000000  0.4928710000000  0.4668990000000 1.0
C      1  0.4531690000000  0.4999670000000  0.4187430000000 1.0
C      1  0.5369610000000  0.5640060000000  0.5243080000000 1.0
C      1  0.5487780000000  0.5332260000000  0.5568030000000 1.0
C      1  0.4597790000000  0.4704520000000  0.5654050000000 1.0
C      1  0.4397180000000  0.5417580000000  0.4561310000000 1.0
C      1  0.4456870000000  0.4484160000000  0.5213950000000 1.0
C      1  0.5369150000000  0.5227820000000  0.4649320000000 1.0
C      1  0.4676020000000  0.5437590000000  0.5451850000000 1.0
C      1  0.4979360000000  0.4897250000000  0.4221540000000 1.0
C      1  0.5584870000000  0.5075210000000  0.5638710000000 1.0
C      1  0.4600750000000  0.5457620000000  0.4359770000000 1.0
C      1  0.5710910000000  0.4654620000000  0.5388270000000 1.0
C      1  0.5840630000000  0.4869890000000  0.5010000000000 1.0
C      1  0.4269030000000  0.5175620000000  0.5331090000000 1.0
C      1  0.5418220000000  0.4262340000000  0.5103210000000 1.0
C      1  0.4325470000000  0.5472310000000  0.5046610000000 1.0
C      1  0.5217370000000  0.5411920000000  0.5627570000000 1.0
C      1  0.5080550000000  0.4700930000000  0.5772800000000 1.0
C      1  0.4852050000000  0.5585770000000  0.4414550000000 1.0
C      1  0.4890630000000  0.4244640000000  0.4976240000000 1.0
C      1  0.4868690000000  0.4647470000000  0.5581970000000 1.0
C      1  0.4668510000000  0.5716250000000  0.4851910000000 1.0
C      1  0.4415290000000  0.4660710000000  0.5439560000000 1.0
C      1  0.5399110000000  0.4302180000000  0.5391040000000 1.0
C      1  0.4553060000000  0.4995020000000  0.5669080000000 1.0
C      1  0.5635260000000  0.5275380000000  0.4828750000000 1.0
C      1  0.5552390000000  0.4764790000000  0.4567290000000 1.0
C      1  0.4188590000000  0.5219030000000  0.5056160000000 1.0
C      1  0.5363860000000  0.4643680000000  0.5733590000000 1.0
C      1  0.5558590000000  0.5608900000000  0.4774880000000 1.0
C      1  0.5156310000000  0.4545670000000  0.4662180000000 1.0
C      1  0.4770720000000  0.5184730000000  0.5590990000000 1.0
C      1  0.5568290000000  0.5453200000000  0.5321560000000 1.0
C      1  0.4778510000000  0.5190970000000  0.5032230000000 1.0
C      1  0.4915340000000  0.4345340000000  0.4695440000000 1.0
C      1  0.5450750000000  0.4525360000000  0.4690160000000 1.0
C      1  0.5702910000000  0.5298540000000  0.5120240000000 1.0
C      1  0.4335300000000  0.4950130000000  0.4387310000000 1.0
C      1  0.5344890000000  0.4953680000000  0.4530880000000 1.0
C      1  0.4713950000000  0.4349380000000  0.5205730000000 1.0
C      1  0.5073980000000  0.5426880000000  0.4310470000000 1.0
C      1  0.4408800000000  0.4497670000000  0.4686860000000 1.0
C      1  0.4324450000000  0.4549410000000  0.4959900000000 1.0
C      1  0.4853230000000  0.5197530000000  0.4748270000000 1.0
C      1  0.4835500000000  0.4779120000000  0.4911350000000 1.0
C      1  0.5796730000000  0.5004090000000  0.4765040000000 1.0
C      1  0.5820260000000  0.5061590000000  0.5214630000000 1.0
C      1  0.4364630000000  0.4669750000000  0.4456800000000 1.0
C      1  0.5083250000000  0.5648080000000  0.4869750000000 1.0
C      1  0.5521850000000  0.4504640000000  0.5539340000000 1.0
C      1  0.5414740000000  0.4921070000000  0.5793950000000 1.0
C      1  0.5504790000000  0.5648990000000  0.4505590000000 1.0
C      1  0.5096530000000  0.4677370000000  0.4938240000000 1.0
C      1  0.4956600000000  0.5192250000000  0.4187420000000 1.0
C      1  0.4189930000000  0.5044580000000  0.4832130000000 1.0
C      1  0.5025760000000  0.5223950000000  0.5740730000000 1.0
C      1  0.4720270000000  0.4781290000000  0.4175930000000 1.0
C      1  0.5137740000000  0.4983150000000  0.5830610000000 1.0
C      1  0.4882470000000  0.5720200000000  0.4658330000000 1.0
C      1  0.5750830000000  0.4932370000000  0.5454760000000 1.0
C      1  0.4201800000000  0.4783950000000  0.4910220000000 1.0
C      1  0.5261370000000  0.4795980000000  0.5117420000000 1.0
C      1  0.4425720000000  0.5426230000000  0.5323520000000 1.0
C      1  0.4614970000000  0.4570090000000  0.4331490000000 1.0
C      1  0.5135500000000  0.4172570000000  0.5098830000000 1.0
C      1  0.5571940000000  0.4437500000000  0.4942320000000 1.0
C      1  0.4674840000000  0.4407080000000  0.4562680000000 1.0
C      1  0.4668830000000  0.5244240000000  0.4187170000000 1.0
C      1  0.5077920000000  0.5223680000000  0.5099900000000 1.0
C      1  0.5119070000000  0.4238810000000  0.5385420000000 1.0
C      1  0.4340120000000  0.4954390000000  0.5482300000000 1.0
END
