TITL C-72049-1787-3 0.032823815487084 125000 -567.382646057055 0 0 81 (C1) n - 1
REM
REM in /rds/project/t2_vol4/rds-t2-cs072/BORA/CARBON/from-Arr/AIRSS/Generating-Clusters/GAP-ML-2020/Only-C1/SD-CG/HFTN-CG
REM
REM
REM
REM
REM
REM ./C.cell (11c1c37f851c82e70ff6c80c92926a4b)
REM AIRSS Version 0.9.1 bugfix July 2018 build 013d7b7c2542+ Fri, 06 Jul 2018 19:26:36 +0100
REM compiler GCC version 9.3.0
REM options -cpp -mtune=generic -march=x86-64 -g -O0
REM seed -249247211 1918963689 -1099571857 653570123 289186493 -1915555661 -821436702 -385162881 690599802 1796545352 -1291333967 -1570535519 1312904307 1809148940 1113938688 1376611335 -1888160478 -136209488 -2015828867 1880195540 924217845 2037837005 -336452106 330289507 -1015088418 779797810 -591175505 1509200087 2132285069 1635404925 -601705529 788830216 1448992710
REM
CELL 1.54180   50.00000   50.00000   50.00000   90.00000   90.00000   90.00000
LATT -1
SFAC C  
C      1  0.5032040000000  0.5376470000000  0.5740040000000 1.0
C      1  0.5433980000000  0.5541490000000  0.4872440000000 1.0
C      1  0.5225560000000  0.5160940000000  0.5762550000000 1.0
C      1  0.4506960000000  0.4623460000000  0.4546510000000 1.0
C      1  0.4752970000000  0.4743460000000  0.4899750000000 1.0
C      1  0.4263040000000  0.4964390000000  0.4825260000000 1.0
C      1  0.5768320000000  0.5042370000000  0.5295050000000 1.0
C      1  0.5511830000000  0.5456240000000  0.5140380000000 1.0
C      1  0.4466700000000  0.4457830000000  0.5083330000000 1.0
C      1  0.5079440000000  0.5289150000000  0.4472980000000 1.0
C      1  0.5760840000000  0.4694540000000  0.4939980000000 1.0
C      1  0.5596380000000  0.4458420000000  0.4925670000000 1.0
C      1  0.5624780000000  0.4577410000000  0.5370570000000 1.0
C      1  0.5460100000000  0.4581180000000  0.4451330000000 1.0
C      1  0.4525920000000  0.5650480000000  0.4733890000000 1.0
C      1  0.5214170000000  0.4645670000000  0.5668680000000 1.0
C      1  0.5205270000000  0.5673550000000  0.4766060000000 1.0
C      1  0.4143000000000  0.4862360000000  0.5079550000000 1.0
C      1  0.4548580000000  0.5408000000000  0.5686820000000 1.0
C      1  0.4385870000000  0.5549330000000  0.5208010000000 1.0
C      1  0.4712830000000  0.4683390000000  0.4340180000000 1.0
C      1  0.4495860000000  0.4947520000000  0.5262680000000 1.0
C      1  0.4523800000000  0.5144860000000  0.4231160000000 1.0
C      1  0.5381160000000  0.5257050000000  0.4475770000000 1.0
C      1  0.5219080000000  0.4904260000000  0.4229740000000 1.0
C      1  0.5456740000000  0.5020360000000  0.4353580000000 1.0
C      1  0.5223480000000  0.4332040000000  0.5248830000000 1.0
C      1  0.5773100000000  0.4769590000000  0.5211870000000 1.0
C      1  0.5708570000000  0.5241490000000  0.5101700000000 1.0
C      1  0.4817930000000  0.4333990000000  0.5489360000000 1.0
C      1  0.4736670000000  0.4961430000000  0.4234490000000 1.0
C      1  0.5237980000000  0.4555080000000  0.4843310000000 1.0
C      1  0.4225880000000  0.5338940000000  0.5103170000000 1.0
C      1  0.5217930000000  0.4630070000000  0.4293460000000 1.0
C      1  0.4959130000000  0.5787880000000  0.4880370000000 1.0
C      1  0.5441460000000  0.4428570000000  0.4689550000000 1.0
C      1  0.4920670000000  0.5148080000000  0.4710320000000 1.0
C      1  0.5539080000000  0.5348960000000  0.4689110000000 1.0
C      1  0.4611790000000  0.4488150000000  0.4798260000000 1.0
C      1  0.5087840000000  0.4412500000000  0.5510190000000 1.0
C      1  0.4360320000000  0.5431940000000  0.4627280000000 1.0
C      1  0.4758460000000  0.5202570000000  0.4935600000000 1.0
C      1  0.5214390000000  0.4844620000000  0.4873290000000 1.0
C      1  0.4952280000000  0.4516070000000  0.4347180000000 1.0
C      1  0.4579680000000  0.4974240000000  0.4973370000000 1.0
C      1  0.5001710000000  0.5078060000000  0.4249890000000 1.0
C      1  0.4558590000000  0.5529460000000  0.5446600000000 1.0
C      1  0.5713590000000  0.5166760000000  0.4825210000000 1.0
C      1  0.4871990000000  0.5270230000000  0.5195710000000 1.0
C      1  0.4228560000000  0.5271780000000  0.4824740000000 1.0
C      1  0.4843290000000  0.5572820000000  0.5336880000000 1.0
C      1  0.4769430000000  0.5274480000000  0.5779460000000 1.0
C      1  0.4797090000000  0.5752170000000  0.5110120000000 1.0
C      1  0.4977010000000  0.4830050000000  0.5272620000000 1.0
C      1  0.5194450000000  0.4955490000000  0.5131880000000 1.0
C      1  0.4228010000000  0.5088880000000  0.5245360000000 1.0
C      1  0.4799150000000  0.5703970000000  0.4650590000000 1.0
C      1  0.4824900000000  0.5010970000000  0.5680010000000 1.0
C      1  0.4407290000000  0.5318820000000  0.4374950000000 1.0
C      1  0.5605670000000  0.4823440000000  0.4491770000000 1.0
C      1  0.5442720000000  0.5243910000000  0.5592480000000 1.0
C      1  0.4969190000000  0.4872790000000  0.4744480000000 1.0
C      1  0.5652730000000  0.5066350000000  0.5558080000000 1.0
C      1  0.4307880000000  0.4795180000000  0.4609400000000 1.0
C      1  0.5495750000000  0.4398320000000  0.5195850000000 1.0
C      1  0.5662250000000  0.4853720000000  0.5739000000000 1.0
C      1  0.4953920000000  0.4307750000000  0.4530150000000 1.0
C      1  0.5326820000000  0.5405870000000  0.5376580000000 1.0
C      1  0.5037940000000  0.5577640000000  0.4539490000000 1.0
C      1  0.4338290000000  0.4680760000000  0.5185700000000 1.0
C      1  0.5741810000000  0.4895080000000  0.4735840000000 1.0
C      1  0.5158030000000  0.5234230000000  0.5177060000000 1.0
C      1  0.5056400000000  0.4402990000000  0.5008900000000 1.0
C      1  0.5497680000000  0.4670730000000  0.5614700000000 1.0
C      1  0.5083930000000  0.5533230000000  0.5513270000000 1.0
C      1  0.4857290000000  0.4310600000000  0.4778640000000 1.0
C      1  0.4869770000000  0.4601900000000  0.5134330000000 1.0
C      1  0.4673800000000  0.4426100000000  0.5279280000000 1.0
C      1  0.4771270000000  0.5008860000000  0.5382670000000 1.0
C      1  0.4528570000000  0.5699120000000  0.5015110000000 1.0
C      1  0.5091360000000  0.4907100000000  0.5750520000000 1.0
END
