TITL C-72050-1764-2 -46.9345203811985 125000 -190.919097124216 0 0 29 (C1) n - 1
REM
REM in /rds/project/t2_vol4/rds-t2-cs072/BORA/CARBON/from-Arr/AIRSS/Generating-Clusters/GAP-ML-2020/Only-C1/SD-CG/HFTN-CG
REM
REM
REM
REM
REM
REM ./C.cell (11c1c37f851c82e70ff6c80c92926a4b)
REM AIRSS Version 0.9.1 bugfix July 2018 build 013d7b7c2542+ Fri, 06 Jul 2018 19:26:36 +0100
REM compiler GCC version 9.3.0
REM options -cpp -mtune=generic -march=x86-64 -g -O0
REM seed -1464630816 -1193333470 1116140253 -724653735 200090623 -1522075598 974752477 -1713113974 995618632 -458424644 -2121395739 1495303128 -1873906805 -2033890756 451801838 1465334563 1536053112 364478631 -1404282702 -1264658392 -1115687687 302513048 -206916896 -379206804 -1322863280 1792556957 426718800 467973526 -400768751 1454375511 -578137717 -1181425529 -981734812
REM
CELL 1.54180   50.00000   50.00000   50.00000   90.00000   90.00000   90.00000
LATT -1
SFAC C  
C      1  0.5374370000000  0.4928570000000  0.5177670000000 1.0
C      1  0.4908240000000  0.5169370000000  0.5391200000000 1.0
C      1  0.5093150000000  0.5341150000000  0.4679650000000 1.0
C      1  0.4989630000000  0.4369150000000  0.5039600000000 1.0
C      1  0.5040690000000  0.4701350000000  0.5450930000000 1.0
C      1  0.4661460000000  0.5562310000000  0.4712200000000 1.0
C      1  0.4843470000000  0.4911360000000  0.5374530000000 1.0
C      1  0.4902560000000  0.4466030000000  0.5478600000000 1.0
C      1  0.5111400000000  0.5342670000000  0.5329290000000 1.0
C      1  0.4806350000000  0.5353200000000  0.4620690000000 1.0
C      1  0.5077570000000  0.5567400000000  0.5129930000000 1.0
C      1  0.5427970000000  0.5295750000000  0.4992790000000 1.0
C      1  0.4663760000000  0.4743820000000  0.5181020000000 1.0
C      1  0.4689260000000  0.5742780000000  0.4897080000000 1.0
C      1  0.4950390000000  0.4903790000000  0.4596120000000 1.0
C      1  0.5176780000000  0.5064620000000  0.4682160000000 1.0
C      1  0.4496580000000  0.4971530000000  0.4740810000000 1.0
C      1  0.4712050000000  0.5078410000000  0.4598870000000 1.0
C      1  0.5384210000000  0.5026430000000  0.4890240000000 1.0
C      1  0.5367240000000  0.5208560000000  0.5257800000000 1.0
C      1  0.4922550000000  0.4631500000000  0.4602090000000 1.0
C      1  0.5337350000000  0.4479340000000  0.4841630000000 1.0
C      1  0.5042970000000  0.4469250000000  0.4774430000000 1.0
C      1  0.5288110000000  0.4689150000000  0.5295010000000 1.0
C      1  0.5282700000000  0.4461300000000  0.5110470000000 1.0
C      1  0.4549360000000  0.4833810000000  0.4954940000000 1.0
C      1  0.5233370000000  0.5480010000000  0.4892630000000 1.0
C      1  0.4868140000000  0.5733300000000  0.5089390000000 1.0
C      1  0.4798320000000  0.4474090000000  0.5218240000000 1.0
END
