TITL C-72045-1703-5 -0.319055004190926 125000 -107.165002638098 0 0 17 (C1) n - 1
REM
REM in /rds/project/t2_vol4/rds-t2-cs072/BORA/CARBON/from-Arr/AIRSS/Generating-Clusters/GAP-ML-2020/Only-C1/SD-CG/HFTN-CG
REM
REM
REM
REM
REM
REM ./C.cell (11c1c37f851c82e70ff6c80c92926a4b)
REM AIRSS Version 0.9.1 bugfix July 2018 build 013d7b7c2542+ Fri, 06 Jul 2018 19:26:36 +0100
REM compiler GCC version 9.3.0
REM options -cpp -mtune=generic -march=x86-64 -g -O0
REM seed -1660989198 -1218270189 750350460 -924474281 -1485840703 1469498422 1106826716 -1995144712 1136006890 1496296717 -1867767560 -2614824 637758487 -1805521981 -1274598258 -621014205 -1782684539 -165780012 -2140844840 -1119250892 1831894812 1001472584 1155316494 1679900742 1758584843 10865137 -1236323941 -604080446 248142848 -1013673316 1402835565 1775157976 565424967
REM
CELL 1.54180   50.00000   50.00000   50.00000   90.00000   90.00000   90.00000
LATT -1
SFAC C  
C      1  0.5174590000000  0.5165870000000  0.4675820000000 1.0
C      1  0.4565520000000  0.5420730000000  0.4689580000000 1.0
C      1  0.5293370000000  0.5295340000000  0.4864430000000 1.0
C      1  0.5312530000000  0.4637590000000  0.5025570000000 1.0
C      1  0.4934670000000  0.4674310000000  0.5286040000000 1.0
C      1  0.4781960000000  0.4865160000000  0.5333030000000 1.0
C      1  0.4407920000000  0.5031970000000  0.5105890000000 1.0
C      1  0.5136330000000  0.4527210000000  0.5215130000000 1.0
C      1  0.4647420000000  0.5082740000000  0.5230200000000 1.0
C      1  0.5561240000000  0.5003350000000  0.5081320000000 1.0
C      1  0.4288550000000  0.5015230000000  0.4881150000000 1.0
C      1  0.5485540000000  0.5246250000000  0.5029970000000 1.0
C      1  0.5199280000000  0.4688410000000  0.4772020000000 1.0
C      1  0.4800760000000  0.5298790000000  0.5117640000000 1.0
C      1  0.5571800000000  0.4745180000000  0.5089940000000 1.0
C      1  0.5096530000000  0.4919620000000  0.4724720000000 1.0
C      1  0.4741990000000  0.5382260000000  0.4877570000000 1.0
END
