TITL C-72044-1745-3 0.0442557952920061 125000 -692.971040194933 0 0 100 (C1) n - 1
REM
REM in /rds/project/t2_vol4/rds-t2-cs072/BORA/CARBON/from-Arr/AIRSS/Generating-Clusters/GAP-ML-2020/Only-C1/SD-CG/HFTN-CG
REM
REM
REM
REM
REM
REM ./C.cell (11c1c37f851c82e70ff6c80c92926a4b)
REM AIRSS Version 0.9.1 bugfix July 2018 build 013d7b7c2542+ Fri, 06 Jul 2018 19:26:36 +0100
REM compiler GCC version 9.3.0
REM options -cpp -mtune=generic -march=x86-64 -g -O0
REM seed -296334970 311654558 590061390 683545537 1788453698 -932847045 -3873904 1341063984 -1286127479 -1278998937 -1705722307 888294226 2002766139 -613917823 1790337378 -924867824 961517902 946765035 -1588902770 -548137940 -1402620192 1009762764 -1573533801 1136812284 -1646068338 870858226 -81662759 -1235540743 603019089 1739496095 664498516 -273211873 -1335279681
REM
CELL 1.54180   50.00000   50.00000   50.00000   90.00000   90.00000   90.00000
LATT -1
SFAC C  
C      1  0.4491630000000  0.5310460000000  0.5452620000000 1.0
C      1  0.5589400000000  0.4644930000000  0.5686970000000 1.0
C      1  0.4905580000000  0.4968360000000  0.5530400000000 1.0
C      1  0.4581130000000  0.5074130000000  0.4124980000000 1.0
C      1  0.4270500000000  0.5258200000000  0.5005890000000 1.0
C      1  0.4756120000000  0.4309840000000  0.4989910000000 1.0
C      1  0.4804420000000  0.5615380000000  0.4388320000000 1.0
C      1  0.4949700000000  0.5376230000000  0.5797580000000 1.0
C      1  0.5760840000000  0.5040520000000  0.4659810000000 1.0
C      1  0.4266710000000  0.4787390000000  0.4672700000000 1.0
C      1  0.5736760000000  0.4699920000000  0.4989460000000 1.0
C      1  0.5429390000000  0.5706680000000  0.5364080000000 1.0
C      1  0.5705430000000  0.5024850000000  0.5410970000000 1.0
C      1  0.5450610000000  0.5234010000000  0.4454380000000 1.0
C      1  0.4714440000000  0.5235760000000  0.5887510000000 1.0
C      1  0.5096860000000  0.5580030000000  0.4460400000000 1.0
C      1  0.5748570000000  0.5416400000000  0.5197060000000 1.0
C      1  0.4814880000000  0.4907440000000  0.5073930000000 1.0
C      1  0.4506370000000  0.4484390000000  0.4991640000000 1.0
C      1  0.5714290000000  0.5315100000000  0.4578450000000 1.0
C      1  0.5375570000000  0.4737890000000  0.4361560000000 1.0
C      1  0.4858870000000  0.5212950000000  0.5085200000000 1.0
C      1  0.4946320000000  0.4703080000000  0.4157810000000 1.0
C      1  0.5139300000000  0.5184060000000  0.5918900000000 1.0
C      1  0.4827530000000  0.4276370000000  0.5267660000000 1.0
C      1  0.4412990000000  0.4831930000000  0.5358110000000 1.0
C      1  0.4349290000000  0.5494930000000  0.4877510000000 1.0
C      1  0.5569740000000  0.4171520000000  0.5051880000000 1.0
C      1  0.5029970000000  0.5790310000000  0.5148970000000 1.0
C      1  0.4987110000000  0.4471450000000  0.4318340000000 1.0
C      1  0.4775800000000  0.5322830000000  0.4825710000000 1.0
C      1  0.5699450000000  0.5609810000000  0.4988020000000 1.0
C      1  0.5197440000000  0.4328880000000  0.4696680000000 1.0
C      1  0.5373890000000  0.5091430000000  0.5800080000000 1.0
C      1  0.5114300000000  0.4379570000000  0.5656610000000 1.0
C      1  0.5752900000000  0.4581010000000  0.5242740000000 1.0
C      1  0.4004520000000  0.4769380000000  0.5410290000000 1.0
C      1  0.4911260000000  0.4283960000000  0.4743650000000 1.0
C      1  0.4377760000000  0.4996490000000  0.4870100000000 1.0
C      1  0.5810080000000  0.5134730000000  0.5172760000000 1.0
C      1  0.4613560000000  0.5684600000000  0.4596010000000 1.0
C      1  0.4344220000000  0.5088150000000  0.4283190000000 1.0
C      1  0.4751430000000  0.5401380000000  0.5321730000000 1.0
C      1  0.4253610000000  0.5244420000000  0.5290910000000 1.0
C      1  0.4531890000000  0.5143450000000  0.5696770000000 1.0
C      1  0.5482860000000  0.5204500000000  0.5534970000000 1.0
C      1  0.5217080000000  0.5243080000000  0.5396720000000 1.0
C      1  0.5242120000000  0.4479940000000  0.4450370000000 1.0
C      1  0.4382960000000  0.4407300000000  0.5262960000000 1.0
C      1  0.5338610000000  0.4539350000000  0.5740490000000 1.0
C      1  0.4886420000000  0.4473930000000  0.5770980000000 1.0
C      1  0.5161290000000  0.5756200000000  0.5396850000000 1.0
C      1  0.5014460000000  0.5339700000000  0.4633320000000 1.0
C      1  0.4365100000000  0.5534750000000  0.4593270000000 1.0
C      1  0.5539150000000  0.5752340000000  0.4574220000000 1.0
C      1  0.4388670000000  0.4532810000000  0.4725170000000 1.0
C      1  0.5829780000000  0.4960950000000  0.4929710000000 1.0
C      1  0.5296790000000  0.5093150000000  0.4932430000000 1.0
C      1  0.5133490000000  0.5146680000000  0.4214520000000 1.0
C      1  0.5732540000000  0.4748290000000  0.5462970000000 1.0
C      1  0.4981820000000  0.4818240000000  0.5302380000000 1.0
C      1  0.5249860000000  0.5817780000000  0.4935620000000 1.0
C      1  0.5278670000000  0.5251090000000  0.4709720000000 1.0
C      1  0.5552990000000  0.4940160000000  0.4470060000000 1.0
C      1  0.5183060000000  0.4867870000000  0.4185150000000 1.0
C      1  0.5486740000000  0.5773000000000  0.5085860000000 1.0
C      1  0.4585870000000  0.5126370000000  0.4696220000000 1.0
C      1  0.4605730000000  0.4869160000000  0.5592910000000 1.0
C      1  0.4660090000000  0.4566390000000  0.5660200000000 1.0
C      1  0.4450290000000  0.5284940000000  0.4473820000000 1.0
C      1  0.4918990000000  0.5165980000000  0.4410490000000 1.0
C      1  0.5259340000000  0.4807610000000  0.4921690000000 1.0
C      1  0.4636440000000  0.5591400000000  0.4890270000000 1.0
C      1  0.4675860000000  0.4801460000000  0.4130580000000 1.0
C      1  0.4963860000000  0.5303980000000  0.5518060000000 1.0
C      1  0.5586290000000  0.4345050000000  0.5268770000000 1.0
C      1  0.4150290000000  0.4998980000000  0.5378610000000 1.0
C      1  0.5273330000000  0.5382160000000  0.4279590000000 1.0
C      1  0.4208690000000  0.4590000000000  0.5378160000000 1.0
C      1  0.5402940000000  0.4809150000000  0.5815420000000 1.0
C      1  0.4284710000000  0.4835110000000  0.4389880000000 1.0
C      1  0.5713450000000  0.5572620000000  0.4701460000000 1.0
C      1  0.4529530000000  0.4457580000000  0.4483530000000 1.0
C      1  0.4788420000000  0.4352640000000  0.4494310000000 1.0
C      1  0.4474120000000  0.4652590000000  0.4280560000000 1.0
C      1  0.5273850000000  0.5755420000000  0.4642670000000 1.0
C      1  0.5155170000000  0.5230800000000  0.5125890000000 1.0
C      1  0.4612730000000  0.4375410000000  0.5431710000000 1.0
C      1  0.4900090000000  0.5043090000000  0.5967450000000 1.0
C      1  0.5089590000000  0.4290780000000  0.5381590000000 1.0
C      1  0.5504470000000  0.4620430000000  0.4847500000000 1.0
C      1  0.4774600000000  0.5663900000000  0.5147720000000 1.0
C      1  0.5578270000000  0.5468870000000  0.5424890000000 1.0
C      1  0.4531430000000  0.4818750000000  0.5075110000000 1.0
C      1  0.4947720000000  0.4845250000000  0.4809040000000 1.0
C      1  0.5230380000000  0.4717170000000  0.5199320000000 1.0
C      1  0.5291870000000  0.4429360000000  0.5222690000000 1.0
C      1  0.4704100000000  0.5329480000000  0.4293760000000 1.0
C      1  0.5392590000000  0.4347300000000  0.4912400000000 1.0
C      1  0.4798050000000  0.4945110000000  0.4587780000000 1.0
END
