TITL C-72038-1777-4 35.9418404294218 125000 -738.83732216721 0 0 102 (C1) n - 1
REM
REM in /rds/project/t2_vol4/rds-t2-cs072/BORA/CARBON/from-Arr/AIRSS/Generating-Clusters/GAP-ML-2020/Only-C1/SD-CG/HFTN-CG
REM
REM
REM
REM
REM
REM ./C.cell (11c1c37f851c82e70ff6c80c92926a4b)
REM AIRSS Version 0.9.1 bugfix July 2018 build 013d7b7c2542+ Fri, 06 Jul 2018 19:26:36 +0100
REM compiler GCC version 9.3.0
REM options -cpp -mtune=generic -march=x86-64 -g -O0
REM seed -2030913529 -1652095542 -584853778 127524793 -834745403 2125217341 -1822318301 1572102836 -931243823 -226213717 -660018016 -424924121 -1197683197 1300023076 -199652855 1291526204 1858717164 -1040985915 668687690 1543153825 -891833185 547636824 549986858 -939071706 -2010998038 -756485462 -1349409266 -1773014701 -1451569480 -2130656358 653613068 -2072320191 439811066
REM
CELL 1.54180   50.00000   50.00000   50.00000   90.00000   90.00000   90.00000
LATT -1
SFAC C  
C      1  0.4683350000000  0.4534560000000  0.5331050000000 1.0
C      1  0.5386100000000  0.5386690000000  0.4262630000000 1.0
C      1  0.4474130000000  0.5653780000000  0.4970090000000 1.0
C      1  0.5076230000000  0.4832180000000  0.5243680000000 1.0
C      1  0.4090990000000  0.5173810000000  0.5197870000000 1.0
C      1  0.4860530000000  0.5731810000000  0.5242490000000 1.0
C      1  0.5571210000000  0.5892370000000  0.5077720000000 1.0
C      1  0.4790800000000  0.5186230000000  0.5772620000000 1.0
C      1  0.4877480000000  0.4945100000000  0.4420780000000 1.0
C      1  0.4571880000000  0.5366740000000  0.4310740000000 1.0
C      1  0.4510350000000  0.4569640000000  0.4831230000000 1.0
C      1  0.5705450000000  0.5686960000000  0.5194750000000 1.0
C      1  0.4363230000000  0.4621070000000  0.4595980000000 1.0
C      1  0.4402830000000  0.4945520000000  0.5609860000000 1.0
C      1  0.4732660000000  0.5789840000000  0.4988860000000 1.0
C      1  0.4618040000000  0.4872910000000  0.4305490000000 1.0
C      1  0.5278770000000  0.5332730000000  0.5644970000000 1.0
C      1  0.5735320000000  0.5117390000000  0.4491830000000 1.0
C      1  0.5211640000000  0.4952170000000  0.5856970000000 1.0
C      1  0.4805020000000  0.4486930000000  0.5604580000000 1.0
C      1  0.5120010000000  0.4076430000000  0.4972040000000 1.0
C      1  0.5259470000000  0.5138380000000  0.4229870000000 1.0
C      1  0.5661760000000  0.4529700000000  0.5111740000000 1.0
C      1  0.4366150000000  0.5549630000000  0.4718080000000 1.0
C      1  0.4395110000000  0.4478010000000  0.5364940000000 1.0
C      1  0.5277410000000  0.5017690000000  0.5166460000000 1.0
C      1  0.4187820000000  0.4839790000000  0.4639580000000 1.0
C      1  0.5193660000000  0.5844570000000  0.4787860000000 1.0
C      1  0.5284590000000  0.5015740000000  0.4875140000000 1.0
C      1  0.5381870000000  0.4241320000000  0.5332470000000 1.0
C      1  0.5757700000000  0.4739970000000  0.4935280000000 1.0
C      1  0.4259320000000  0.5342750000000  0.5340260000000 1.0
C      1  0.4383320000000  0.5226840000000  0.5567890000000 1.0
C      1  0.5696420000000  0.5275090000000  0.5428500000000 1.0
C      1  0.4837050000000  0.4407060000000  0.5106170000000 1.0
C      1  0.4648420000000  0.4926190000000  0.5763860000000 1.0
C      1  0.4076310000000  0.5188440000000  0.4913870000000 1.0
C      1  0.4991980000000  0.4670990000000  0.5005670000000 1.0
C      1  0.5064320000000  0.4157330000000  0.4708030000000 1.0
C      1  0.4846270000000  0.4989910000000  0.5313450000000 1.0
C      1  0.5642200000000  0.4672460000000  0.4663350000000 1.0
C      1  0.5295980000000  0.5858590000000  0.5057400000000 1.0
C      1  0.4437650000000  0.4207050000000  0.5339400000000 1.0
C      1  0.5576150000000  0.5536030000000  0.5388260000000 1.0
C      1  0.5374670000000  0.4159230000000  0.5063380000000 1.0
C      1  0.5137880000000  0.5748880000000  0.5278050000000 1.0
C      1  0.4788520000000  0.5728040000000  0.4521140000000 1.0
C      1  0.5619810000000  0.5364940000000  0.4411010000000 1.0
C      1  0.4630230000000  0.5360870000000  0.5615630000000 1.0
C      1  0.4903790000000  0.5833400000000  0.4758630000000 1.0
C      1  0.5604880000000  0.4869350000000  0.4459300000000 1.0
C      1  0.5855800000000  0.5483440000000  0.5062840000000 1.0
C      1  0.5161420000000  0.5273630000000  0.4859750000000 1.0
C      1  0.5241440000000  0.4514490000000  0.5753790000000 1.0
C      1  0.4087590000000  0.4896410000000  0.4898710000000 1.0
C      1  0.4202280000000  0.5312100000000  0.4698900000000 1.0
C      1  0.4625280000000  0.4827290000000  0.5225000000000 1.0
C      1  0.5163620000000  0.4766900000000  0.4788220000000 1.0
C      1  0.5077610000000  0.5197400000000  0.5795120000000 1.0
C      1  0.5059860000000  0.4480680000000  0.4402630000000 1.0
C      1  0.4839850000000  0.5384610000000  0.4229180000000 1.0
C      1  0.4935260000000  0.4137060000000  0.5203350000000 1.0
C      1  0.4323280000000  0.4772590000000  0.5363720000000 1.0
C      1  0.4779770000000  0.4416830000000  0.4422800000000 1.0
C      1  0.4965890000000  0.5618210000000  0.4331500000000 1.0
C      1  0.4695320000000  0.4803670000000  0.4930540000000 1.0
C      1  0.4981050000000  0.5149080000000  0.4240770000000 1.0
C      1  0.5857360000000  0.5008850000000  0.4977020000000 1.0
C      1  0.4449120000000  0.5110220000000  0.4324780000000 1.0
C      1  0.4538780000000  0.5583810000000  0.4498770000000 1.0
C      1  0.4792330000000  0.4244150000000  0.4649120000000 1.0
C      1  0.4805290000000  0.4695280000000  0.5797340000000 1.0
C      1  0.4705500000000  0.5494290000000  0.5350270000000 1.0
C      1  0.5113830000000  0.4757910000000  0.4469440000000 1.0
C      1  0.4114720000000  0.4881100000000  0.5191810000000 1.0
C      1  0.5076430000000  0.4714660000000  0.5878460000000 1.0
C      1  0.5856080000000  0.5172130000000  0.4738510000000 1.0
C      1  0.4664690000000  0.4346270000000  0.4871610000000 1.0
C      1  0.5243430000000  0.4315740000000  0.4555610000000 1.0
C      1  0.5242300000000  0.5618210000000  0.4359390000000 1.0
C      1  0.5496150000000  0.4422750000000  0.4669700000000 1.0
C      1  0.4873990000000  0.5258000000000  0.5197620000000 1.0
C      1  0.5474300000000  0.4623140000000  0.5622340000000 1.0
C      1  0.4646920000000  0.4054950000000  0.5288490000000 1.0
C      1  0.5549040000000  0.4478470000000  0.5379350000000 1.0
C      1  0.5127350000000  0.4183400000000  0.5426720000000 1.0
C      1  0.4561130000000  0.4608380000000  0.4392170000000 1.0
C      1  0.5285650000000  0.5517330000000  0.5405830000000 1.0
C      1  0.5176730000000  0.5296800000000  0.5187190000000 1.0
C      1  0.4440690000000  0.5526390000000  0.5221260000000 1.0
C      1  0.5374630000000  0.5732010000000  0.4585350000000 1.0
C      1  0.5520860000000  0.5159460000000  0.5618050000000 1.0
C      1  0.5051340000000  0.4349280000000  0.5629920000000 1.0
C      1  0.5816640000000  0.5453580000000  0.4790860000000 1.0
C      1  0.4239140000000  0.5095590000000  0.4511640000000 1.0
C      1  0.5628320000000  0.5571310000000  0.4608430000000 1.0
C      1  0.4875530000000  0.5244430000000  0.4876140000000 1.0
C      1  0.5546820000000  0.4331850000000  0.4931810000000 1.0
C      1  0.4756800000000  0.5028950000000  0.4752470000000 1.0
C      1  0.5462750000000  0.4902220000000  0.5714320000000 1.0
C      1  0.5843330000000  0.5216250000000  0.5190030000000 1.0
C      1  0.5349930000000  0.4895320000000  0.4340450000000 1.0
END
