TITL C-72056-1815-2 -0.0546274108009847 125000 -612.451390136422 0 0 89 (C1) n - 1
REM
REM in /rds/project/t2_vol4/rds-t2-cs072/BORA/CARBON/from-Arr/AIRSS/Generating-Clusters/GAP-ML-2020/Only-C1/SD-CG/HFTN-CG
REM
REM
REM
REM
REM
REM ./C.cell (11c1c37f851c82e70ff6c80c92926a4b)
REM AIRSS Version 0.9.1 bugfix July 2018 build 013d7b7c2542+ Fri, 06 Jul 2018 19:26:36 +0100
REM compiler GCC version 9.3.0
REM options -cpp -mtune=generic -march=x86-64 -g -O0
REM seed -1856011606 -208632292 -1786966942 214652321 -1939473929 -1749271690 -97328597 579138298 1770405273 1892456755 681700355 -1153283473 1981679553 1706285632 -797880759 -1162132131 -756425308 661121573 768110943 440392175 704346709 -799333595 -886166561 817159318 1294433058 454549171 614611370 -70449664 -671390770 93953084 -222137012 -2097254928 -834934601
REM
CELL 1.54180   50.00000   50.00000   50.00000   90.00000   90.00000   90.00000
LATT -1
SFAC C  
C      1  0.5280090000000  0.4766550000000  0.5265780000000 1.0
C      1  0.4815940000000  0.4588010000000  0.5150170000000 1.0
C      1  0.5566500000000  0.5541260000000  0.4838910000000 1.0
C      1  0.4586580000000  0.4631690000000  0.4942000000000 1.0
C      1  0.4395780000000  0.5531650000000  0.5636890000000 1.0
C      1  0.5747890000000  0.4836040000000  0.5391400000000 1.0
C      1  0.5796130000000  0.5089400000000  0.5252060000000 1.0
C      1  0.4345420000000  0.5280400000000  0.5616310000000 1.0
C      1  0.4614300000000  0.4178570000000  0.5206950000000 1.0
C      1  0.4326070000000  0.5215820000000  0.4560720000000 1.0
C      1  0.5592690000000  0.5316970000000  0.4662750000000 1.0
C      1  0.4560480000000  0.5620090000000  0.5420600000000 1.0
C      1  0.5331630000000  0.5686140000000  0.5301300000000 1.0
C      1  0.4920750000000  0.5290330000000  0.4568930000000 1.0
C      1  0.4874660000000  0.4840590000000  0.4330610000000 1.0
C      1  0.5385030000000  0.5155600000000  0.5622790000000 1.0
C      1  0.4870240000000  0.4986530000000  0.4615660000000 1.0
C      1  0.5034900000000  0.4222760000000  0.4649210000000 1.0
C      1  0.5484350000000  0.4231830000000  0.4959030000000 1.0
C      1  0.5051980000000  0.4071830000000  0.5091250000000 1.0
C      1  0.5310990000000  0.5641770000000  0.4797180000000 1.0
C      1  0.4812940000000  0.4548710000000  0.4348620000000 1.0
C      1  0.4598990000000  0.5085740000000  0.5047730000000 1.0
C      1  0.5168510000000  0.4839680000000  0.4263180000000 1.0
C      1  0.4470350000000  0.5658630000000  0.4720460000000 1.0
C      1  0.4324490000000  0.4937650000000  0.4665630000000 1.0
C      1  0.5379990000000  0.5018830000000  0.4358120000000 1.0
C      1  0.4567460000000  0.5752980000000  0.4973580000000 1.0
C      1  0.5221320000000  0.4155780000000  0.4871080000000 1.0
C      1  0.4768380000000  0.4197220000000  0.4755470000000 1.0
C      1  0.5307080000000  0.4309270000000  0.5432410000000 1.0
C      1  0.4558390000000  0.4534920000000  0.4470570000000 1.0
C      1  0.5324080000000  0.4591870000000  0.5510700000000 1.0
C      1  0.4584530000000  0.4421750000000  0.4730000000000 1.0
C      1  0.4902130000000  0.5784320000000  0.4676930000000 1.0
C      1  0.4731290000000  0.4704100000000  0.5406510000000 1.0
C      1  0.5362480000000  0.5573560000000  0.5551950000000 1.0
C      1  0.5537820000000  0.4868620000000  0.4538860000000 1.0
C      1  0.4184640000000  0.4897340000000  0.4937430000000 1.0
C      1  0.4509840000000  0.4878360000000  0.5316700000000 1.0
C      1  0.5574960000000  0.4738730000000  0.5591200000000 1.0
C      1  0.4882840000000  0.5137020000000  0.5041730000000 1.0
C      1  0.5783080000000  0.4951110000000  0.4991680000000 1.0
C      1  0.5402650000000  0.4905450000000  0.5753630000000 1.0
C      1  0.5552110000000  0.5500460000000  0.5134460000000 1.0
C      1  0.5324270000000  0.5107670000000  0.4878790000000 1.0
C      1  0.4677180000000  0.5677480000000  0.4536120000000 1.0
C      1  0.5153840000000  0.5701180000000  0.4579980000000 1.0
C      1  0.5157990000000  0.4676080000000  0.4810260000000 1.0
C      1  0.4783870000000  0.5093770000000  0.5623470000000 1.0
C      1  0.5764420000000  0.4690940000000  0.5127160000000 1.0
C      1  0.5670870000000  0.4432660000000  0.5073610000000 1.0
C      1  0.5404670000000  0.5293630000000  0.4437740000000 1.0
C      1  0.5620390000000  0.5039920000000  0.4762700000000 1.0
C      1  0.5192830000000  0.5380740000000  0.5670870000000 1.0
C      1  0.4907710000000  0.5362180000000  0.4864200000000 1.0
C      1  0.4421040000000  0.4779680000000  0.4430730000000 1.0
C      1  0.5017270000000  0.5154670000000  0.5304790000000 1.0
C      1  0.5322650000000  0.5280440000000  0.5108920000000 1.0
C      1  0.5166330000000  0.5438420000000  0.4471920000000 1.0
C      1  0.4846370000000  0.5821940000000  0.4962760000000 1.0
C      1  0.5059630000000  0.4209080000000  0.5341990000000 1.0
C      1  0.5026940000000  0.5690990000000  0.5195180000000 1.0
C      1  0.5279680000000  0.5059810000000  0.5325000000000 1.0
C      1  0.5130600000000  0.5492930000000  0.4995030000000 1.0
C      1  0.4329450000000  0.5415710000000  0.4754490000000 1.0
C      1  0.5580770000000  0.5369120000000  0.5564720000000 1.0
C      1  0.5508740000000  0.4274970000000  0.5233190000000 1.0
C      1  0.5253330000000  0.4572010000000  0.4352500000000 1.0
C      1  0.4450240000000  0.5587060000000  0.5162590000000 1.0
C      1  0.4712810000000  0.5422800000000  0.4412850000000 1.0
C      1  0.4790490000000  0.4356530000000  0.5341590000000 1.0
C      1  0.5041760000000  0.4390430000000  0.4411750000000 1.0
C      1  0.4371590000000  0.5317260000000  0.5033270000000 1.0
C      1  0.5398240000000  0.4626270000000  0.4588690000000 1.0
C      1  0.4591600000000  0.4960410000000  0.4284190000000 1.0
C      1  0.5073060000000  0.4950050000000  0.4838780000000 1.0
C      1  0.4941880000000  0.5339350000000  0.5536950000000 1.0
C      1  0.5158570000000  0.4750350000000  0.5703080000000 1.0
C      1  0.5097830000000  0.4647120000000  0.5074000000000 1.0
C      1  0.4605120000000  0.4914190000000  0.4797210000000 1.0
C      1  0.4520860000000  0.5226280000000  0.4356130000000 1.0
C      1  0.4772760000000  0.4073000000000  0.5007290000000 1.0
C      1  0.4506700000000  0.5066940000000  0.5544800000000 1.0
C      1  0.4145140000000  0.5128710000000  0.5064100000000 1.0
C      1  0.4893380000000  0.4828920000000  0.5622300000000 1.0
C      1  0.5726930000000  0.5360070000000  0.5324070000000 1.0
C      1  0.4355780000000  0.4733010000000  0.5106900000000 1.0
C      1  0.4841690000000  0.5589280000000  0.5414250000000 1.0
END
