TITL C-72048-1975-2 -0.024663365297018 125000 -146.170281725575 0 0 23 (C1) n - 1
REM
REM in /rds/project/t2_vol4/rds-t2-cs072/BORA/CARBON/from-Arr/AIRSS/Generating-Clusters/GAP-ML-2020/Only-C1/SD-CG/HFTN-CG
REM
REM
REM
REM
REM
REM ./C.cell (11c1c37f851c82e70ff6c80c92926a4b)
REM AIRSS Version 0.9.1 bugfix July 2018 build 013d7b7c2542+ Fri, 06 Jul 2018 19:26:36 +0100
REM compiler GCC version 9.3.0
REM options -cpp -mtune=generic -march=x86-64 -g -O0
REM seed 1741011365 1436302158 1029595764 -1094212003 -876011869 -758841140 -989459031 -543509592 670036969 -537981815 -2054011712 -435409874 1647134820 -267636364 -705925924 1170634385 -1000359948 -814857688 1532613888 416806965 1641235515 1888127139 -243209779 1792116124 533064531 -2084927483 -1336242818 1827121477 1916632046 1722705109 -534139076 -1855964021 1638098605
REM
CELL 1.54180   50.00000   50.00000   50.00000   90.00000   90.00000   90.00000
LATT -1
SFAC C  
C      1  0.5348570000000  0.5080180000000  0.5226030000000 1.0
C      1  0.4747550000000  0.5405210000000  0.5223180000000 1.0
C      1  0.4572070000000  0.4940340000000  0.4796660000000 1.0
C      1  0.4909290000000  0.4904490000000  0.5333610000000 1.0
C      1  0.5282230000000  0.4625090000000  0.5232980000000 1.0
C      1  0.5213380000000  0.4596120000000  0.4959720000000 1.0
C      1  0.4789990000000  0.4487470000000  0.5054150000000 1.0
C      1  0.4958310000000  0.5155320000000  0.4914270000000 1.0
C      1  0.4632610000000  0.5377740000000  0.4582830000000 1.0
C      1  0.5445340000000  0.5209220000000  0.4809700000000 1.0
C      1  0.4577300000000  0.4938940000000  0.5078940000000 1.0
C      1  0.4504120000000  0.5168410000000  0.4669880000000 1.0
C      1  0.5230110000000  0.5222530000000  0.4989610000000 1.0
C      1  0.4804230000000  0.5387990000000  0.4796720000000 1.0
C      1  0.5667070000000  0.5081660000000  0.4863580000000 1.0
C      1  0.4863380000000  0.4896140000000  0.4785470000000 1.0
C      1  0.5182800000000  0.4875330000000  0.5323340000000 1.0
C      1  0.4750530000000  0.5554630000000  0.5006740000000 1.0
C      1  0.4732670000000  0.4709500000000  0.5201840000000 1.0
C      1  0.4790200000000  0.5131020000000  0.5175210000000 1.0
C      1  0.5561490000000  0.4935620000000  0.5072890000000 1.0
C      1  0.5476670000000  0.4674070000000  0.5031720000000 1.0
C      1  0.4960080000000  0.4642990000000  0.4870940000000 1.0
END
