TITL C-72041-1759-5 223.986211054715 125000 -585.738001412237 0 0 83 (C1) n - 1
REM
REM in /rds/project/t2_vol4/rds-t2-cs072/BORA/CARBON/from-Arr/AIRSS/Generating-Clusters/GAP-ML-2020/Only-C1/SD-CG/HFTN-CG
REM
REM
REM
REM
REM
REM ./C.cell (11c1c37f851c82e70ff6c80c92926a4b)
REM AIRSS Version 0.9.1 bugfix July 2018 build 013d7b7c2542+ Fri, 06 Jul 2018 19:26:36 +0100
REM compiler GCC version 9.3.0
REM options -cpp -mtune=generic -march=x86-64 -g -O0
REM seed -927280310 -14703363 1370799514 32872006 -1061006656 1749013276 -2020257880 2057149217 458295024 73823186 -114192230 -974479599 1283908136 -1871929955 1724338726 -1179346203 614365276 -946945104 1024549377 -1301118315 113094304 1689624085 -211128587 1392675769 -1177719282 -301862154 -747163411 1678181435 2005965949 -205482397 -239831547 -1968031623 -1837282600
REM
CELL 1.54180   50.00000   50.00000   50.00000   90.00000   90.00000   90.00000
LATT -1
SFAC C  
C      1  0.4681160000000  0.5340270000000  0.5162440000000 1.0
C      1  0.5559620000000  0.5245580000000  0.5274090000000 1.0
C      1  0.4576670000000  0.5102910000000  0.5718400000000 1.0
C      1  0.4272780000000  0.5083040000000  0.4725570000000 1.0
C      1  0.4444490000000  0.5596280000000  0.4721330000000 1.0
C      1  0.4395580000000  0.4629780000000  0.4610120000000 1.0
C      1  0.5403450000000  0.4742710000000  0.4417500000000 1.0
C      1  0.5611230000000  0.5430100000000  0.5058150000000 1.0
C      1  0.4811940000000  0.4883550000000  0.4783960000000 1.0
C      1  0.4877000000000  0.4389110000000  0.5449670000000 1.0
C      1  0.4489790000000  0.5433510000000  0.4488160000000 1.0
C      1  0.5421510000000  0.5171670000000  0.5675810000000 1.0
C      1  0.5599480000000  0.4454150000000  0.4792560000000 1.0
C      1  0.4737540000000  0.5512260000000  0.4382950000000 1.0
C      1  0.4832590000000  0.4224510000000  0.4994280000000 1.0
C      1  0.5114360000000  0.5456890000000  0.5047660000000 1.0
C      1  0.4814200000000  0.5128650000000  0.4965950000000 1.0
C      1  0.4578030000000  0.4987280000000  0.4340810000000 1.0
C      1  0.5389500000000  0.5037790000000  0.4433550000000 1.0
C      1  0.5282310000000  0.4320180000000  0.5149120000000 1.0
C      1  0.5639530000000  0.5080870000000  0.5522350000000 1.0
C      1  0.4844870000000  0.5420200000000  0.5432390000000 1.0
C      1  0.5454230000000  0.4609920000000  0.5578040000000 1.0
C      1  0.5228190000000  0.4997850000000  0.5794940000000 1.0
C      1  0.4761680000000  0.4942330000000  0.5879830000000 1.0
C      1  0.4325610000000  0.4749870000000  0.5092500000000 1.0
C      1  0.4757840000000  0.4684810000000  0.5782020000000 1.0
C      1  0.5710790000000  0.5330990000000  0.4801930000000 1.0
C      1  0.5150630000000  0.5655030000000  0.4522210000000 1.0
C      1  0.4564700000000  0.4330220000000  0.4970100000000 1.0
C      1  0.5750030000000  0.4630600000000  0.4967020000000 1.0
C      1  0.4817460000000  0.5598100000000  0.5051760000000 1.0
C      1  0.5653550000000  0.4805490000000  0.5486060000000 1.0
C      1  0.4866660000000  0.5707660000000  0.5329410000000 1.0
C      1  0.5003690000000  0.4267990000000  0.5219670000000 1.0
C      1  0.5127220000000  0.4618340000000  0.4466080000000 1.0
C      1  0.4458150000000  0.4497890000000  0.5168030000000 1.0
C      1  0.5255760000000  0.4902200000000  0.4911700000000 1.0
C      1  0.4976930000000  0.5123730000000  0.5844580000000 1.0
C      1  0.5136970000000  0.5032720000000  0.5310520000000 1.0
C      1  0.5362360000000  0.5362530000000  0.5467070000000 1.0
C      1  0.4569580000000  0.4714330000000  0.4394210000000 1.0
C      1  0.5325240000000  0.5845540000000  0.5193370000000 1.0
C      1  0.4911990000000  0.4917940000000  0.5195370000000 1.0
C      1  0.4935690000000  0.4234910000000  0.4725360000000 1.0
C      1  0.5429340000000  0.5306220000000  0.4364790000000 1.0
C      1  0.4218000000000  0.5565610000000  0.4862100000000 1.0
C      1  0.4397880000000  0.5239680000000  0.5169330000000 1.0
C      1  0.5105210000000  0.5833230000000  0.5326680000000 1.0
C      1  0.4856480000000  0.5061390000000  0.4316010000000 1.0
C      1  0.5182180000000  0.5445420000000  0.4326530000000 1.0
C      1  0.4983060000000  0.4549180000000  0.5679560000000 1.0
C      1  0.4263240000000  0.5298220000000  0.4923600000000 1.0
C      1  0.4999270000000  0.4910750000000  0.4535300000000 1.0
C      1  0.5562510000000  0.5462680000000  0.4583000000000 1.0
C      1  0.5599000000000  0.4716110000000  0.5203260000000 1.0
C      1  0.4507690000000  0.4388500000000  0.4699290000000 1.0
C      1  0.5808030000000  0.5080950000000  0.4746830000000 1.0
C      1  0.5211390000000  0.5065140000000  0.4684820000000 1.0
C      1  0.5790220000000  0.4818690000000  0.4740890000000 1.0
C      1  0.4867600000000  0.5691280000000  0.4563920000000 1.0
C      1  0.5386280000000  0.5650980000000  0.4692640000000 1.0
C      1  0.5230600000000  0.4695900000000  0.5727900000000 1.0
C      1  0.4785350000000  0.5306330000000  0.5693570000000 1.0
C      1  0.5057870000000  0.5242500000000  0.4860370000000 1.0
C      1  0.4926140000000  0.5330150000000  0.4272460000000 1.0
C      1  0.5390380000000  0.4975150000000  0.5157100000000 1.0
C      1  0.4705390000000  0.5706840000000  0.4799360000000 1.0
C      1  0.4740270000000  0.4331380000000  0.4546320000000 1.0
C      1  0.5617400000000  0.4638120000000  0.4567020000000 1.0
C      1  0.5169730000000  0.4371780000000  0.4660510000000 1.0
C      1  0.4293060000000  0.4812830000000  0.4809840000000 1.0
C      1  0.4350840000000  0.4975180000000  0.5274530000000 1.0
C      1  0.5380210000000  0.5625480000000  0.4999200000000 1.0
C      1  0.5111770000000  0.5334400000000  0.5324310000000 1.0
C      1  0.4994030000000  0.4759760000000  0.4971260000000 1.0
C      1  0.5359110000000  0.4339220000000  0.4867770000000 1.0
C      1  0.5447200000000  0.4475230000000  0.5317070000000 1.0
C      1  0.4407440000000  0.5163250000000  0.4486060000000 1.0
C      1  0.4434700000000  0.4920730000000  0.5542520000000 1.0
C      1  0.4535480000000  0.4662070000000  0.5606810000000 1.0
C      1  0.4814860000000  0.4545870000000  0.4384590000000 1.0
C      1  0.4598200000000  0.4471540000000  0.5414300000000 1.0
END
