TITL C-72069-1709-9 -40.444823111142 125000 -235.23830427694 0 0 35 (C1) n - 1
REM
REM in /rds/project/t2_vol4/rds-t2-cs072/BORA/CARBON/from-Arr/AIRSS/Generating-Clusters/GAP-ML-2020/Only-C1/SD-CG/HFTN-CG
REM
REM
REM
REM
REM
REM ./C.cell (11c1c37f851c82e70ff6c80c92926a4b)
REM AIRSS Version 0.9.1 bugfix July 2018 build 013d7b7c2542+ Fri, 06 Jul 2018 19:26:36 +0100
REM compiler GCC version 9.3.0
REM options -cpp -mtune=generic -march=x86-64 -g -O0
REM seed 945434243 489886216 1394549692 -1709191929 1729441493 -158980326 -1536084869 1816478828 -747286712 -518900580 -1436953840 992797861 -1795532107 -1950934433 1927944932 -1961957627 2008508282 1024078703 -876949582 585366237 806212130 -1668929983 317258287 -983678380 -2011068184 -1177355917 -1278628250 1028967667 -1147007125 -1382691428 -653777380 -802966820 -827973
REM
CELL 1.54180   50.00000   50.00000   50.00000   90.00000   90.00000   90.00000
LATT -1
SFAC C  
C      1  0.5245340000000  0.5341430000000  0.4727520000000 1.0
C      1  0.5585710000000  0.5150260000000  0.5462060000000 1.0
C      1  0.4785520000000  0.4643580000000  0.5199430000000 1.0
C      1  0.5130720000000  0.4973300000000  0.5377990000000 1.0
C      1  0.4394050000000  0.4977060000000  0.5416590000000 1.0
C      1  0.4518090000000  0.5167360000000  0.5545010000000 1.0
C      1  0.5056850000000  0.5414480000000  0.4918390000000 1.0
C      1  0.4408800000000  0.5098140000000  0.4877670000000 1.0
C      1  0.4786780000000  0.4685880000000  0.4727710000000 1.0
C      1  0.5142050000000  0.5438700000000  0.5201840000000 1.0
C      1  0.4992500000000  0.5231100000000  0.5365200000000 1.0
C      1  0.5434270000000  0.5195520000000  0.4663450000000 1.0
C      1  0.4268330000000  0.4819070000000  0.5254700000000 1.0
C      1  0.5001940000000  0.4504330000000  0.4697720000000 1.0
C      1  0.4352640000000  0.5328190000000  0.5037710000000 1.0
C      1  0.5257430000000  0.4597730000000  0.5112450000000 1.0
C      1  0.5373360000000  0.5532760000000  0.5306230000000 1.0
C      1  0.5522250000000  0.4929790000000  0.4666370000000 1.0
C      1  0.4634610000000  0.4681160000000  0.4975730000000 1.0
C      1  0.5559660000000  0.5414660000000  0.5448890000000 1.0
C      1  0.5422640000000  0.4962360000000  0.5361150000000 1.0
C      1  0.5485610000000  0.4771630000000  0.5137810000000 1.0
C      1  0.4658180000000  0.5157430000000  0.4735450000000 1.0
C      1  0.5613770000000  0.4831050000000  0.4908860000000 1.0
C      1  0.5214850000000  0.4450240000000  0.4871620000000 1.0
C      1  0.4783400000000  0.5366510000000  0.4885280000000 1.0
C      1  0.4605730000000  0.5405780000000  0.5124470000000 1.0
C      1  0.4792610000000  0.4943000000000  0.4595460000000 1.0
C      1  0.4979800000000  0.4973010000000  0.4385080000000 1.0
C      1  0.4711140000000  0.5287760000000  0.5366540000000 1.0
C      1  0.5039670000000  0.4720390000000  0.5255060000000 1.0
C      1  0.5269530000000  0.4519160000000  0.4600220000000 1.0
C      1  0.5200770000000  0.4888900000000  0.4299390000000 1.0
C      1  0.4395210000000  0.4838380000000  0.5000800000000 1.0
C      1  0.5376200000000  0.4759910000000  0.4490170000000 1.0
END
