TITL C-73833-7285-10 0.0256331752326971 125000 -245.015635721459 0 0 37 (C1) n - 1
REM
REM in /rds/project/t2_vol4/rds-t2-cs072/BORA/CARBON/from-Arr/AIRSS/Generating-Clusters/GAP-ML-2020/Only-C1/SD-CG/HFTN-CG
REM
REM
REM
REM
REM
REM ./C.cell (11c1c37f851c82e70ff6c80c92926a4b)
REM AIRSS Version 0.9.1 bugfix July 2018 build 013d7b7c2542+ Fri, 06 Jul 2018 19:26:36 +0100
REM compiler GCC version 9.3.0
REM options -cpp -mtune=generic -march=x86-64 -g -O0
REM seed 513708251 -789117210 -2035775542 750004762 -1549274852 1589690703 -2068921523 1235201923 -2079865830 -747433210 808532967 1744624932 -681283736 397910876 2028987223 -2082230846 -118509003 990577718 1914402903 -1180659602 -652088312 -957117108 -549195429 729871034 -422407787 2120000668 957921828 -1111027806 660048016 -1554473192 1111997311 -1731866169 1097974359
REM
CELL 1.54180   50.00000   50.00000   50.00000   90.00000   90.00000   90.00000
LATT -1
SFAC C  
C      1  0.5476350000000  0.5227220000000  0.5083850000000 1.0
C      1  0.5036220000000  0.4753750000000  0.4335480000000 1.0
C      1  0.5532830000000  0.4947430000000  0.5062450000000 1.0
C      1  0.5497270000000  0.5411300000000  0.4858030000000 1.0
C      1  0.5359860000000  0.4726630000000  0.4652530000000 1.0
C      1  0.4837490000000  0.5245690000000  0.5354190000000 1.0
C      1  0.5230330000000  0.4583160000000  0.5081810000000 1.0
C      1  0.5205910000000  0.5173980000000  0.5127170000000 1.0
C      1  0.5239000000000  0.5027870000000  0.5592190000000 1.0
C      1  0.4401850000000  0.4780840000000  0.4881940000000 1.0
C      1  0.5087790000000  0.5740630000000  0.4889060000000 1.0
C      1  0.4906610000000  0.4867150000000  0.4811300000000 1.0
C      1  0.4488060000000  0.4964290000000  0.5069140000000 1.0
C      1  0.5288730000000  0.4779230000000  0.5490100000000 1.0
C      1  0.5146180000000  0.4679130000000  0.4834810000000 1.0
C      1  0.5028550000000  0.4494430000000  0.5250650000000 1.0
C      1  0.4520030000000  0.5240800000000  0.4960920000000 1.0
C      1  0.4895830000000  0.5606500000000  0.5001370000000 1.0
C      1  0.4767970000000  0.4610450000000  0.5228720000000 1.0
C      1  0.4786580000000  0.4707120000000  0.5509590000000 1.0
C      1  0.4362890000000  0.5224160000000  0.4734670000000 1.0
C      1  0.5283290000000  0.4721160000000  0.4386430000000 1.0
C      1  0.5450340000000  0.5188690000000  0.4687980000000 1.0
C      1  0.5423920000000  0.4738600000000  0.5229730000000 1.0
C      1  0.4687920000000  0.4755110000000  0.4991380000000 1.0
C      1  0.5240030000000  0.5538750000000  0.4798020000000 1.0
C      1  0.4686080000000  0.4928680000000  0.5619550000000 1.0
C      1  0.5532040000000  0.4921360000000  0.4769930000000 1.0
C      1  0.4789230000000  0.5340680000000  0.5056800000000 1.0
C      1  0.5171230000000  0.5281620000000  0.4683090000000 1.0
C      1  0.5096770000000  0.5144700000000  0.5380600000000 1.0
C      1  0.4566220000000  0.4902400000000  0.4441060000000 1.0
C      1  0.4411790000000  0.4958700000000  0.4654980000000 1.0
C      1  0.5005980000000  0.5154950000000  0.4899900000000 1.0
C      1  0.4828800000000  0.4849220000000  0.4509910000000 1.0
C      1  0.5064380000000  0.4601200000000  0.5517100000000 1.0
C      1  0.4665670000000  0.5182390000000  0.5563550000000 1.0
END
