TITL C-73786-9258-10 -0.153796700551681 125000 -820.415751045846 0 0 117 (C1) n - 1
REM
REM in /rds/project/t2_vol4/rds-t2-cs072/BORA/CARBON/from-Arr/AIRSS/Generating-Clusters/GAP-ML-2020/Only-C1/SD-CG/HFTN-CG
REM
REM
REM
REM
REM
REM ./C.cell (11c1c37f851c82e70ff6c80c92926a4b)
REM AIRSS Version 0.9.1 bugfix July 2018 build 013d7b7c2542+ Fri, 06 Jul 2018 19:26:36 +0100
REM compiler GCC version 9.3.0
REM options -cpp -mtune=generic -march=x86-64 -g -O0
REM seed 652118985 949653223 -252198014 882368541 -422283553 1175258958 -355498765 1451371836 1496895853 -473364252 1163756026 156191219 612806360 -1579273162 1318976962 734610166 -60884566 546569146 -119174631 1037600477 -950935922 -2050130329 1707766761 932089380 1208764384 -444620739 -1460073216 178495643 431295938 770322218 453193183 1135386668 -495855179
REM
CELL 1.54180   50.00000   50.00000   50.00000   90.00000   90.00000   90.00000
LATT -1
SFAC C  
C      1  0.5476210000000  0.5429970000000  0.5636220000000 1.0
C      1  0.4566440000000  0.4930240000000  0.5857740000000 1.0
C      1  0.5147670000000  0.4629480000000  0.4923050000000 1.0
C      1  0.4415810000000  0.5561380000000  0.5587010000000 1.0
C      1  0.4326860000000  0.4631860000000  0.4551710000000 1.0
C      1  0.5815790000000  0.4613150000000  0.5113220000000 1.0
C      1  0.5228970000000  0.4342230000000  0.5023630000000 1.0
C      1  0.4710640000000  0.5434490000000  0.4427980000000 1.0
C      1  0.4466560000000  0.4691980000000  0.5394900000000 1.0
C      1  0.5152120000000  0.4840510000000  0.4166510000000 1.0
C      1  0.4968940000000  0.5243340000000  0.5315760000000 1.0
C      1  0.5316560000000  0.4617480000000  0.4049630000000 1.0
C      1  0.5413510000000  0.5399930000000  0.5049680000000 1.0
C      1  0.5581020000000  0.5202730000000  0.5203050000000 1.0
C      1  0.4690310000000  0.5113840000000  0.4453300000000 1.0
C      1  0.5485750000000  0.5191890000000  0.5780040000000 1.0
C      1  0.5441850000000  0.5293330000000  0.4774850000000 1.0
C      1  0.5257890000000  0.5130360000000  0.5947330000000 1.0
C      1  0.4857200000000  0.5446480000000  0.5821530000000 1.0
C      1  0.4531900000000  0.5052050000000  0.4874210000000 1.0
C      1  0.4423760000000  0.5453920000000  0.4458490000000 1.0
C      1  0.4874930000000  0.5591100000000  0.4623650000000 1.0
C      1  0.4697590000000  0.5270420000000  0.5286990000000 1.0
C      1  0.4713280000000  0.5776440000000  0.4811280000000 1.0
C      1  0.5369630000000  0.5790020000000  0.5356690000000 1.0
C      1  0.4650100000000  0.4226940000000  0.4517550000000 1.0
C      1  0.4190950000000  0.4542460000000  0.5003010000000 1.0
C      1  0.5116730000000  0.4169860000000  0.4609450000000 1.0
C      1  0.5421830000000  0.5294040000000  0.4270110000000 1.0
C      1  0.5702340000000  0.5296180000000  0.4658640000000 1.0
C      1  0.4153970000000  0.5184030000000  0.5374790000000 1.0
C      1  0.4881530000000  0.5936120000000  0.4965270000000 1.0
C      1  0.5562400000000  0.5652260000000  0.5185080000000 1.0
C      1  0.4298490000000  0.4281860000000  0.5006240000000 1.0
C      1  0.5710130000000  0.4548460000000  0.5386110000000 1.0
C      1  0.4457080000000  0.4727550000000  0.4313080000000 1.0
C      1  0.4852420000000  0.4103270000000  0.4695840000000 1.0
C      1  0.5344490000000  0.4427290000000  0.4249190000000 1.0
C      1  0.4738100000000  0.4796430000000  0.5241800000000 1.0
C      1  0.5028520000000  0.4724590000000  0.5960270000000 1.0
C      1  0.4557680000000  0.4492810000000  0.4632130000000 1.0
C      1  0.5241590000000  0.4848370000000  0.4487780000000 1.0
C      1  0.4868990000000  0.4841600000000  0.4097950000000 1.0
C      1  0.5780100000000  0.4812120000000  0.5493850000000 1.0
C      1  0.4753910000000  0.4099290000000  0.4969310000000 1.0
C      1  0.4571920000000  0.5422890000000  0.5776240000000 1.0
C      1  0.4222590000000  0.4715410000000  0.5227680000000 1.0
C      1  0.5123980000000  0.5622910000000  0.4446770000000 1.0
C      1  0.4461940000000  0.5014620000000  0.4273790000000 1.0
C      1  0.5380710000000  0.4948060000000  0.5204020000000 1.0
C      1  0.4737190000000  0.5086800000000  0.4144950000000 1.0
C      1  0.5108570000000  0.5381610000000  0.5094640000000 1.0
C      1  0.4929060000000  0.5942140000000  0.5257940000000 1.0
C      1  0.5824440000000  0.5095180000000  0.5068730000000 1.0
C      1  0.5746990000000  0.4577210000000  0.4830460000000 1.0
C      1  0.5274840000000  0.4852350000000  0.5994010000000 1.0
C      1  0.4406090000000  0.4815910000000  0.5639460000000 1.0
C      1  0.5252500000000  0.5050940000000  0.4725570000000 1.0
C      1  0.5291780000000  0.4297610000000  0.5309710000000 1.0
C      1  0.4832230000000  0.4942010000000  0.5950740000000 1.0
C      1  0.4255150000000  0.5063490000000  0.5611060000000 1.0
C      1  0.4602370000000  0.5055940000000  0.5141890000000 1.0
C      1  0.4649530000000  0.4165840000000  0.4248330000000 1.0
C      1  0.4993990000000  0.5646000000000  0.5660240000000 1.0
C      1  0.5386880000000  0.5692830000000  0.4534890000000 1.0
C      1  0.5079350000000  0.4629220000000  0.4612170000000 1.0
C      1  0.4479350000000  0.4104400000000  0.5031930000000 1.0
C      1  0.4703320000000  0.4632420000000  0.4188390000000 1.0
C      1  0.4913280000000  0.4306490000000  0.5110400000000 1.0
C      1  0.4792880000000  0.4672830000000  0.4724110000000 1.0
C      1  0.4337170000000  0.5486790000000  0.4728620000000 1.0
C      1  0.5219900000000  0.4858930000000  0.5401980000000 1.0
C      1  0.5347900000000  0.4225190000000  0.4780040000000 1.0
C      1  0.5285240000000  0.4878140000000  0.4955600000000 1.0
C      1  0.5175320000000  0.5952690000000  0.4914130000000 1.0
C      1  0.4937730000000  0.4308990000000  0.5648240000000 1.0
C      1  0.4550800000000  0.5742740000000  0.5416310000000 1.0
C      1  0.5489920000000  0.4404890000000  0.5484530000000 1.0
C      1  0.4386460000000  0.5653100000000  0.5185250000000 1.0
C      1  0.4437930000000  0.5180990000000  0.5803080000000 1.0
C      1  0.4103680000000  0.4986660000000  0.4879750000000 1.0
C      1  0.4312570000000  0.5183370000000  0.4442560000000 1.0
C      1  0.4961980000000  0.5396690000000  0.4856800000000 1.0
C      1  0.4757470000000  0.4971090000000  0.4714270000000 1.0
C      1  0.5278680000000  0.5639570000000  0.5588670000000 1.0
C      1  0.5145890000000  0.5407090000000  0.4258380000000 1.0
C      1  0.5483960000000  0.4731380000000  0.5850920000000 1.0
C      1  0.4991920000000  0.5129170000000  0.4783930000000 1.0
C      1  0.5549630000000  0.4505660000000  0.4423800000000 1.0
C      1  0.5555540000000  0.5453880000000  0.4471880000000 1.0
C      1  0.4969480000000  0.4945740000000  0.5391310000000 1.0
C      1  0.5675470000000  0.5384560000000  0.5432310000000 1.0
C      1  0.5893570000000  0.4870240000000  0.5225070000000 1.0
C      1  0.4109900000000  0.4976220000000  0.5170840000000 1.0
C      1  0.4162500000000  0.4718040000000  0.4770900000000 1.0
C      1  0.4822680000000  0.5798160000000  0.5474890000000 1.0
C      1  0.4975760000000  0.5204060000000  0.5931700000000 1.0
C      1  0.4850400000000  0.4608900000000  0.5025320000000 1.0
C      1  0.4452010000000  0.5673780000000  0.4905360000000 1.0
C      1  0.5632990000000  0.4929050000000  0.5709600000000 1.0
C      1  0.4251340000000  0.5459220000000  0.5366840000000 1.0
C      1  0.5577710000000  0.4802060000000  0.4443150000000 1.0
C      1  0.5413120000000  0.4866010000000  0.4017280000000 1.0
C      1  0.5357270000000  0.5859240000000  0.4745580000000 1.0
C      1  0.5762380000000  0.4818020000000  0.4673040000000 1.0
C      1  0.5018650000000  0.4271020000000  0.5391280000000 1.0
C      1  0.5099960000000  0.4375590000000  0.4399120000000 1.0
C      1  0.5803130000000  0.5608170000000  0.5319250000000 1.0
C      1  0.4281340000000  0.5181900000000  0.4742950000000 1.0
C      1  0.4870270000000  0.5342850000000  0.4193990000000 1.0
C      1  0.4832230000000  0.4375680000000  0.4237840000000 1.0
C      1  0.5381290000000  0.4494050000000  0.5734930000000 1.0
C      1  0.5540620000000  0.5022160000000  0.4213720000000 1.0
C      1  0.5091840000000  0.4479470000000  0.5803850000000 1.0
C      1  0.5821020000000  0.5072540000000  0.4783440000000 1.0
C      1  0.5570680000000  0.4391330000000  0.4684670000000 1.0
C      1  0.5209190000000  0.5955670000000  0.5209040000000 1.0
END
