TITL C-73783-7012-8 0.115120263083361 125000 -635.693224996445 0 0 93 (C1) n - 1
REM
REM in /rds/project/t2_vol4/rds-t2-cs072/BORA/CARBON/from-Arr/AIRSS/Generating-Clusters/GAP-ML-2020/Only-C1/SD-CG/HFTN-CG
REM
REM
REM
REM
REM
REM ./C.cell (11c1c37f851c82e70ff6c80c92926a4b)
REM AIRSS Version 0.9.1 bugfix July 2018 build 013d7b7c2542+ Fri, 06 Jul 2018 19:26:36 +0100
REM compiler GCC version 9.3.0
REM options -cpp -mtune=generic -march=x86-64 -g -O0
REM seed 1755676675 -624570119 -408602603 1342370567 -1223973832 1605413586 1214779216 180501396 199587988 1406411176 579994435 -505078808 -486407263 1713617895 286452544 1570690339 -1234875651 -1452211352 2018889819 -1929663534 -1202313998 366007319 -481152774 -34473640 45489603 -1742209297 128920922 655652597 -1469945596 1211195831 2088706181 621409321 1312965687
REM
CELL 1.54180   50.00000   50.00000   50.00000   90.00000   90.00000   90.00000
LATT -1
SFAC C  
C      1  0.5106760000000  0.5181870000000  0.4191770000000 1.0
C      1  0.4982750000000  0.4495300000000  0.5594570000000 1.0
C      1  0.5278730000000  0.4447770000000  0.4537540000000 1.0
C      1  0.4500330000000  0.5463010000000  0.5412120000000 1.0
C      1  0.5211910000000  0.4567630000000  0.5444720000000 1.0
C      1  0.5502870000000  0.4866760000000  0.4415160000000 1.0
C      1  0.5303310000000  0.5364660000000  0.5048200000000 1.0
C      1  0.5646710000000  0.5067750000000  0.4552450000000 1.0
C      1  0.4882240000000  0.5747380000000  0.4676270000000 1.0
C      1  0.5606820000000  0.4585980000000  0.4825050000000 1.0
C      1  0.5824480000000  0.4741570000000  0.5220760000000 1.0
C      1  0.4532300000000  0.4324690000000  0.5638090000000 1.0
C      1  0.5105040000000  0.4573890000000  0.4868900000000 1.0
C      1  0.4717520000000  0.5719750000000  0.4918190000000 1.0
C      1  0.4999730000000  0.4937090000000  0.5860310000000 1.0
C      1  0.4661810000000  0.5673990000000  0.5515180000000 1.0
C      1  0.5135860000000  0.5012170000000  0.4755780000000 1.0
C      1  0.5422480000000  0.4405910000000  0.4983560000000 1.0
C      1  0.5079260000000  0.5577900000000  0.5497150000000 1.0
C      1  0.4905260000000  0.4214590000000  0.4752820000000 1.0
C      1  0.5426150000000  0.5183310000000  0.5716630000000 1.0
C      1  0.4774670000000  0.4320460000000  0.5487370000000 1.0
C      1  0.5084590000000  0.5843590000000  0.4867040000000 1.0
C      1  0.5119490000000  0.5173760000000  0.5759740000000 1.0
C      1  0.4380810000000  0.4468150000000  0.4628040000000 1.0
C      1  0.4639460000000  0.5439630000000  0.4922690000000 1.0
C      1  0.4944400000000  0.4870290000000  0.4571750000000 1.0
C      1  0.4355790000000  0.4508480000000  0.5127680000000 1.0
C      1  0.4592160000000  0.5297050000000  0.5190110000000 1.0
C      1  0.4860820000000  0.4628490000000  0.4717900000000 1.0
C      1  0.4837480000000  0.4378280000000  0.4517820000000 1.0
C      1  0.5369960000000  0.5808910000000  0.4857200000000 1.0
C      1  0.4420760000000  0.5027300000000  0.5622210000000 1.0
C      1  0.4567110000000  0.4400000000000  0.4415610000000 1.0
C      1  0.4730220000000  0.4343400000000  0.5205410000000 1.0
C      1  0.5214730000000  0.5362720000000  0.5342870000000 1.0
C      1  0.4897690000000  0.5766500000000  0.5381840000000 1.0
C      1  0.5069060000000  0.5110370000000  0.5437380000000 1.0
C      1  0.5718450000000  0.4799240000000  0.5489830000000 1.0
C      1  0.5813270000000  0.5384900000000  0.4854640000000 1.0
C      1  0.5515570000000  0.5148740000000  0.5074840000000 1.0
C      1  0.5066220000000  0.4491810000000  0.4363190000000 1.0
C      1  0.4987290000000  0.5444730000000  0.5739900000000 1.0
C      1  0.5670000000000  0.5311500000000  0.5285260000000 1.0
C      1  0.5711880000000  0.5515610000000  0.4628450000000 1.0
C      1  0.4870810000000  0.5028540000000  0.4173500000000 1.0
C      1  0.4615900000000  0.5111670000000  0.4323040000000 1.0
C      1  0.4438580000000  0.4864550000000  0.4322330000000 1.0
C      1  0.4491610000000  0.5293630000000  0.5650460000000 1.0
C      1  0.5081900000000  0.5424120000000  0.4337140000000 1.0
C      1  0.4892290000000  0.4925770000000  0.5049430000000 1.0
C      1  0.4321710000000  0.4935780000000  0.5350950000000 1.0
C      1  0.5466660000000  0.5669610000000  0.4634180000000 1.0
C      1  0.4346060000000  0.4756470000000  0.4573630000000 1.0
C      1  0.5204670000000  0.4316320000000  0.4795810000000 1.0
C      1  0.5733860000000  0.5522340000000  0.5096020000000 1.0
C      1  0.4340310000000  0.5132850000000  0.5136630000000 1.0
C      1  0.4904680000000  0.5830790000000  0.5102750000000 1.0
C      1  0.4326620000000  0.5149230000000  0.4852290000000 1.0
C      1  0.5153690000000  0.5298690000000  0.4791830000000 1.0
C      1  0.4421640000000  0.4358330000000  0.4879850000000 1.0
C      1  0.4693840000000  0.4760480000000  0.4928040000000 1.0
C      1  0.4639270000000  0.4840090000000  0.5375040000000 1.0
C      1  0.4627370000000  0.4617880000000  0.5174070000000 1.0
C      1  0.5281300000000  0.4940480000000  0.4244530000000 1.0
C      1  0.4834620000000  0.5510310000000  0.4493340000000 1.0
C      1  0.4427280000000  0.5380650000000  0.4717340000000 1.0
C      1  0.5495440000000  0.4940350000000  0.5591720000000 1.0
C      1  0.4560840000000  0.5376970000000  0.4450560000000 1.0
C      1  0.4869800000000  0.4719980000000  0.5765440000000 1.0
C      1  0.4810490000000  0.5068990000000  0.5287370000000 1.0
C      1  0.4706310000000  0.5477880000000  0.5738750000000 1.0
C      1  0.5717390000000  0.5078200000000  0.4843050000000 1.0
C      1  0.4691620000000  0.4226690000000  0.4943940000000 1.0
C      1  0.5777930000000  0.4790300000000  0.4942230000000 1.0
C      1  0.5265020000000  0.4867630000000  0.5421030000000 1.0
C      1  0.5304040000000  0.5442900000000  0.4523260000000 1.0
C      1  0.5479690000000  0.5333020000000  0.5489360000000 1.0
C      1  0.5500970000000  0.4617870000000  0.4559250000000 1.0
C      1  0.4492580000000  0.4930360000000  0.4754500000000 1.0
C      1  0.4539030000000  0.4625230000000  0.4246820000000 1.0
C      1  0.4853980000000  0.5315920000000  0.4742480000000 1.0
C      1  0.5660610000000  0.4562660000000  0.5350130000000 1.0
C      1  0.5418280000000  0.4440310000000  0.5273450000000 1.0
C      1  0.5472960000000  0.5625900000000  0.5043500000000 1.0
C      1  0.4725990000000  0.5059800000000  0.4601140000000 1.0
C      1  0.4579610000000  0.4773950000000  0.5674200000000 1.0
C      1  0.5577500000000  0.5323490000000  0.4465730000000 1.0
C      1  0.5368220000000  0.4907380000000  0.5152650000000 1.0
C      1  0.5158140000000  0.4846060000000  0.4975700000000 1.0
C      1  0.5034200000000  0.4787770000000  0.4293540000000 1.0
C      1  0.4400590000000  0.4554140000000  0.5600730000000 1.0
C      1  0.4249930000000  0.4640800000000  0.5353240000000 1.0
END
