TITL C-73840-5866-3 11.3843606048181 125000 -728.056219293872 0 0 105 (C1) n - 1
REM
REM in /rds/project/t2_vol4/rds-t2-cs072/BORA/CARBON/from-Arr/AIRSS/Generating-Clusters/GAP-ML-2020/Only-C1/SD-CG/HFTN-CG
REM
REM
REM
REM
REM
REM ./C.cell (11c1c37f851c82e70ff6c80c92926a4b)
REM AIRSS Version 0.9.1 bugfix July 2018 build 013d7b7c2542+ Fri, 06 Jul 2018 19:26:36 +0100
REM compiler GCC version 9.3.0
REM options -cpp -mtune=generic -march=x86-64 -g -O0
REM seed -361170610 1536403282 1513087793 -1958803584 158758594 920153828 -954376283 -2111319339 -3628191 959142559 1117584133 1246825517 -1553457407 1470690904 680793385 1443525857 647946882 -1702966028 -775105576 1531171396 -1114674511 1675324540 -1012189619 764494447 197298569 1491045814 -598466218 1926676929 -1539810720 1740693890 -1120907549 1156153190 149633356
REM
CELL 1.54180   50.00000   50.00000   50.00000   90.00000   90.00000   90.00000
LATT -1
SFAC C  
C      1  0.5799400000000  0.4509960000000  0.5359700000000 1.0
C      1  0.4666250000000  0.5074240000000  0.5347640000000 1.0
C      1  0.4474740000000  0.5260580000000  0.5715820000000 1.0
C      1  0.5231730000000  0.4198840000000  0.4866490000000 1.0
C      1  0.5213450000000  0.4657420000000  0.5797620000000 1.0
C      1  0.5671010000000  0.4242490000000  0.5321420000000 1.0
C      1  0.4545320000000  0.5708140000000  0.4814740000000 1.0
C      1  0.4486440000000  0.4360410000000  0.4728220000000 1.0
C      1  0.5435000000000  0.4124460000000  0.5301820000000 1.0
C      1  0.5589370000000  0.5242850000000  0.5635030000000 1.0
C      1  0.4545720000000  0.5615800000000  0.5397170000000 1.0
C      1  0.4320500000000  0.5285240000000  0.4730850000000 1.0
C      1  0.4993870000000  0.4814880000000  0.5087640000000 1.0
C      1  0.5148920000000  0.5350960000000  0.5796610000000 1.0
C      1  0.5982620000000  0.5246420000000  0.4825130000000 1.0
C      1  0.4647970000000  0.5887110000000  0.5006360000000 1.0
C      1  0.4130660000000  0.5083760000000  0.4843420000000 1.0
C      1  0.5490790000000  0.4733410000000  0.4407890000000 1.0
C      1  0.5348690000000  0.4478920000000  0.4529720000000 1.0
C      1  0.5423470000000  0.5698210000000  0.4839650000000 1.0
C      1  0.4910790000000  0.5311860000000  0.5046150000000 1.0
C      1  0.4998440000000  0.4243290000000  0.4703860000000 1.0
C      1  0.4353330000000  0.5530130000000  0.4900050000000 1.0
C      1  0.4687330000000  0.5329270000000  0.4322430000000 1.0
C      1  0.4203130000000  0.4797050000000  0.5198600000000 1.0
C      1  0.4764880000000  0.4802750000000  0.5281650000000 1.0
C      1  0.5829500000000  0.4882390000000  0.5097010000000 1.0
C      1  0.4267730000000  0.4757380000000  0.4515470000000 1.0
C      1  0.4672970000000  0.5456290000000  0.5633810000000 1.0
C      1  0.5139720000000  0.4398290000000  0.5725080000000 1.0
C      1  0.5458510000000  0.5321680000000  0.5368410000000 1.0
C      1  0.5307780000000  0.5753490000000  0.5098210000000 1.0
C      1  0.4950890000000  0.4374040000000  0.5529720000000 1.0
C      1  0.5396380000000  0.4803290000000  0.5340370000000 1.0
C      1  0.5093620000000  0.4734490000000  0.4131490000000 1.0
C      1  0.4118400000000  0.5062920000000  0.5129150000000 1.0
C      1  0.4906140000000  0.5890050000000  0.4876670000000 1.0
C      1  0.5701210000000  0.4788470000000  0.5360690000000 1.0
C      1  0.4876930000000  0.4831480000000  0.4820850000000 1.0
C      1  0.4887180000000  0.5531630000000  0.4418430000000 1.0
C      1  0.4935650000000  0.4541570000000  0.4270510000000 1.0
C      1  0.5859320000000  0.5155550000000  0.5046820000000 1.0
C      1  0.4407740000000  0.5448230000000  0.5192620000000 1.0
C      1  0.4429420000000  0.5242410000000  0.4450800000000 1.0
C      1  0.5632720000000  0.5181390000000  0.4503500000000 1.0
C      1  0.5636160000000  0.4946740000000  0.5650330000000 1.0
C      1  0.5171000000000  0.5206140000000  0.4682150000000 1.0
C      1  0.4304500000000  0.4784320000000  0.5470800000000 1.0
C      1  0.5369950000000  0.4823510000000  0.4172370000000 1.0
C      1  0.5686260000000  0.4897910000000  0.4549430000000 1.0
C      1  0.4140210000000  0.4629980000000  0.4963580000000 1.0
C      1  0.4961580000000  0.5560110000000  0.5731300000000 1.0
C      1  0.5459890000000  0.4334820000000  0.4750060000000 1.0
C      1  0.4651620000000  0.4612510000000  0.4291800000000 1.0
C      1  0.4391060000000  0.5080060000000  0.5506790000000 1.0
C      1  0.5579520000000  0.5291430000000  0.5083700000000 1.0
C      1  0.4121870000000  0.4811190000000  0.4747810000000 1.0
C      1  0.5087780000000  0.5725600000000  0.5531280000000 1.0
C      1  0.5265020000000  0.4695260000000  0.5115540000000 1.0
C      1  0.5454830000000  0.4800620000000  0.5794340000000 1.0
C      1  0.4482860000000  0.4560040000000  0.5495210000000 1.0
C      1  0.5114120000000  0.5099900000000  0.5127530000000 1.0
C      1  0.4456550000000  0.4534760000000  0.4495080000000 1.0
C      1  0.4854580000000  0.5254100000000  0.5497000000000 1.0
C      1  0.5410340000000  0.4827680000000  0.4884700000000 1.0
C      1  0.5065530000000  0.5095860000000  0.5632870000000 1.0
C      1  0.4764070000000  0.5101230000000  0.4157150000000 1.0
C      1  0.4977190000000  0.4807980000000  0.5713760000000 1.0
C      1  0.5306700000000  0.5705080000000  0.4589940000000 1.0
C      1  0.4629220000000  0.5233470000000  0.5101820000000 1.0
C      1  0.5699850000000  0.4760330000000  0.4846750000000 1.0
C      1  0.5340820000000  0.5121830000000  0.4931860000000 1.0
C      1  0.4493960000000  0.4417470000000  0.5202350000000 1.0
C      1  0.4669130000000  0.5844520000000  0.5292960000000 1.0
C      1  0.4991030000000  0.5417060000000  0.4797470000000 1.0
C      1  0.5771330000000  0.5358310000000  0.4677510000000 1.0
C      1  0.4728460000000  0.4266250000000  0.5120880000000 1.0
C      1  0.5280720000000  0.4764010000000  0.4636600000000 1.0
C      1  0.5079530000000  0.5908560000000  0.5098480000000 1.0
C      1  0.4521590000000  0.5110310000000  0.4871910000000 1.0
C      1  0.4374170000000  0.4977380000000  0.4366460000000 1.0
C      1  0.4735540000000  0.4255070000000  0.4832040000000 1.0
C      1  0.5265700000000  0.5071850000000  0.5387980000000 1.0
C      1  0.5267610000000  0.5557810000000  0.5330210000000 1.0
C      1  0.4995680000000  0.5416020000000  0.5287210000000 1.0
C      1  0.5814670000000  0.4382120000000  0.5110600000000 1.0
C      1  0.4231620000000  0.5239750000000  0.5306890000000 1.0
C      1  0.5204720000000  0.4144520000000  0.5152550000000 1.0
C      1  0.4529390000000  0.4722050000000  0.5107810000000 1.0
C      1  0.4321170000000  0.4412650000000  0.4957570000000 1.0
C      1  0.5418790000000  0.5367270000000  0.5813920000000 1.0
C      1  0.5044340000000  0.4939640000000  0.4624840000000 1.0
C      1  0.4828720000000  0.5645550000000  0.4686660000000 1.0
C      1  0.5613050000000  0.5499420000000  0.4876070000000 1.0
C      1  0.5082200000000  0.4380670000000  0.4461410000000 1.0
C      1  0.4944780000000  0.5892190000000  0.5354730000000 1.0
C      1  0.4953040000000  0.4217500000000  0.5283630000000 1.0
C      1  0.4786030000000  0.4633410000000  0.5538160000000 1.0
C      1  0.4585070000000  0.4880960000000  0.4208390000000 1.0
C      1  0.5197810000000  0.5540000000000  0.4402940000000 1.0
C      1  0.5691680000000  0.4462330000000  0.4869100000000 1.0
C      1  0.5021130000000  0.5015060000000  0.4090850000000 1.0
C      1  0.5287840000000  0.5101090000000  0.4168030000000 1.0
C      1  0.4600600000000  0.4847490000000  0.4849450000000 1.0
C      1  0.5350230000000  0.5265750000000  0.4404100000000 1.0
END
