TITL C-73802-7008-4 0.0243066210759973 125000 -179.440062592504 0 0 28 (C1) n - 1
REM
REM in /rds/project/t2_vol4/rds-t2-cs072/BORA/CARBON/from-Arr/AIRSS/Generating-Clusters/GAP-ML-2020/Only-C1/SD-CG/HFTN-CG
REM
REM
REM
REM
REM
REM ./C.cell (11c1c37f851c82e70ff6c80c92926a4b)
REM AIRSS Version 0.9.1 bugfix July 2018 build 013d7b7c2542+ Fri, 06 Jul 2018 19:26:36 +0100
REM compiler GCC version 9.3.0
REM options -cpp -mtune=generic -march=x86-64 -g -O0
REM seed 777790266 1054847320 2040216992 -988664193 10545534 1762783796 1223088781 -33840478 -417483738 397587891 1371372986 -803526253 -254561559 1874928650 841009007 342648306 231665287 1214788971 -1820318805 -1721693957 1785102060 665174001 1338328560 -880263276 -2080870238 680179278 1170883570 -1559169646 1187051588 -1390832231 1031327112 1778352891 1884202110
REM
CELL 1.54180   50.00000   50.00000   50.00000   90.00000   90.00000   90.00000
LATT -1
SFAC C  
C      1  0.5216570000000  0.4975230000000  0.5271230000000 1.0
C      1  0.4471590000000  0.4999150000000  0.4813580000000 1.0
C      1  0.4647680000000  0.5219960000000  0.4892580000000 1.0
C      1  0.4528790000000  0.4751470000000  0.5112930000000 1.0
C      1  0.5308630000000  0.5250990000000  0.5348890000000 1.0
C      1  0.4606620000000  0.4777440000000  0.4663060000000 1.0
C      1  0.4704160000000  0.4922950000000  0.5280290000000 1.0
C      1  0.4824560000000  0.5287660000000  0.4687470000000 1.0
C      1  0.5182720000000  0.5035960000000  0.4970660000000 1.0
C      1  0.5064370000000  0.4651430000000  0.4728170000000 1.0
C      1  0.4794930000000  0.4834090000000  0.5556380000000 1.0
C      1  0.5330660000000  0.5380970000000  0.4679150000000 1.0
C      1  0.5371640000000  0.5263640000000  0.4922130000000 1.0
C      1  0.4724190000000  0.5208050000000  0.5174470000000 1.0
C      1  0.4891780000000  0.4463860000000  0.4865700000000 1.0
C      1  0.4643170000000  0.4575540000000  0.4893760000000 1.0
C      1  0.4985590000000  0.4831680000000  0.5382120000000 1.0
C      1  0.5284150000000  0.4801620000000  0.4834400000000 1.0
C      1  0.5647440000000  0.4987150000000  0.5145060000000 1.0
C      1  0.4934290000000  0.5093390000000  0.4496500000000 1.0
C      1  0.5118890000000  0.5451860000000  0.5408080000000 1.0
C      1  0.5529590000000  0.4751200000000  0.4982070000000 1.0
C      1  0.5480040000000  0.4805910000000  0.5259890000000 1.0
C      1  0.4318670000000  0.4891500000000  0.5007010000000 1.0
C      1  0.4894820000000  0.5377730000000  0.5302290000000 1.0
C      1  0.5534070000000  0.5263180000000  0.5155330000000 1.0
C      1  0.5083820000000  0.5313640000000  0.4579040000000 1.0
C      1  0.4876580000000  0.4832770000000  0.4587750000000 1.0
END
