TITL C-73833-7285-3 -225.584102992435 125000 -444.747184129562 0 0 64 (C1) n - 1
REM
REM in /rds/project/t2_vol4/rds-t2-cs072/BORA/CARBON/from-Arr/AIRSS/Generating-Clusters/GAP-ML-2020/Only-C1/SD-CG/HFTN-CG
REM
REM
REM
REM
REM
REM ./C.cell (11c1c37f851c82e70ff6c80c92926a4b)
REM AIRSS Version 0.9.1 bugfix July 2018 build 013d7b7c2542+ Fri, 06 Jul 2018 19:26:36 +0100
REM compiler GCC version 9.3.0
REM options -cpp -mtune=generic -march=x86-64 -g -O0
REM seed -1035520905 1618812537 -789598528 -1112790536 1386977160 -794234704 -225167704 268729016 -1171987 -265787317 142987201 -1027156159 1627778937 1451409847 1315496018 -1738428347 22996616 -1479449300 -914468789 395682099 1891193859 -889510432 1500960319 1117121513 -1327900545 -491045537 -851315090 784642493 180685316 -632084384 2054286577 -22864963 -145129016
REM
CELL 1.54180   50.00000   50.00000   50.00000   90.00000   90.00000   90.00000
LATT -1
SFAC C  
C      1  0.5332570000000  0.5564340000000  0.5312470000000 1.0
C      1  0.4586080000000  0.5567660000000  0.5236190000000 1.0
C      1  0.4822910000000  0.5575200000000  0.5387380000000 1.0
C      1  0.5028940000000  0.5722840000000  0.5230320000000 1.0
C      1  0.4904210000000  0.4778890000000  0.4344920000000 1.0
C      1  0.5035360000000  0.4979850000000  0.4815460000000 1.0
C      1  0.5547670000000  0.4895320000000  0.4660820000000 1.0
C      1  0.5197000000000  0.4770760000000  0.4329380000000 1.0
C      1  0.5207690000000  0.5326390000000  0.5468750000000 1.0
C      1  0.4821560000000  0.5052940000000  0.4326150000000 1.0
C      1  0.5168260000000  0.4360160000000  0.4782620000000 1.0
C      1  0.4586080000000  0.5151850000000  0.4451030000000 1.0
C      1  0.5295300000000  0.5167290000000  0.4377940000000 1.0
C      1  0.5203550000000  0.4894770000000  0.5226360000000 1.0
C      1  0.4771050000000  0.4612640000000  0.5480730000000 1.0
C      1  0.4418210000000  0.4973290000000  0.4586970000000 1.0
C      1  0.5039520000000  0.4517540000000  0.5470860000000 1.0
C      1  0.4935660000000  0.5455520000000  0.4536760000000 1.0
C      1  0.4752310000000  0.4596210000000  0.4505480000000 1.0
C      1  0.5446170000000  0.4373640000000  0.5290310000000 1.0
C      1  0.5026910000000  0.5257010000000  0.4366180000000 1.0
C      1  0.5444130000000  0.5165280000000  0.5536980000000 1.0
C      1  0.5450030000000  0.5371640000000  0.5110900000000 1.0
C      1  0.4403190000000  0.4614700000000  0.4869350000000 1.0
C      1  0.4470690000000  0.5113470000000  0.5386850000000 1.0
C      1  0.5414630000000  0.4502570000000  0.4738310000000 1.0
C      1  0.5397000000000  0.4688100000000  0.4514810000000 1.0
C      1  0.4940200000000  0.5696540000000  0.4956430000000 1.0
C      1  0.4549330000000  0.4610110000000  0.5306770000000 1.0
C      1  0.4782790000000  0.4338760000000  0.4943040000000 1.0
C      1  0.4508880000000  0.5499250000000  0.4793900000000 1.0
C      1  0.4790110000000  0.4897010000000  0.4953090000000 1.0
C      1  0.5174380000000  0.4348240000000  0.5286760000000 1.0
C      1  0.5600820000000  0.4698530000000  0.4872550000000 1.0
C      1  0.4290960000000  0.5062220000000  0.4833540000000 1.0
C      1  0.5020900000000  0.5250330000000  0.4959440000000 1.0
C      1  0.5598840000000  0.4696390000000  0.5621800000000 1.0
C      1  0.4657220000000  0.5654020000000  0.4974430000000 1.0
C      1  0.4333910000000  0.5316860000000  0.4942240000000 1.0
C      1  0.5764600000000  0.4999290000000  0.5215610000000 1.0
C      1  0.5271260000000  0.5830660000000  0.5329470000000 1.0
C      1  0.4406070000000  0.5344730000000  0.5226840000000 1.0
C      1  0.4397790000000  0.4856700000000  0.5273120000000 1.0
C      1  0.5326800000000  0.4971000000000  0.4191930000000 1.0
C      1  0.4730820000000  0.5122260000000  0.5531590000000 1.0
C      1  0.5199980000000  0.5186230000000  0.5182000000000 1.0
C      1  0.5049730000000  0.4283420000000  0.5037980000000 1.0
C      1  0.4297210000000  0.4842760000000  0.5007560000000 1.0
C      1  0.5712580000000  0.4741820000000  0.5135860000000 1.0
C      1  0.4910020000000  0.5347780000000  0.5530720000000 1.0
C      1  0.5409120000000  0.4894950000000  0.5635290000000 1.0
C      1  0.4555200000000  0.4462790000000  0.5051550000000 1.0
C      1  0.4887760000000  0.4409830000000  0.4676130000000 1.0
C      1  0.5399650000000  0.5393780000000  0.4805490000000 1.0
C      1  0.5609940000000  0.4574690000000  0.5363810000000 1.0
C      1  0.4752300000000  0.5170210000000  0.5013480000000 1.0
C      1  0.5142990000000  0.4800730000000  0.5519900000000 1.0
C      1  0.4497900000000  0.4694130000000  0.4610050000000 1.0
C      1  0.5048420000000  0.4780850000000  0.5016620000000 1.0
C      1  0.5096690000000  0.5502110000000  0.4786080000000 1.0
C      1  0.5615660000000  0.5203450000000  0.5302220000000 1.0
C      1  0.4650360000000  0.5408860000000  0.4568070000000 1.0
C      1  0.5453340000000  0.5183110000000  0.4620790000000 1.0
C      1  0.4858790000000  0.4875690000000  0.5579560000000 1.0
END
