TITL C-73859-7293-3 -0.0896228610458156 125000 -495.928873646902 0 0 73 (C1) n - 1
REM
REM in /rds/project/t2_vol4/rds-t2-cs072/BORA/CARBON/from-Arr/AIRSS/Generating-Clusters/GAP-ML-2020/Only-C1/SD-CG/HFTN-CG
REM
REM
REM
REM
REM
REM ./C.cell (11c1c37f851c82e70ff6c80c92926a4b)
REM AIRSS Version 0.9.1 bugfix July 2018 build 013d7b7c2542+ Fri, 06 Jul 2018 19:26:36 +0100
REM compiler GCC version 9.3.0
REM options -cpp -mtune=generic -march=x86-64 -g -O0
REM seed -1677586720 65062471 -984375260 -145695679 323149128 1820900047 -130318524 696161368 2120988453 -356180665 874275634 -87208909 457650725 1273053754 922124580 -537031756 2121194718 1478664551 -1096209969 1903435830 1992493761 -1962105702 -899149236 1289575268 -176166592 1084708093 -1908983910 2073294858 -1012869134 -656128828 774842340 189297174 772687384
REM
CELL 1.54180   50.00000   50.00000   50.00000   90.00000   90.00000   90.00000
LATT -1
SFAC C  
C      1  0.5416650000000  0.5012120000000  0.5701040000000 1.0
C      1  0.5189300000000  0.4889790000000  0.5330210000000 1.0
C      1  0.5520400000000  0.5367850000000  0.4878240000000 1.0
C      1  0.4875370000000  0.4971410000000  0.4230790000000 1.0
C      1  0.5065050000000  0.5504230000000  0.5407060000000 1.0
C      1  0.5486200000000  0.4421300000000  0.4842300000000 1.0
C      1  0.4963370000000  0.4571380000000  0.5632410000000 1.0
C      1  0.5226940000000  0.5215140000000  0.5741690000000 1.0
C      1  0.4503360000000  0.5151890000000  0.5550910000000 1.0
C      1  0.4522860000000  0.4584950000000  0.5454030000000 1.0
C      1  0.5263510000000  0.4403830000000  0.5248660000000 1.0
C      1  0.5542850000000  0.5118100000000  0.4458790000000 1.0
C      1  0.4594710000000  0.4859780000000  0.5554460000000 1.0
C      1  0.5602290000000  0.4777780000000  0.5115670000000 1.0
C      1  0.4287860000000  0.4817640000000  0.4703410000000 1.0
C      1  0.4867000000000  0.4526320000000  0.4500960000000 1.0
C      1  0.4540050000000  0.5279270000000  0.4454460000000 1.0
C      1  0.4793980000000  0.4436940000000  0.4981440000000 1.0
C      1  0.4645240000000  0.4424500000000  0.5247200000000 1.0
C      1  0.5149860000000  0.4464940000000  0.4538600000000 1.0
C      1  0.5151910000000  0.5103070000000  0.4757140000000 1.0
C      1  0.5117530000000  0.5641000000000  0.4668890000000 1.0
C      1  0.5591780000000  0.5442970000000  0.5140080000000 1.0
C      1  0.4939650000000  0.5436320000000  0.4299080000000 1.0
C      1  0.5499510000000  0.4493230000000  0.5111010000000 1.0
C      1  0.4319850000000  0.5100610000000  0.5105110000000 1.0
C      1  0.4740160000000  0.4952930000000  0.5312230000000 1.0
C      1  0.5645390000000  0.5106210000000  0.4717830000000 1.0
C      1  0.5540690000000  0.5372270000000  0.5405400000000 1.0
C      1  0.4952420000000  0.5115510000000  0.5698170000000 1.0
C      1  0.5379380000000  0.4645130000000  0.4460760000000 1.0
C      1  0.4722060000000  0.5297120000000  0.5669370000000 1.0
C      1  0.4781040000000  0.5306390000000  0.4995150000000 1.0
C      1  0.4469150000000  0.5530180000000  0.5195130000000 1.0
C      1  0.5227170000000  0.4334430000000  0.4781330000000 1.0
C      1  0.5179860000000  0.4827170000000  0.4851620000000 1.0
C      1  0.5162200000000  0.5034380000000  0.4211470000000 1.0
C      1  0.4653930000000  0.4447940000000  0.4710030000000 1.0
C      1  0.4164770000000  0.4998410000000  0.4900020000000 1.0
C      1  0.4912000000000  0.4742460000000  0.4937660000000 1.0
C      1  0.4615000000000  0.5055780000000  0.5082770000000 1.0
C      1  0.4525290000000  0.5465510000000  0.4890790000000 1.0
C      1  0.5383620000000  0.4763140000000  0.5545450000000 1.0
C      1  0.5188260000000  0.5316130000000  0.4255870000000 1.0
C      1  0.5577950000000  0.4625330000000  0.4670640000000 1.0
C      1  0.5077140000000  0.4327220000000  0.5025490000000 1.0
C      1  0.5680410000000  0.4846820000000  0.4823560000000 1.0
C      1  0.5407180000000  0.5368620000000  0.4422730000000 1.0
C      1  0.4630680000000  0.5656140000000  0.5363060000000 1.0
C      1  0.5640780000000  0.4849730000000  0.5393420000000 1.0
C      1  0.4315520000000  0.5240520000000  0.4825790000000 1.0
C      1  0.5293260000000  0.5428770000000  0.5555600000000 1.0
C      1  0.4939500000000  0.4761070000000  0.5230430000000 1.0
C      1  0.4796560000000  0.4744360000000  0.4352900000000 1.0
C      1  0.5227880000000  0.4517860000000  0.5526210000000 1.0
C      1  0.4741400000000  0.5230010000000  0.4266870000000 1.0
C      1  0.5337040000000  0.4931190000000  0.5095470000000 1.0
C      1  0.4607330000000  0.5526530000000  0.4617170000000 1.0
C      1  0.4406770000000  0.4575200000000  0.4688780000000 1.0
C      1  0.5281420000000  0.5222540000000  0.5012070000000 1.0
C      1  0.4463290000000  0.5059700000000  0.4633720000000 1.0
C      1  0.4705810000000  0.4950920000000  0.4815510000000 1.0
C      1  0.5370970000000  0.5529410000000  0.4654450000000 1.0
C      1  0.5383440000000  0.4900510000000  0.4334320000000 1.0
C      1  0.4882070000000  0.5606750000000  0.4531480000000 1.0
C      1  0.4990130000000  0.5105730000000  0.5386960000000 1.0
C      1  0.4854520000000  0.4829860000000  0.5709660000000 1.0
C      1  0.4368480000000  0.5278230000000  0.5323060000000 1.0
C      1  0.4751720000000  0.4425220000000  0.5500990000000 1.0
C      1  0.5615620000000  0.5109370000000  0.5512070000000 1.0
C      1  0.4888520000000  0.5171460000000  0.4747430000000 1.0
C      1  0.4809110000000  0.5534020000000  0.5527900000000 1.0
C      1  0.5036040000000  0.5319500000000  0.5177560000000 1.0
END
