TITL C-73851-5564-7 0.0121271171770803 125000 -712.671488974173 0 0 102 (C1) n - 1
REM
REM in /rds/project/t2_vol4/rds-t2-cs072/BORA/CARBON/from-Arr/AIRSS/Generating-Clusters/GAP-ML-2020/Only-C1/SD-CG/HFTN-CG
REM
REM
REM
REM
REM
REM ./C.cell (11c1c37f851c82e70ff6c80c92926a4b)
REM AIRSS Version 0.9.1 bugfix July 2018 build 013d7b7c2542+ Fri, 06 Jul 2018 19:26:36 +0100
REM compiler GCC version 9.3.0
REM options -cpp -mtune=generic -march=x86-64 -g -O0
REM seed 1972031238 1317122712 -2054188313 -1254973941 -427620248 -100812527 1002621937 444413328 386843651 -764935087 644397882 1697229242 -1721879233 -323181392 -174657587 1201406720 139203356 -1940076499 -1289656259 277255049 405409775 1286624997 -864065511 -1294857292 1468804322 1642574015 860675711 720847943 1549696404 411155281 -1527295775 76181641 -437253
REM
CELL 1.54180   50.00000   50.00000   50.00000   90.00000   90.00000   90.00000
LATT -1
SFAC C  
C      1  0.4518880000000  0.4595770000000  0.5294740000000 1.0
C      1  0.4854130000000  0.4964080000000  0.4286260000000 1.0
C      1  0.5967510000000  0.4648590000000  0.4943670000000 1.0
C      1  0.5227010000000  0.4692870000000  0.5108950000000 1.0
C      1  0.4985110000000  0.6087720000000  0.5114240000000 1.0
C      1  0.4302750000000  0.4943120000000  0.4668950000000 1.0
C      1  0.4898210000000  0.4774810000000  0.5810820000000 1.0
C      1  0.5017050000000  0.5701140000000  0.5474250000000 1.0
C      1  0.5298130000000  0.5287210000000  0.4366790000000 1.0
C      1  0.4299110000000  0.4765820000000  0.5432210000000 1.0
C      1  0.4623240000000  0.4196970000000  0.5017070000000 1.0
C      1  0.5330410000000  0.4862800000000  0.4659680000000 1.0
C      1  0.4444510000000  0.4747690000000  0.5680210000000 1.0
C      1  0.5700710000000  0.5199640000000  0.5140460000000 1.0
C      1  0.5044580000000  0.4944210000000  0.4763330000000 1.0
C      1  0.5909710000000  0.4650420000000  0.4659120000000 1.0
C      1  0.4300910000000  0.5485320000000  0.4860410000000 1.0
C      1  0.4823810000000  0.5584610000000  0.5642240000000 1.0
C      1  0.4963590000000  0.4190970000000  0.4681810000000 1.0
C      1  0.4824410000000  0.5253490000000  0.5151580000000 1.0
C      1  0.5492860000000  0.5721710000000  0.5063400000000 1.0
C      1  0.5625080000000  0.4342690000000  0.4958350000000 1.0
C      1  0.4423130000000  0.5325950000000  0.5568900000000 1.0
C      1  0.4902510000000  0.5802160000000  0.5197410000000 1.0
C      1  0.5034950000000  0.5378130000000  0.5006160000000 1.0
C      1  0.5830530000000  0.4692590000000  0.5194310000000 1.0
C      1  0.4340370000000  0.4524770000000  0.4845060000000 1.0
C      1  0.5739610000000  0.4763460000000  0.4462140000000 1.0
C      1  0.4921960000000  0.4534680000000  0.4331280000000 1.0
C      1  0.4783360000000  0.4097390000000  0.5489730000000 1.0
C      1  0.5707590000000  0.5039720000000  0.4395270000000 1.0
C      1  0.5164570000000  0.4149780000000  0.4887360000000 1.0
C      1  0.5325160000000  0.4811230000000  0.4224290000000 1.0
C      1  0.4197070000000  0.5286060000000  0.5053990000000 1.0
C      1  0.5601490000000  0.4964740000000  0.5539890000000 1.0
C      1  0.4643890000000  0.5471690000000  0.5267210000000 1.0
C      1  0.4924940000000  0.5022240000000  0.5305870000000 1.0
C      1  0.4965940000000  0.4728140000000  0.4964220000000 1.0
C      1  0.4803370000000  0.5416340000000  0.4512660000000 1.0
C      1  0.5773500000000  0.4944240000000  0.5305460000000 1.0
C      1  0.5426370000000  0.5694760000000  0.4647510000000 1.0
C      1  0.4524080000000  0.5361870000000  0.4404480000000 1.0
C      1  0.5627050000000  0.4483580000000  0.5214430000000 1.0
C      1  0.5270880000000  0.5813970000000  0.4872290000000 1.0
C      1  0.5277100000000  0.5602270000000  0.5513130000000 1.0
C      1  0.4845180000000  0.4508010000000  0.5708490000000 1.0
C      1  0.5407280000000  0.4269900000000  0.4793230000000 1.0
C      1  0.5162460000000  0.6097150000000  0.4930190000000 1.0
C      1  0.5678400000000  0.5214380000000  0.4623210000000 1.0
C      1  0.5302920000000  0.5585720000000  0.4413690000000 1.0
C      1  0.4565700000000  0.5566200000000  0.5520420000000 1.0
C      1  0.4640340000000  0.4595070000000  0.4394790000000 1.0
C      1  0.5116140000000  0.5203100000000  0.5789260000000 1.0
C      1  0.4838910000000  0.5075600000000  0.4584550000000 1.0
C      1  0.5354670000000  0.4396530000000  0.4538530000000 1.0
C      1  0.4145360000000  0.4966290000000  0.5317710000000 1.0
C      1  0.5491760000000  0.5618980000000  0.5322850000000 1.0
C      1  0.5195680000000  0.4298330000000  0.5389180000000 1.0
C      1  0.5090520000000  0.4150010000000  0.5158540000000 1.0
C      1  0.5627080000000  0.5591670000000  0.4847320000000 1.0
C      1  0.4279580000000  0.5442570000000  0.4574880000000 1.0
C      1  0.5366690000000  0.4534850000000  0.5349070000000 1.0
C      1  0.4613510000000  0.5190010000000  0.5754920000000 1.0
C      1  0.4529010000000  0.4449440000000  0.4624110000000 1.0
C      1  0.5453470000000  0.5069570000000  0.4238050000000 1.0
C      1  0.5437820000000  0.4804960000000  0.4925790000000 1.0
C      1  0.4178000000000  0.5084220000000  0.4453570000000 1.0
C      1  0.4626120000000  0.5728490000000  0.5173880000000 1.0
C      1  0.4044340000000  0.5323420000000  0.4482360000000 1.0
C      1  0.4635810000000  0.4913090000000  0.5812750000000 1.0
C      1  0.4539960000000  0.5632460000000  0.4915600000000 1.0
C      1  0.4583800000000  0.5035320000000  0.4738610000000 1.0
C      1  0.4227360000000  0.5242910000000  0.5351270000000 1.0
C      1  0.5057120000000  0.5475510000000  0.4363770000000 1.0
C      1  0.5142530000000  0.4914490000000  0.5771750000000 1.0
C      1  0.5652700000000  0.5388760000000  0.5359930000000 1.0
C      1  0.5853500000000  0.4426970000000  0.4813350000000 1.0
C      1  0.4858760000000  0.5336820000000  0.5779830000000 1.0
C      1  0.5459880000000  0.4656330000000  0.4443540000000 1.0
C      1  0.4189040000000  0.4769610000000  0.4854160000000 1.0
C      1  0.4810140000000  0.4099800000000  0.5210700000000 1.0
C      1  0.4128680000000  0.4991160000000  0.5025720000000 1.0
C      1  0.4980210000000  0.4289380000000  0.5584430000000 1.0
C      1  0.4437080000000  0.4399430000000  0.5086130000000 1.0
C      1  0.5343140000000  0.4818370000000  0.5543940000000 1.0
C      1  0.5760560000000  0.5337820000000  0.4869740000000 1.0
C      1  0.4590530000000  0.4864920000000  0.4261320000000 1.0
C      1  0.5382540000000  0.5168460000000  0.4630870000000 1.0
C      1  0.4636170000000  0.5054920000000  0.5010180000000 1.0
C      1  0.5008990000000  0.5655060000000  0.4931520000000 1.0
C      1  0.4747880000000  0.4816540000000  0.5154300000000 1.0
C      1  0.4429400000000  0.5098720000000  0.4301710000000 1.0
C      1  0.5209500000000  0.4949690000000  0.5287390000000 1.0
C      1  0.5048520000000  0.4764850000000  0.4219280000000 1.0
C      1  0.4693820000000  0.4237170000000  0.4744320000000 1.0
C      1  0.5397490000000  0.5068470000000  0.5077090000000 1.0
C      1  0.5560140000000  0.5243040000000  0.5585260000000 1.0
C      1  0.5209810000000  0.5192040000000  0.4891560000000 1.0
C      1  0.4593590000000  0.4518440000000  0.5582400000000 1.0
C      1  0.5321750000000  0.5363410000000  0.5676260000000 1.0
C      1  0.4777030000000  0.5609370000000  0.4754900000000 1.0
C      1  0.5080520000000  0.4350770000000  0.4476310000000 1.0
END
