TITL C-73854-8130-8 82.0104719504195 125000 -178.46480065918 0 0 28 (C1) n - 1
REM
REM in /rds/project/t2_vol4/rds-t2-cs072/BORA/CARBON/from-Arr/AIRSS/Generating-Clusters/GAP-ML-2020/Only-C1/SD-CG/HFTN-CG
REM
REM
REM
REM
REM
REM ./C.cell (11c1c37f851c82e70ff6c80c92926a4b)
REM AIRSS Version 0.9.1 bugfix July 2018 build 013d7b7c2542+ Fri, 06 Jul 2018 19:26:36 +0100
REM compiler GCC version 9.3.0
REM options -cpp -mtune=generic -march=x86-64 -g -O0
REM seed 823191838 -1707864959 1605335825 426287919 1684666614 1436678607 889360320 -447019145 299902469 458929891 -1829564745 1799125943 93218293 -1325246144 -1914889254 -693139402 -1801238408 -1139122961 1927450776 -106373276 -1860994013 -72457928 -609342784 -1516017975 -51853042 -1609730652 4050872 1496368807 -460585110 1070837597 2040220697 -1785146627 280126951
REM
CELL 1.54180   50.00000   50.00000   50.00000   90.00000   90.00000   90.00000
LATT -1
SFAC C  
C      1  0.5588880000000  0.5127050000000  0.5598490000000 1.0
C      1  0.5199490000000  0.5063490000000  0.5092180000000 1.0
C      1  0.5145540000000  0.4597130000000  0.5188580000000 1.0
C      1  0.4763910000000  0.5213600000000  0.4903470000000 1.0
C      1  0.5567720000000  0.4797530000000  0.5268580000000 1.0
C      1  0.4574350000000  0.4825400000000  0.5151460000000 1.0
C      1  0.5306320000000  0.4942980000000  0.4519990000000 1.0
C      1  0.4825650000000  0.4823440000000  0.4488550000000 1.0
C      1  0.5145210000000  0.5164530000000  0.5358230000000 1.0
C      1  0.5347530000000  0.5202120000000  0.4509610000000 1.0
C      1  0.4771340000000  0.5242970000000  0.4447410000000 1.0
C      1  0.4527240000000  0.4736060000000  0.4892630000000 1.0
C      1  0.4983640000000  0.5009130000000  0.5513110000000 1.0
C      1  0.5705360000000  0.4911320000000  0.5452050000000 1.0
C      1  0.4603650000000  0.4867360000000  0.4671700000000 1.0
C      1  0.5144660000000  0.5335450000000  0.4636660000000 1.0
C      1  0.5064520000000  0.4889010000000  0.4629720000000 1.0
C      1  0.5328280000000  0.4796070000000  0.5135150000000 1.0
C      1  0.4560960000000  0.5277270000000  0.5363010000000 1.0
C      1  0.4620150000000  0.5158880000000  0.4667300000000 1.0
C      1  0.4946580000000  0.5448050000000  0.4484970000000 1.0
C      1  0.4795690000000  0.4854800000000  0.5593950000000 1.0
C      1  0.4931620000000  0.4497410000000  0.5280590000000 1.0
C      1  0.4782100000000  0.5022630000000  0.4279140000000 1.0
C      1  0.4618160000000  0.5142430000000  0.5144630000000 1.0
C      1  0.5362100000000  0.5217210000000  0.5523960000000 1.0
C      1  0.5046840000000  0.5131460000000  0.4852930000000 1.0
C      1  0.4742500000000  0.4705260000000  0.5351940000000 1.0
END
