TITL C-73785-7105-4 0.160424605260848 125000 -440.991121186679 0 0 65 (C1) n - 1
REM
REM in /rds/project/t2_vol4/rds-t2-cs072/BORA/CARBON/from-Arr/AIRSS/Generating-Clusters/GAP-ML-2020/Only-C1/SD-CG/HFTN-CG
REM
REM
REM
REM
REM
REM ./C.cell (11c1c37f851c82e70ff6c80c92926a4b)
REM AIRSS Version 0.9.1 bugfix July 2018 build 013d7b7c2542+ Fri, 06 Jul 2018 19:26:36 +0100
REM compiler GCC version 9.3.0
REM options -cpp -mtune=generic -march=x86-64 -g -O0
REM seed -1308772499 -2021070700 -2043943394 316556083 -989558670 1240180615 61603719 1497456249 -1601024627 -1295208327 -1161660008 624475928 -911737795 1034727411 -698640588 -445684937 1198748181 1702346881 1372587651 897370843 -534772151 -1671482935 1662383468 1428687395 1056192805 1588444490 1547537821 -396447896 860569554 -640839676 514729505 1328947658 -1256904900
REM
CELL 1.54180   50.00000   50.00000   50.00000   90.00000   90.00000   90.00000
LATT -1
SFAC C  
C      1  0.5847030000000  0.4715840000000  0.4790820000000 1.0
C      1  0.4438310000000  0.5425270000000  0.5291640000000 1.0
C      1  0.5146970000000  0.4912480000000  0.5267860000000 1.0
C      1  0.4329720000000  0.5018680000000  0.5260920000000 1.0
C      1  0.5562300000000  0.4340610000000  0.5010260000000 1.0
C      1  0.5357040000000  0.4776780000000  0.4801850000000 1.0
C      1  0.5073400000000  0.4815580000000  0.4808750000000 1.0
C      1  0.4839890000000  0.5041210000000  0.4386890000000 1.0
C      1  0.4472290000000  0.4535340000000  0.5291190000000 1.0
C      1  0.4342500000000  0.4757740000000  0.5159630000000 1.0
C      1  0.5381370000000  0.4577410000000  0.4559380000000 1.0
C      1  0.4406010000000  0.4715290000000  0.4874280000000 1.0
C      1  0.5180510000000  0.4668130000000  0.4369770000000 1.0
C      1  0.5759160000000  0.4485300000000  0.4899610000000 1.0
C      1  0.5424750000000  0.4374000000000  0.5273990000000 1.0
C      1  0.5478540000000  0.5038010000000  0.4692640000000 1.0
C      1  0.5048260000000  0.5094930000000  0.4845410000000 1.0
C      1  0.5018170000000  0.5735940000000  0.4624800000000 1.0
C      1  0.5352700000000  0.5033430000000  0.5646600000000 1.0
C      1  0.5081770000000  0.5774180000000  0.5234790000000 1.0
C      1  0.4824440000000  0.5344750000000  0.4412660000000 1.0
C      1  0.5755000000000  0.4948170000000  0.4717570000000 1.0
C      1  0.4788570000000  0.4891460000000  0.5684330000000 1.0
C      1  0.4958880000000  0.6002560000000  0.5066930000000 1.0
C      1  0.5249100000000  0.4786140000000  0.5529310000000 1.0
C      1  0.5443380000000  0.4638120000000  0.5349090000000 1.0
C      1  0.4774120000000  0.5133580000000  0.5509070000000 1.0
C      1  0.5394590000000  0.5093580000000  0.5166600000000 1.0
C      1  0.5388340000000  0.4812170000000  0.5109690000000 1.0
C      1  0.5268800000000  0.5585540000000  0.4584040000000 1.0
C      1  0.4620480000000  0.5563470000000  0.4876520000000 1.0
C      1  0.4862860000000  0.4457660000000  0.5528710000000 1.0
C      1  0.4876000000000  0.5011840000000  0.5239590000000 1.0
C      1  0.4896070000000  0.5585290000000  0.5344860000000 1.0
C      1  0.4788820000000  0.5566510000000  0.4635420000000 1.0
C      1  0.4547730000000  0.5141800000000  0.4823660000000 1.0
C      1  0.5296940000000  0.4256390000000  0.4898850000000 1.0
C      1  0.4905400000000  0.4338770000000  0.5262270000000 1.0
C      1  0.5117880000000  0.4936680000000  0.4348610000000 1.0
C      1  0.5012460000000  0.4467870000000  0.4495870000000 1.0
C      1  0.5338720000000  0.5219790000000  0.4909860000000 1.0
C      1  0.4485370000000  0.5192070000000  0.5450380000000 1.0
C      1  0.4997970000000  0.4681330000000  0.5642580000000 1.0
C      1  0.5260310000000  0.5386840000000  0.4382800000000 1.0
C      1  0.4808040000000  0.4619080000000  0.4634270000000 1.0
C      1  0.4293600000000  0.5265030000000  0.5101010000000 1.0
C      1  0.5232610000000  0.5289470000000  0.5600600000000 1.0
C      1  0.4405130000000  0.5370630000000  0.4865430000000 1.0
C      1  0.5230150000000  0.4345970000000  0.4645090000000 1.0
C      1  0.4653890000000  0.5565540000000  0.5173960000000 1.0
C      1  0.5331080000000  0.5115160000000  0.4434740000000 1.0
C      1  0.4664450000000  0.4417270000000  0.5112240000000 1.0
C      1  0.4547220000000  0.4756040000000  0.5711610000000 1.0
C      1  0.5262190000000  0.5728590000000  0.5010350000000 1.0
C      1  0.4618010000000  0.4528020000000  0.4847190000000 1.0
C      1  0.5081500000000  0.5906900000000  0.4844900000000 1.0
C      1  0.4457900000000  0.4918770000000  0.4682430000000 1.0
C      1  0.5025270000000  0.5429220000000  0.4241820000000 1.0
C      1  0.5454710000000  0.5192880000000  0.5437260000000 1.0
C      1  0.4574450000000  0.4528630000000  0.5553870000000 1.0
C      1  0.4961800000000  0.5371410000000  0.5530630000000 1.0
C      1  0.4820760000000  0.5131910000000  0.4996940000000 1.0
C      1  0.5349620000000  0.5516160000000  0.4848970000000 1.0
C      1  0.4670360000000  0.4845440000000  0.4503100000000 1.0
C      1  0.5164370000000  0.4279320000000  0.5163250000000 1.0
END
