TITL C-73783-7012-9 480.328767385711 125000 -830.213858047285 0 0 116 (C1) n - 1
REM
REM in /rds/project/t2_vol4/rds-t2-cs072/BORA/CARBON/from-Arr/AIRSS/Generating-Clusters/GAP-ML-2020/Only-C1/SD-CG/HFTN-CG
REM
REM
REM
REM
REM
REM ./C.cell (11c1c37f851c82e70ff6c80c92926a4b)
REM AIRSS Version 0.9.1 bugfix July 2018 build 013d7b7c2542+ Fri, 06 Jul 2018 19:26:36 +0100
REM compiler GCC version 9.3.0
REM options -cpp -mtune=generic -march=x86-64 -g -O0
REM seed 1370305631 -1956044294 1430084417 1478705957 1293135523 -55501474 1809084272 1573860116 1688394747 731944002 -1107547360 -1062448100 1448127448 1916438490 -446811277 -1635332854 57857020 -87832969 -1862640101 -1462681713 -1273893768 866322268 -1063917814 -2118039048 -1055208721 -1564612890 -892020547 1102668818 -844761661 -997947350 498715876 -143460892 -1780833434
REM
CELL 1.54180   50.00000   50.00000   50.00000   90.00000   90.00000   90.00000
LATT -1
SFAC C  
C      1  0.4259660000000  0.5038650000000  0.5578690000000 1.0
C      1  0.5612770000000  0.5386040000000  0.4456020000000 1.0
C      1  0.4059330000000  0.4963270000000  0.4835980000000 1.0
C      1  0.5785680000000  0.4894160000000  0.4532160000000 1.0
C      1  0.5623560000000  0.5209240000000  0.5480690000000 1.0
C      1  0.4659710000000  0.4933340000000  0.4813030000000 1.0
C      1  0.5574630000000  0.5647870000000  0.4878990000000 1.0
C      1  0.5783780000000  0.5190300000000  0.4582460000000 1.0
C      1  0.5278110000000  0.4413910000000  0.4295390000000 1.0
C      1  0.5098470000000  0.5560420000000  0.5719660000000 1.0
C      1  0.4789690000000  0.5838250000000  0.4806770000000 1.0
C      1  0.4222870000000  0.4502480000000  0.4789830000000 1.0
C      1  0.5273310000000  0.4953410000000  0.5862850000000 1.0
C      1  0.5505750000000  0.4472400000000  0.4448100000000 1.0
C      1  0.5124170000000  0.5890220000000  0.5136920000000 1.0
C      1  0.4250240000000  0.5086810000000  0.4402080000000 1.0
C      1  0.4638170000000  0.5047480000000  0.5086610000000 1.0
C      1  0.5598430000000  0.5277030000000  0.5755290000000 1.0
C      1  0.4487960000000  0.4628110000000  0.5668850000000 1.0
C      1  0.4703680000000  0.4241770000000  0.4864560000000 1.0
C      1  0.5010430000000  0.5382000000000  0.6149260000000 1.0
C      1  0.4938300000000  0.5761990000000  0.4560930000000 1.0
C      1  0.4834910000000  0.5130580000000  0.4666220000000 1.0
C      1  0.5013800000000  0.4906640000000  0.5940150000000 1.0
C      1  0.5245860000000  0.5767230000000  0.5544470000000 1.0
C      1  0.5126410000000  0.4596680000000  0.5504860000000 1.0
C      1  0.4769140000000  0.5065740000000  0.5840690000000 1.0
C      1  0.5514870000000  0.5608860000000  0.4607050000000 1.0
C      1  0.5485430000000  0.4300040000000  0.5323860000000 1.0
C      1  0.4617460000000  0.4270150000000  0.4596190000000 1.0
C      1  0.4852770000000  0.5825710000000  0.5079030000000 1.0
C      1  0.4926840000000  0.4487360000000  0.5708920000000 1.0
C      1  0.5183240000000  0.5482990000000  0.4299180000000 1.0
C      1  0.5860340000000  0.4592950000000  0.5201070000000 1.0
C      1  0.5669240000000  0.4508800000000  0.5394810000000 1.0
C      1  0.5735850000000  0.5460720000000  0.5020200000000 1.0
C      1  0.5236000000000  0.4621240000000  0.4111940000000 1.0
C      1  0.4475130000000  0.5658470000000  0.5424450000000 1.0
C      1  0.4154560000000  0.4965740000000  0.5099420000000 1.0
C      1  0.5924270000000  0.4985940000000  0.4965380000000 1.0
C      1  0.5211880000000  0.5433890000000  0.5975490000000 1.0
C      1  0.4221420000000  0.4713290000000  0.5229060000000 1.0
C      1  0.5877970000000  0.4775890000000  0.4776950000000 1.0
C      1  0.4968940000000  0.4665140000000  0.4055140000000 1.0
C      1  0.4438340000000  0.5542410000000  0.5169900000000 1.0
C      1  0.4290220000000  0.4771570000000  0.5504250000000 1.0
C      1  0.4302280000000  0.4481800000000  0.5063340000000 1.0
C      1  0.4811060000000  0.4310550000000  0.4384220000000 1.0
C      1  0.4916100000000  0.5328580000000  0.4854440000000 1.0
C      1  0.4716390000000  0.4287560000000  0.5324500000000 1.0
C      1  0.5328080000000  0.4826400000000  0.5601380000000 1.0
C      1  0.5001240000000  0.4635890000000  0.4996530000000 1.0
C      1  0.5051750000000  0.5137080000000  0.4048810000000 1.0
C      1  0.5183530000000  0.4243460000000  0.4712670000000 1.0
C      1  0.4336890000000  0.4591490000000  0.4349680000000 1.0
C      1  0.5602490000000  0.4742040000000  0.5539790000000 1.0
C      1  0.4769710000000  0.4506180000000  0.4179170000000 1.0
C      1  0.5587450000000  0.4144270000000  0.5115440000000 1.0
C      1  0.4542700000000  0.4670460000000  0.4185550000000 1.0
C      1  0.5171070000000  0.5456770000000  0.4826590000000 1.0
C      1  0.4144690000000  0.5183860000000  0.4659870000000 1.0
C      1  0.5253380000000  0.4798060000000  0.5001700000000 1.0
C      1  0.4726250000000  0.5634610000000  0.5275310000000 1.0
C      1  0.4363910000000  0.5214530000000  0.5098640000000 1.0
C      1  0.4904960000000  0.5205780000000  0.5112450000000 1.0
C      1  0.5652160000000  0.4303920000000  0.4894300000000 1.0
C      1  0.5764480000000  0.4956080000000  0.5447950000000 1.0
C      1  0.5413480000000  0.5325180000000  0.4256170000000 1.0
C      1  0.4087250000000  0.4731440000000  0.4690110000000 1.0
C      1  0.4678300000000  0.4415500000000  0.5579520000000 1.0
C      1  0.4182790000000  0.4808620000000  0.4429520000000 1.0
C      1  0.4442520000000  0.5230830000000  0.5605510000000 1.0
C      1  0.4507350000000  0.5510930000000  0.5658880000000 1.0
C      1  0.4730710000000  0.5133830000000  0.5539980000000 1.0
C      1  0.5308940000000  0.5670320000000  0.5035080000000 1.0
C      1  0.4929640000000  0.4716910000000  0.5280270000000 1.0
C      1  0.5207650000000  0.5070620000000  0.5142660000000 1.0
C      1  0.4619080000000  0.4782030000000  0.5870390000000 1.0
C      1  0.5837390000000  0.4527020000000  0.4928610000000 1.0
C      1  0.4991290000000  0.4284410000000  0.4941240000000 1.0
C      1  0.5369810000000  0.5565260000000  0.5317120000000 1.0
C      1  0.5181680000000  0.5987690000000  0.5404860000000 1.0
C      1  0.4484970000000  0.5173780000000  0.4244430000000 1.0
C      1  0.5307220000000  0.5202280000000  0.4888310000000 1.0
C      1  0.4542450000000  0.4313280000000  0.5091710000000 1.0
C      1  0.5331880000000  0.5092140000000  0.4111650000000 1.0
C      1  0.4727620000000  0.4911910000000  0.5331450000000 1.0
C      1  0.4372630000000  0.4405780000000  0.4568170000000 1.0
C      1  0.4251860000000  0.5355170000000  0.4847960000000 1.0
C      1  0.4379830000000  0.5603430000000  0.4888420000000 1.0
C      1  0.5080200000000  0.4280050000000  0.4449280000000 1.0
C      1  0.4950950000000  0.5370180000000  0.4175310000000 1.0
C      1  0.4604420000000  0.4945270000000  0.4121140000000 1.0
C      1  0.4695500000000  0.5632300000000  0.4454600000000 1.0
C      1  0.4786360000000  0.5327220000000  0.5990150000000 1.0
C      1  0.4758750000000  0.5534620000000  0.5797650000000 1.0
C      1  0.5392130000000  0.5211860000000  0.5912860000000 1.0
C      1  0.4853800000000  0.4733310000000  0.4755590000000 1.0
C      1  0.5276270000000  0.4944670000000  0.4748450000000 1.0
C      1  0.5464520000000  0.4313430000000  0.4686640000000 1.0
C      1  0.4679330000000  0.5407980000000  0.4267740000000 1.0
C      1  0.5617170000000  0.4733100000000  0.4359730000000 1.0
C      1  0.5201720000000  0.5617400000000  0.4555750000000 1.0
C      1  0.5429970000000  0.4828010000000  0.4155790000000 1.0
C      1  0.4876770000000  0.4659220000000  0.5922990000000 1.0
C      1  0.5213560000000  0.4334990000000  0.5384610000000 1.0
C      1  0.5629540000000  0.5437780000000  0.5287150000000 1.0
C      1  0.5030630000000  0.4913050000000  0.4602900000000 1.0
C      1  0.5159030000000  0.5375290000000  0.5476940000000 1.0
C      1  0.4870370000000  0.4929880000000  0.4020020000000 1.0
C      1  0.4550760000000  0.5725420000000  0.4696980000000 1.0
C      1  0.4886520000000  0.5358920000000  0.5360000000000 1.0
C      1  0.5910580000000  0.4871650000000  0.5225530000000 1.0
C      1  0.4993170000000  0.4229790000000  0.5236710000000 1.0
C      1  0.5304790000000  0.5107410000000  0.5427850000000 1.0
C      1  0.5852710000000  0.5242260000000  0.4859520000000 1.0
END
