TITL C-73835-5401-4 -0.0615468118592058 125000 -101.589499541268 0 0 16 (C1) n - 1
REM
REM in /rds/project/t2_vol4/rds-t2-cs072/BORA/CARBON/from-Arr/AIRSS/Generating-Clusters/GAP-ML-2020/Only-C1/SD-CG/HFTN-CG
REM
REM
REM
REM
REM
REM ./C.cell (11c1c37f851c82e70ff6c80c92926a4b)
REM AIRSS Version 0.9.1 bugfix July 2018 build 013d7b7c2542+ Fri, 06 Jul 2018 19:26:36 +0100
REM compiler GCC version 9.3.0
REM options -cpp -mtune=generic -march=x86-64 -g -O0
REM seed 380770779 -2038992259 478214601 -1150441608 -1934663422 -143088468 1657232039 1209077579 464321637 1908123875 -2114455360 1492317960 1260368333 1207308094 1016820321 -1874529845 -965972706 1871310471 1916921894 -1400863441 1138803288 -241063572 407534134 -554810589 1945685171 -319223853 1991780654 -1479916416 -837961622 263423280 -21817537 1980377198 -356695554
REM
CELL 1.54180   50.00000   50.00000   50.00000   90.00000   90.00000   90.00000
LATT -1
SFAC C  
C      1  0.4720550000000  0.5329520000000  0.5247090000000 1.0
C      1  0.5616500000000  0.5125080000000  0.5111810000000 1.0
C      1  0.5118180000000  0.4625000000000  0.4969090000000 1.0
C      1  0.5372080000000  0.5010690000000  0.5151480000000 1.0
C      1  0.4663950000000  0.4601550000000  0.4521570000000 1.0
C      1  0.5255320000000  0.5511270000000  0.5066430000000 1.0
C      1  0.5396410000000  0.5295680000000  0.5123740000000 1.0
C      1  0.4606880000000  0.4817430000000  0.4659670000000 1.0
C      1  0.4713120000000  0.5083340000000  0.5074670000000 1.0
C      1  0.5045610000000  0.5654270000000  0.5073310000000 1.0
C      1  0.5030340000000  0.4485350000000  0.4780620000000 1.0
C      1  0.5151700000000  0.4836880000000  0.5149850000000 1.0
C      1  0.4920620000000  0.4976070000000  0.5238040000000 1.0
C      1  0.4619930000000  0.4996930000000  0.4839170000000 1.0
C      1  0.4861680000000  0.4438240000000  0.4580030000000 1.0
C      1  0.4907150000000  0.5212700000000  0.5413440000000 1.0
END
