TITL C-73814-467-3 -0.675056877493753 125000 -210.849453354998 0 0 32 (C1) n - 1
REM
REM in /rds/project/t2_vol4/rds-t2-cs072/BORA/CARBON/from-Arr/AIRSS/Generating-Clusters/GAP-ML-2020/Only-C1/SD-CG/HFTN-CG
REM
REM
REM
REM
REM
REM ./C.cell (11c1c37f851c82e70ff6c80c92926a4b)
REM AIRSS Version 0.9.1 bugfix July 2018 build 013d7b7c2542+ Fri, 06 Jul 2018 19:26:36 +0100
REM compiler GCC version 9.3.0
REM options -cpp -mtune=generic -march=x86-64 -g -O0
REM seed -2009228085 -512756732 -1418183171 468679452 -1823808807 868134528 1632566477 84365366 -1684455754 1960509844 1621251940 2013922664 -1394261232 -366871489 -148571709 1172119159 -1783787417 615283249 -646755706 -2023392278 54787620 1073969847 1202875394 -2027260658 1075277437 -941166817 148496849 1535711458 533531946 -238018164 -22661050 -1680179602 -385821887
REM
CELL 1.54180   50.00000   50.00000   50.00000   90.00000   90.00000   90.00000
LATT -1
SFAC C  
C      1  0.5161420000000  0.4771420000000  0.4693140000000 1.0
C      1  0.4775660000000  0.5363620000000  0.4579390000000 1.0
C      1  0.4619170000000  0.4703480000000  0.5155090000000 1.0
C      1  0.5048740000000  0.4952040000000  0.5151760000000 1.0
C      1  0.5040900000000  0.5473810000000  0.4654500000000 1.0
C      1  0.5372360000000  0.4670040000000  0.5359530000000 1.0
C      1  0.4615990000000  0.5071350000000  0.4879760000000 1.0
C      1  0.5409410000000  0.5136560000000  0.4572960000000 1.0
C      1  0.5005200000000  0.4453570000000  0.5369260000000 1.0
C      1  0.5183380000000  0.5278720000000  0.4485990000000 1.0
C      1  0.4899630000000  0.5154860000000  0.5008580000000 1.0
C      1  0.4936910000000  0.5144460000000  0.4456490000000 1.0
C      1  0.4775100000000  0.5044080000000  0.5562190000000 1.0
C      1  0.5090680000000  0.5397570000000  0.4931590000000 1.0
C      1  0.5321630000000  0.5063770000000  0.5183240000000 1.0
C      1  0.4921540000000  0.5552910000000  0.5129920000000 1.0
C      1  0.4948780000000  0.4853320000000  0.5440750000000 1.0
C      1  0.4767200000000  0.4644500000000  0.4921060000000 1.0
C      1  0.5387360000000  0.4855590000000  0.4565280000000 1.0
C      1  0.4533600000000  0.4976780000000  0.5146020000000 1.0
C      1  0.5204350000000  0.4503920000000  0.5164700000000 1.0
C      1  0.4927060000000  0.4890030000000  0.4571240000000 1.0
C      1  0.4565460000000  0.5308240000000  0.4727840000000 1.0
C      1  0.5493890000000  0.4910260000000  0.5332160000000 1.0
C      1  0.4629350000000  0.5159980000000  0.5359340000000 1.0
C      1  0.4778750000000  0.5351020000000  0.5217200000000 1.0
C      1  0.4703610000000  0.4833150000000  0.4728620000000 1.0
C      1  0.5535440000000  0.5267890000000  0.4785000000000 1.0
C      1  0.5153240000000  0.4648580000000  0.5533400000000 1.0
C      1  0.5072410000000  0.4682050000000  0.4972890000000 1.0
C      1  0.5353480000000  0.5270850000000  0.4991920000000 1.0
C      1  0.4768310000000  0.4611610000000  0.5369190000000 1.0
END
