TITL C-73859-7293-7 -0.251369993080614 125000 -817.985504702828 0 0 118 (C1) n - 1
REM
REM in /rds/project/t2_vol4/rds-t2-cs072/BORA/CARBON/from-Arr/AIRSS/Generating-Clusters/GAP-ML-2020/Only-C1/SD-CG/HFTN-CG
REM
REM
REM
REM
REM
REM ./C.cell (11c1c37f851c82e70ff6c80c92926a4b)
REM AIRSS Version 0.9.1 bugfix July 2018 build 013d7b7c2542+ Fri, 06 Jul 2018 19:26:36 +0100
REM compiler GCC version 9.3.0
REM options -cpp -mtune=generic -march=x86-64 -g -O0
REM seed 504043941 416995502 -1111413446 -1436264666 640620532 825791472 -945117596 -259599149 -840502885 1311844907 589668367 -378266423 -1002280376 177904424 711986253 1382795309 -424317466 1890934174 1695809152 -2015114248 590748449 -326060364 690293182 -573030481 1794190438 -813161457 393635454 652358751 1014913965 695645697 2001450906 -536708249 2092825384
REM
CELL 1.54180   50.00000   50.00000   50.00000   90.00000   90.00000   90.00000
LATT -1
SFAC C  
C      1  0.5373740000000  0.4364410000000  0.4421340000000 1.0
C      1  0.5132520000000  0.4529710000000  0.5013850000000 1.0
C      1  0.4258610000000  0.5440550000000  0.4849060000000 1.0
C      1  0.5765840000000  0.5444370000000  0.4690670000000 1.0
C      1  0.5412890000000  0.5016410000000  0.4853960000000 1.0
C      1  0.4547200000000  0.5705860000000  0.4691610000000 1.0
C      1  0.5011530000000  0.5266650000000  0.5918190000000 1.0
C      1  0.4298670000000  0.5201150000000  0.5404660000000 1.0
C      1  0.5254640000000  0.5983730000000  0.4588200000000 1.0
C      1  0.4827820000000  0.5431250000000  0.5720920000000 1.0
C      1  0.4498570000000  0.4272950000000  0.5325650000000 1.0
C      1  0.4464800000000  0.5253770000000  0.4397400000000 1.0
C      1  0.4279820000000  0.4839280000000  0.4612670000000 1.0
C      1  0.5276530000000  0.4699830000000  0.5716560000000 1.0
C      1  0.4955930000000  0.4832900000000  0.5327230000000 1.0
C      1  0.5322390000000  0.5525340000000  0.4772410000000 1.0
C      1  0.4233730000000  0.4940060000000  0.4907770000000 1.0
C      1  0.5727750000000  0.4547670000000  0.4648780000000 1.0
C      1  0.5151010000000  0.4757910000000  0.4075920000000 1.0
C      1  0.5099950000000  0.5702890000000  0.4905410000000 1.0
C      1  0.5627450000000  0.5360950000000  0.5126820000000 1.0
C      1  0.5836900000000  0.4871780000000  0.4959660000000 1.0
C      1  0.4909130000000  0.5000140000000  0.5957970000000 1.0
C      1  0.4772770000000  0.5792330000000  0.4539750000000 1.0
C      1  0.5710230000000  0.5149110000000  0.5325120000000 1.0
C      1  0.5257130000000  0.5782770000000  0.5145540000000 1.0
C      1  0.4098300000000  0.4672880000000  0.5355690000000 1.0
C      1  0.5139730000000  0.4239650000000  0.5439770000000 1.0
C      1  0.4998030000000  0.4982210000000  0.4516420000000 1.0
C      1  0.4760220000000  0.5646110000000  0.4279300000000 1.0
C      1  0.5346270000000  0.4279430000000  0.4695630000000 1.0
C      1  0.4916690000000  0.5610740000000  0.5494220000000 1.0
C      1  0.5615480000000  0.4807840000000  0.4277700000000 1.0
C      1  0.5550660000000  0.4823930000000  0.5750190000000 1.0
C      1  0.4437290000000  0.5471270000000  0.5419730000000 1.0
C      1  0.4869490000000  0.4261110000000  0.4644360000000 1.0
C      1  0.5319590000000  0.4430110000000  0.5549810000000 1.0
C      1  0.5237850000000  0.4900130000000  0.4666330000000 1.0
C      1  0.4341540000000  0.4723260000000  0.5527570000000 1.0
C      1  0.5574650000000  0.5685290000000  0.4772650000000 1.0
C      1  0.5010670000000  0.5886190000000  0.4681590000000 1.0
C      1  0.5543290000000  0.5123160000000  0.5781390000000 1.0
C      1  0.5734330000000  0.5549600000000  0.5528700000000 1.0
C      1  0.4815410000000  0.4824500000000  0.4765410000000 1.0
C      1  0.5686390000000  0.5619720000000  0.5266420000000 1.0
C      1  0.4485560000000  0.5400590000000  0.4655330000000 1.0
C      1  0.4138500000000  0.5223640000000  0.4963330000000 1.0
C      1  0.5397780000000  0.4906900000000  0.4117180000000 1.0
C      1  0.5171980000000  0.5655200000000  0.5386930000000 1.0
C      1  0.4391110000000  0.5682290000000  0.4945680000000 1.0
C      1  0.5662640000000  0.4712190000000  0.5510550000000 1.0
C      1  0.4437590000000  0.4966680000000  0.4392410000000 1.0
C      1  0.5847710000000  0.4803450000000  0.4682940000000 1.0
C      1  0.5537280000000  0.4909460000000  0.5328330000000 1.0
C      1  0.4067250000000  0.5146270000000  0.5232320000000 1.0
C      1  0.4671690000000  0.4874350000000  0.5817100000000 1.0
C      1  0.5911640000000  0.5108430000000  0.5085280000000 1.0
C      1  0.5083390000000  0.4265820000000  0.4858080000000 1.0
C      1  0.4878790000000  0.4584960000000  0.5184480000000 1.0
C      1  0.5372080000000  0.5291870000000  0.4958430000000 1.0
C      1  0.4310030000000  0.4325590000000  0.5119930000000 1.0
C      1  0.4717550000000  0.4400650000000  0.5702800000000 1.0
C      1  0.4446360000000  0.4427910000000  0.4882700000000 1.0
C      1  0.4483610000000  0.4946450000000  0.5353620000000 1.0
C      1  0.4052790000000  0.4869580000000  0.5159170000000 1.0
C      1  0.4981500000000  0.5263560000000  0.4586180000000 1.0
C      1  0.5690700000000  0.5266720000000  0.4475500000000 1.0
C      1  0.5031500000000  0.5197400000000  0.4098290000000 1.0
C      1  0.5209780000000  0.5374550000000  0.5359450000000 1.0
C      1  0.4530650000000  0.5408810000000  0.5691930000000 1.0
C      1  0.4612580000000  0.5416600000000  0.4218020000000 1.0
C      1  0.4355480000000  0.5179260000000  0.5702630000000 1.0
C      1  0.4586990000000  0.4262340000000  0.4673190000000 1.0
C      1  0.4747700000000  0.4963220000000  0.5498580000000 1.0
C      1  0.5500450000000  0.5917490000000  0.4614140000000 1.0
C      1  0.4464170000000  0.4417510000000  0.4462450000000 1.0
C      1  0.4981390000000  0.5010120000000  0.5092010000000 1.0
C      1  0.5767790000000  0.4978750000000  0.4456260000000 1.0
C      1  0.5433120000000  0.5324730000000  0.4350710000000 1.0
C      1  0.4488100000000  0.4456820000000  0.5544430000000 1.0
C      1  0.5456430000000  0.4529030000000  0.5081070000000 1.0
C      1  0.4502740000000  0.4900000000000  0.5058410000000 1.0
C      1  0.4079040000000  0.4441110000000  0.5216220000000 1.0
C      1  0.4878290000000  0.5435390000000  0.4114350000000 1.0
C      1  0.4302580000000  0.4562440000000  0.4640100000000 1.0
C      1  0.4897930000000  0.5214220000000  0.5539810000000 1.0
C      1  0.4758620000000  0.5611440000000  0.5256720000000 1.0
C      1  0.5317270000000  0.5175130000000  0.4138270000000 1.0
C      1  0.5184480000000  0.5170300000000  0.5547850000000 1.0
C      1  0.5533450000000  0.5767560000000  0.5087170000000 1.0
C      1  0.5596560000000  0.4543400000000  0.4397770000000 1.0
C      1  0.4903870000000  0.4376870000000  0.4381320000000 1.0
C      1  0.5223210000000  0.5413420000000  0.4528880000000 1.0
C      1  0.4664640000000  0.4532200000000  0.4303440000000 1.0
C      1  0.4801620000000  0.4610470000000  0.5863530000000 1.0
C      1  0.5117230000000  0.5280850000000  0.5103810000000 1.0
C      1  0.4487710000000  0.5666010000000  0.5217100000000 1.0
C      1  0.5554140000000  0.4821090000000  0.5051100000000 1.0
C      1  0.4389000000000  0.4906860000000  0.5774910000000 1.0
C      1  0.4644920000000  0.4811110000000  0.4242160000000 1.0
C      1  0.5562050000000  0.4400400000000  0.4836470000000 1.0
C      1  0.4881180000000  0.4213800000000  0.5559010000000 1.0
C      1  0.5150370000000  0.4404330000000  0.4241600000000 1.0
C      1  0.4925150000000  0.4927770000000  0.4199980000000 1.0
C      1  0.5531540000000  0.4492220000000  0.5383200000000 1.0
C      1  0.5021380000000  0.4153560000000  0.5165120000000 1.0
C      1  0.4758430000000  0.4142730000000  0.5309530000000 1.0
C      1  0.4650300000000  0.4644290000000  0.4983260000000 1.0
C      1  0.5238700000000  0.4894480000000  0.5456090000000 1.0
C      1  0.4764740000000  0.5324330000000  0.4795870000000 1.0
C      1  0.4730880000000  0.5058860000000  0.4936520000000 1.0
C      1  0.5151520000000  0.4503530000000  0.3972600000000 1.0
C      1  0.5054050000000  0.4742550000000  0.5913140000000 1.0
C      1  0.5084380000000  0.4794610000000  0.4882520000000 1.0
C      1  0.5278910000000  0.5232970000000  0.5815360000000 1.0
C      1  0.4907250000000  0.5496150000000  0.5010160000000 1.0
C      1  0.5854200000000  0.5335450000000  0.4929860000000 1.0
C      1  0.5710620000000  0.5277990000000  0.5595380000000 1.0
END
