TITL C-73853-5689-7 -16.2447389556515 125000 -146.449042268625 0 0 23 (C1) n - 1
REM
REM in /rds/project/t2_vol4/rds-t2-cs072/BORA/CARBON/from-Arr/AIRSS/Generating-Clusters/GAP-ML-2020/Only-C1/SD-CG/HFTN-CG
REM
REM
REM
REM
REM
REM ./C.cell (11c1c37f851c82e70ff6c80c92926a4b)
REM AIRSS Version 0.9.1 bugfix July 2018 build 013d7b7c2542+ Fri, 06 Jul 2018 19:26:36 +0100
REM compiler GCC version 9.3.0
REM options -cpp -mtune=generic -march=x86-64 -g -O0
REM seed -1501699953 -168339706 2088818138 366175359 -603644048 1141159913 270217897 -335836859 -97568984 -107696256 -330626520 -1217564930 1125972931 -168394747 1515488062 1753333027 -514988787 -52798411 -694529648 -439173668 -2116257403 818284266 1895336954 1438311184 279685156 -1215040361 610785591 628843327 141646268 181973489 158593363 774591994 -1330556208
REM
CELL 1.54180   50.00000   50.00000   50.00000   90.00000   90.00000   90.00000
LATT -1
SFAC C  
C      1  0.5642390000000  0.5018210000000  0.5411150000000 1.0
C      1  0.4889880000000  0.4665600000000  0.5282020000000 1.0
C      1  0.4764120000000  0.4888290000000  0.4607620000000 1.0
C      1  0.5555860000000  0.4988660000000  0.4903240000000 1.0
C      1  0.5195090000000  0.4670890000000  0.4775480000000 1.0
C      1  0.4897900000000  0.4698420000000  0.4787360000000 1.0
C      1  0.5127220000000  0.5160710000000  0.4752890000000 1.0
C      1  0.4834340000000  0.5517690000000  0.4789230000000 1.0
C      1  0.5057930000000  0.4751710000000  0.5449450000000 1.0
C      1  0.4758670000000  0.4699230000000  0.5036650000000 1.0
C      1  0.5152860000000  0.4989190000000  0.5561330000000 1.0
C      1  0.5344980000000  0.4448460000000  0.4780230000000 1.0
C      1  0.4642710000000  0.5257940000000  0.5260220000000 1.0
C      1  0.4500380000000  0.4925840000000  0.4718260000000 1.0
C      1  0.5316890000000  0.4954110000000  0.4779100000000 1.0
C      1  0.4749300000000  0.5367520000000  0.4600360000000 1.0
C      1  0.4469640000000  0.5089620000000  0.5189450000000 1.0
C      1  0.5106100000000  0.5207310000000  0.5427260000000 1.0
C      1  0.5027950000000  0.5370970000000  0.4947160000000 1.0
C      1  0.4942370000000  0.5312080000000  0.5230740000000 1.0
C      1  0.4520460000000  0.4888560000000  0.4993680000000 1.0
C      1  0.5598630000000  0.5000160000000  0.5157460000000 1.0
C      1  0.4904320000000  0.5128800000000  0.4559670000000 1.0
END
