TITL C-73804-7138-7 -0.0761884080079886 125000 -663.526330989327 0 0 96 (C1) n - 1
REM
REM in /rds/project/t2_vol4/rds-t2-cs072/BORA/CARBON/from-Arr/AIRSS/Generating-Clusters/GAP-ML-2020/Only-C1/SD-CG/HFTN-CG
REM
REM
REM
REM
REM
REM ./C.cell (11c1c37f851c82e70ff6c80c92926a4b)
REM AIRSS Version 0.9.1 bugfix July 2018 build 013d7b7c2542+ Fri, 06 Jul 2018 19:26:36 +0100
REM compiler GCC version 9.3.0
REM options -cpp -mtune=generic -march=x86-64 -g -O0
REM seed 653299762 -324407387 -1547240140 -186221599 -1811375386 2036169760 -961625544 998820344 1038773956 367942077 -2089532417 -332421919 -60254768 -1770557727 -265773608 -164591471 -684602476 -1309740535 143365051 1926602089 1254399554 -1111421864 -1690604875 -1733462263 1583616903 22548989 -1475929739 -1217962825 -1856360082 1066685406 -761754584 2074764480 717751677
REM
CELL 1.54180   50.00000   50.00000   50.00000   90.00000   90.00000   90.00000
LATT -1
SFAC C  
C      1  0.5720650000000  0.4631600000000  0.5182760000000 1.0
C      1  0.5715070000000  0.4846760000000  0.4528170000000 1.0
C      1  0.4624360000000  0.5040370000000  0.5824350000000 1.0
C      1  0.4865210000000  0.4328980000000  0.5456570000000 1.0
C      1  0.5038150000000  0.5613250000000  0.4348560000000 1.0
C      1  0.4774130000000  0.4246260000000  0.4486100000000 1.0
C      1  0.4484630000000  0.5277340000000  0.5405660000000 1.0
C      1  0.5107610000000  0.4651660000000  0.4789330000000 1.0
C      1  0.4990740000000  0.5245170000000  0.4056360000000 1.0
C      1  0.4848680000000  0.4871240000000  0.4105230000000 1.0
C      1  0.4587890000000  0.5733860000000  0.4857010000000 1.0
C      1  0.4969130000000  0.4243660000000  0.4671890000000 1.0
C      1  0.5399080000000  0.4645500000000  0.5755180000000 1.0
C      1  0.5494020000000  0.5000020000000  0.4416870000000 1.0
C      1  0.4692530000000  0.5014030000000  0.4771270000000 1.0
C      1  0.4080720000000  0.4932230000000  0.4887280000000 1.0
C      1  0.3978090000000  0.4679140000000  0.4956340000000 1.0
C      1  0.5002660000000  0.5283900000000  0.5002680000000 1.0
C      1  0.5099680000000  0.5816800000000  0.5051000000000 1.0
C      1  0.4903310000000  0.4662230000000  0.5951210000000 1.0
C      1  0.5078570000000  0.5159750000000  0.4559810000000 1.0
C      1  0.4694990000000  0.5245550000000  0.5603870000000 1.0
C      1  0.5815450000000  0.4931120000000  0.4786760000000 1.0
C      1  0.4475620000000  0.4640350000000  0.4518790000000 1.0
C      1  0.4664990000000  0.4527170000000  0.5840660000000 1.0
C      1  0.5658470000000  0.4998400000000  0.5553560000000 1.0
C      1  0.4576220000000  0.4773740000000  0.5724790000000 1.0
C      1  0.4639840000000  0.4432290000000  0.4938200000000 1.0
C      1  0.4373550000000  0.5043140000000  0.5283580000000 1.0
C      1  0.5503560000000  0.5308270000000  0.4355960000000 1.0
C      1  0.4411950000000  0.4485610000000  0.4751860000000 1.0
C      1  0.5673100000000  0.4574050000000  0.4639900000000 1.0
C      1  0.4320740000000  0.5386370000000  0.4976890000000 1.0
C      1  0.4698670000000  0.4304710000000  0.5670540000000 1.0
C      1  0.5485350000000  0.4394470000000  0.4584210000000 1.0
C      1  0.5295720000000  0.4846420000000  0.4240010000000 1.0
C      1  0.5306300000000  0.5657580000000  0.5153800000000 1.0
C      1  0.4457170000000  0.5489640000000  0.5212030000000 1.0
C      1  0.5226780000000  0.4914310000000  0.5159840000000 1.0
C      1  0.5109010000000  0.4612750000000  0.5766740000000 1.0
C      1  0.5290160000000  0.5372490000000  0.5062230000000 1.0
C      1  0.5734050000000  0.5165720000000  0.4921880000000 1.0
C      1  0.4838730000000  0.4668360000000  0.4863770000000 1.0
C      1  0.5142540000000  0.5465790000000  0.4130860000000 1.0
C      1  0.5427160000000  0.4921160000000  0.5676290000000 1.0
C      1  0.5198350000000  0.4447730000000  0.4584420000000 1.0
C      1  0.5624380000000  0.5264500000000  0.5413840000000 1.0
C      1  0.5335070000000  0.5183480000000  0.5310780000000 1.0
C      1  0.4731230000000  0.5136860000000  0.4145160000000 1.0
C      1  0.4443240000000  0.4552070000000  0.5141400000000 1.0
C      1  0.4900650000000  0.5044060000000  0.5468980000000 1.0
C      1  0.5195270000000  0.5104520000000  0.5577650000000 1.0
C      1  0.4892220000000  0.5769110000000  0.5245820000000 1.0
C      1  0.4854960000000  0.4953150000000  0.5967180000000 1.0
C      1  0.5530510000000  0.4452680000000  0.5331860000000 1.0
C      1  0.4868250000000  0.4235660000000  0.4954090000000 1.0
C      1  0.5266060000000  0.4386280000000  0.5231650000000 1.0
C      1  0.4543040000000  0.5192970000000  0.4347400000000 1.0
C      1  0.4744760000000  0.4886330000000  0.5021110000000 1.0
C      1  0.5110940000000  0.5295060000000  0.5791100000000 1.0
C      1  0.4913760000000  0.5457380000000  0.5657240000000 1.0
C      1  0.5321580000000  0.5652450000000  0.5437670000000 1.0
C      1  0.4548550000000  0.4801880000000  0.5253090000000 1.0
C      1  0.5225920000000  0.5663660000000  0.4570710000000 1.0
C      1  0.5022200000000  0.5647510000000  0.5483930000000 1.0
C      1  0.5567980000000  0.4470750000000  0.5617460000000 1.0
C      1  0.5325280000000  0.5062530000000  0.4681120000000 1.0
C      1  0.4881780000000  0.4628090000000  0.4238510000000 1.0
C      1  0.4767200000000  0.5640650000000  0.4440970000000 1.0
C      1  0.4981990000000  0.4602500000000  0.5499100000000 1.0
C      1  0.4677680000000  0.4487440000000  0.4379610000000 1.0
C      1  0.4742370000000  0.4790680000000  0.5485220000000 1.0
C      1  0.5152410000000  0.4614440000000  0.4329320000000 1.0
C      1  0.4226670000000  0.5125730000000  0.5046170000000 1.0
C      1  0.5183790000000  0.4655180000000  0.5302280000000 1.0
C      1  0.5009580000000  0.4241720000000  0.5207020000000 1.0
C      1  0.5425320000000  0.5421500000000  0.4127630000000 1.0
C      1  0.4427290000000  0.5523000000000  0.4741970000000 1.0
C      1  0.4893820000000  0.5219310000000  0.4748360000000 1.0
C      1  0.4234240000000  0.5001580000000  0.4680130000000 1.0
C      1  0.4221230000000  0.4556500000000  0.4963800000000 1.0
C      1  0.4795270000000  0.5794710000000  0.4678040000000 1.0
C      1  0.5066770000000  0.5805290000000  0.4768580000000 1.0
C      1  0.4482510000000  0.4955090000000  0.4554190000000 1.0
C      1  0.5038740000000  0.5144860000000  0.6006310000000 1.0
C      1  0.4953090000000  0.5047660000000  0.5168930000000 1.0
C      1  0.5786960000000  0.5139370000000  0.5193110000000 1.0
C      1  0.5477640000000  0.5304160000000  0.4826950000000 1.0
C      1  0.5789680000000  0.4666270000000  0.4904430000000 1.0
C      1  0.4539170000000  0.5453470000000  0.4475710000000 1.0
C      1  0.5116220000000  0.4982170000000  0.4064830000000 1.0
C      1  0.4631270000000  0.5709440000000  0.5139310000000 1.0
C      1  0.5274020000000  0.4859500000000  0.4881030000000 1.0
C      1  0.5453150000000  0.5485930000000  0.4590930000000 1.0
C      1  0.5551100000000  0.5523000000000  0.5519740000000 1.0
C      1  0.5779800000000  0.4876870000000  0.5323500000000 1.0
END
