TITL C-73795-7052-6 -38.4063453271185 125000 -285.638402959878 0 0 42 (C1) n - 1
REM
REM in /rds/project/t2_vol4/rds-t2-cs072/BORA/CARBON/from-Arr/AIRSS/Generating-Clusters/GAP-ML-2020/Only-C1/SD-CG/HFTN-CG
REM
REM
REM
REM
REM
REM ./C.cell (11c1c37f851c82e70ff6c80c92926a4b)
REM AIRSS Version 0.9.1 bugfix July 2018 build 013d7b7c2542+ Fri, 06 Jul 2018 19:26:36 +0100
REM compiler GCC version 9.3.0
REM options -cpp -mtune=generic -march=x86-64 -g -O0
REM seed 901029549 1877479005 233584211 -1214858593 565984982 549907072 106826439 123767590 601941881 -2104189665 1237431044 -700100732 847153424 1233169127 -64098351 192401181 2136925671 422747992 -966331371 846558261 -1436306925 496605560 -543629808 674219326 577804154 -803070532 -1807846619 -1003251606 -260599755 -1598173355 -406894743 197600606 -1648372983
REM
CELL 1.54180   50.00000   50.00000   50.00000   90.00000   90.00000   90.00000
LATT -1
SFAC C  
C      1  0.5018810000000  0.5620140000000  0.4920700000000 1.0
C      1  0.4499130000000  0.5223620000000  0.5156540000000 1.0
C      1  0.4793890000000  0.5564880000000  0.5098140000000 1.0
C      1  0.4549570000000  0.4813330000000  0.4840840000000 1.0
C      1  0.4572580000000  0.4717190000000  0.5103440000000 1.0
C      1  0.4915230000000  0.4591450000000  0.5443670000000 1.0
C      1  0.5305900000000  0.4996900000000  0.5628520000000 1.0
C      1  0.5321810000000  0.4713670000000  0.5632550000000 1.0
C      1  0.4957740000000  0.5482600000000  0.4679450000000 1.0
C      1  0.4917280000000  0.5154480000000  0.4358540000000 1.0
C      1  0.5103260000000  0.5335570000000  0.4475680000000 1.0
C      1  0.4904870000000  0.4342380000000  0.4794300000000 1.0
C      1  0.5359330000000  0.4644210000000  0.4960960000000 1.0
C      1  0.4833520000000  0.4328650000000  0.5032470000000 1.0
C      1  0.5355260000000  0.5188920000000  0.4486330000000 1.0
C      1  0.4593350000000  0.5414430000000  0.4968620000000 1.0
C      1  0.4885250000000  0.4708400000000  0.4466670000000 1.0
C      1  0.4453470000000  0.4964880000000  0.5054020000000 1.0
C      1  0.5202390000000  0.4546060000000  0.5426410000000 1.0
C      1  0.5311090000000  0.4928510000000  0.4327900000000 1.0
C      1  0.5440700000000  0.4775930000000  0.4525240000000 1.0
C      1  0.4665160000000  0.4856540000000  0.4591390000000 1.0
C      1  0.5470540000000  0.5020950000000  0.4696230000000 1.0
C      1  0.4864390000000  0.4813760000000  0.5623820000000 1.0
C      1  0.4728050000000  0.5033080000000  0.5558790000000 1.0
C      1  0.5139750000000  0.5442100000000  0.5430070000000 1.0
C      1  0.5303960000000  0.4581020000000  0.4681960000000 1.0
C      1  0.4687040000000  0.5139290000000  0.4525010000000 1.0
C      1  0.4851890000000  0.5461650000000  0.5357560000000 1.0
C      1  0.5301220000000  0.4511550000000  0.5180790000000 1.0
C      1  0.5282050000000  0.5646820000000  0.5304320000000 1.0
C      1  0.5398950000000  0.4941640000000  0.4962280000000 1.0
C      1  0.5030370000000  0.4896400000000  0.4302710000000 1.0
C      1  0.4693230000000  0.5364050000000  0.4707100000000 1.0
C      1  0.4982260000000  0.5145290000000  0.5058130000000 1.0
C      1  0.5259790000000  0.5181740000000  0.5425720000000 1.0
C      1  0.4751990000000  0.4531950000000  0.5218370000000 1.0
C      1  0.5121110000000  0.4846530000000  0.5778530000000 1.0
C      1  0.5225460000000  0.5077660000000  0.5147620000000 1.0
C      1  0.5035850000000  0.4503880000000  0.4609520000000 1.0
C      1  0.5248690000000  0.5706470000000  0.5055300000000 1.0
C      1  0.4663790000000  0.5241420000000  0.5403780000000 1.0
END
