TITL C-73801-8240-1 -14.5259856939196 125000 -257.016568162718 0 0 39 (C1) n - 1
REM
REM in /rds/project/t2_vol4/rds-t2-cs072/BORA/CARBON/from-Arr/AIRSS/Generating-Clusters/GAP-ML-2020/Only-C1/SD-CG/HFTN-CG
REM
REM
REM
REM
REM
REM ./C.cell (11c1c37f851c82e70ff6c80c92926a4b)
REM AIRSS Version 0.9.1 bugfix July 2018 build 013d7b7c2542+ Fri, 06 Jul 2018 19:26:36 +0100
REM compiler GCC version 9.3.0
REM options -cpp -mtune=generic -march=x86-64 -g -O0
REM seed 753963742 524396778 761614035 -752936876 -1089761214 -1185489933 -338135014 787753825 -321846804 957727446 930453845 -247089644 -298108455 -1897329185 -892984359 -736491596 -474445807 -187275676 -1280709200 1346452657 -306844403 -1207409618 991867455 -500823498 33059295 -1121812093 926110632 294771382 -263340387 1662505911 -316189304 1455247639 772048372
REM
CELL 1.54180   50.00000   50.00000   50.00000   90.00000   90.00000   90.00000
LATT -1
SFAC C  
C      1  0.4911390000000  0.5042230000000  0.5578530000000 1.0
C      1  0.5161380000000  0.4648490000000  0.4592670000000 1.0
C      1  0.4487240000000  0.5536140000000  0.5181840000000 1.0
C      1  0.5452900000000  0.4580230000000  0.5054040000000 1.0
C      1  0.5457280000000  0.5228800000000  0.4772800000000 1.0
C      1  0.5042010000000  0.4500610000000  0.4816210000000 1.0
C      1  0.4511460000000  0.5131390000000  0.5038950000000 1.0
C      1  0.5551490000000  0.4770830000000  0.4849160000000 1.0
C      1  0.5307740000000  0.5432150000000  0.4922280000000 1.0
C      1  0.5034460000000  0.5364600000000  0.4967770000000 1.0
C      1  0.4750830000000  0.4795920000000  0.5565370000000 1.0
C      1  0.5059300000000  0.5117080000000  0.4471050000000 1.0
C      1  0.4542370000000  0.4802010000000  0.5358530000000 1.0
C      1  0.4730730000000  0.4720050000000  0.5151790000000 1.0
C      1  0.4757670000000  0.4991440000000  0.5020630000000 1.0
C      1  0.5321420000000  0.5085710000000  0.4569570000000 1.0
C      1  0.4530890000000  0.4594590000000  0.4689490000000 1.0
C      1  0.4795790000000  0.5251040000000  0.5424280000000 1.0
C      1  0.4511280000000  0.4854060000000  0.4582510000000 1.0
C      1  0.5223110000000  0.4432390000000  0.5000860000000 1.0
C      1  0.5608090000000  0.5365440000000  0.5279950000000 1.0
C      1  0.5592700000000  0.5094980000000  0.5219540000000 1.0
C      1  0.4573980000000  0.5409430000000  0.4963220000000 1.0
C      1  0.4956880000000  0.5164640000000  0.5170070000000 1.0
C      1  0.4439650000000  0.5069650000000  0.5303350000000 1.0
C      1  0.4942500000000  0.4710290000000  0.5358510000000 1.0
C      1  0.5407550000000  0.4911520000000  0.5355830000000 1.0
C      1  0.4808360000000  0.5272790000000  0.4542000000000 1.0
C      1  0.5462640000000  0.5519290000000  0.5138550000000 1.0
C      1  0.5501640000000  0.4652730000000  0.5316100000000 1.0
C      1  0.5388570000000  0.4801920000000  0.4621390000000 1.0
C      1  0.5610870000000  0.5040630000000  0.4936670000000 1.0
C      1  0.4580000000000  0.5098530000000  0.4496500000000 1.0
C      1  0.4789190000000  0.4872830000000  0.4742600000000 1.0
C      1  0.4757860000000  0.4590630000000  0.4876170000000 1.0
C      1  0.4810620000000  0.5407560000000  0.4794200000000 1.0
C      1  0.5114870000000  0.4963300000000  0.5359270000000 1.0
C      1  0.4981880000000  0.4851840000000  0.4522620000000 1.0
C      1  0.4531390000000  0.5322270000000  0.5395100000000 1.0
END
