TITL C-73846-6049-7 -0.00373845540241611 125000 -591.810547129835 0 0 84 (C1) n - 1
REM
REM in /rds/project/t2_vol4/rds-t2-cs072/BORA/CARBON/from-Arr/AIRSS/Generating-Clusters/GAP-ML-2020/Only-C1/SD-CG/HFTN-CG
REM
REM
REM
REM
REM
REM ./C.cell (11c1c37f851c82e70ff6c80c92926a4b)
REM AIRSS Version 0.9.1 bugfix July 2018 build 013d7b7c2542+ Fri, 06 Jul 2018 19:26:36 +0100
REM compiler GCC version 9.3.0
REM options -cpp -mtune=generic -march=x86-64 -g -O0
REM seed -262465301 1149370138 -1597097628 -670561781 -1207455685 -704894122 1376891436 1080931964 1167248772 -543585079 -480793467 -1842177190 227567887 1265211812 615514654 -282460878 -1165875409 -1156970798 1869323823 918605058 1329770930 -1850624073 1251733216 335744404 1238881539 1705224598 623948540 -1419750282 1115496965 1650542144 -462977119 -2038271888 -648069055
REM
CELL 1.54180   50.00000   50.00000   50.00000   90.00000   90.00000   90.00000
LATT -1
SFAC C  
C      1  0.5475160000000  0.4938400000000  0.5013100000000 1.0
C      1  0.4682530000000  0.4485370000000  0.4645850000000 1.0
C      1  0.5553670000000  0.4946280000000  0.5624440000000 1.0
C      1  0.5731100000000  0.5412330000000  0.4483570000000 1.0
C      1  0.5567030000000  0.4488450000000  0.4483030000000 1.0
C      1  0.4701690000000  0.5389060000000  0.5577980000000 1.0
C      1  0.4466370000000  0.4601090000000  0.5494630000000 1.0
C      1  0.5006080000000  0.4618080000000  0.5226610000000 1.0
C      1  0.5307660000000  0.4977210000000  0.5259980000000 1.0
C      1  0.5653470000000  0.4707520000000  0.5463510000000 1.0
C      1  0.4495630000000  0.5516960000000  0.4705020000000 1.0
C      1  0.5210160000000  0.4103600000000  0.5232720000000 1.0
C      1  0.5424640000000  0.4405300000000  0.4947390000000 1.0
C      1  0.4805070000000  0.5178500000000  0.5745460000000 1.0
C      1  0.4939460000000  0.4140160000000  0.5239100000000 1.0
C      1  0.5018620000000  0.5082020000000  0.5239150000000 1.0
C      1  0.5178810000000  0.4424310000000  0.4759110000000 1.0
C      1  0.5094930000000  0.5192760000000  0.5750860000000 1.0
C      1  0.4887210000000  0.4387000000000  0.5375170000000 1.0
C      1  0.4696410000000  0.5693530000000  0.4804600000000 1.0
C      1  0.4854170000000  0.5097710000000  0.4244880000000 1.0
C      1  0.5150090000000  0.5877910000000  0.4631810000000 1.0
C      1  0.4365770000000  0.4513780000000  0.5243620000000 1.0
C      1  0.5325090000000  0.5532780000000  0.4818890000000 1.0
C      1  0.4471960000000  0.5496590000000  0.5164330000000 1.0
C      1  0.4870400000000  0.5151300000000  0.4992680000000 1.0
C      1  0.4924200000000  0.4826910000000  0.4304210000000 1.0
C      1  0.4500120000000  0.4337880000000  0.5042020000000 1.0
C      1  0.5231290000000  0.4696280000000  0.5396280000000 1.0
C      1  0.5381100000000  0.5715410000000  0.4583060000000 1.0
C      1  0.4930590000000  0.5682960000000  0.5244410000000 1.0
C      1  0.5606600000000  0.4655730000000  0.4943770000000 1.0
C      1  0.5281650000000  0.4967020000000  0.5755610000000 1.0
C      1  0.4474200000000  0.5343050000000  0.5406830000000 1.0
C      1  0.5482240000000  0.5142480000000  0.5447880000000 1.0
C      1  0.5066230000000  0.4655460000000  0.4923690000000 1.0
C      1  0.5494430000000  0.5513850000000  0.4399630000000 1.0
C      1  0.4854670000000  0.4704660000000  0.5723720000000 1.0
C      1  0.4697670000000  0.4716750000000  0.4460030000000 1.0
C      1  0.5644960000000  0.5182960000000  0.4926430000000 1.0
C      1  0.5189670000000  0.5713170000000  0.5088250000000 1.0
C      1  0.5129910000000  0.4744670000000  0.5678590000000 1.0
C      1  0.4677220000000  0.4929670000000  0.5746970000000 1.0
C      1  0.5534150000000  0.5436450000000  0.4998040000000 1.0
C      1  0.4835000000000  0.4854670000000  0.5254040000000 1.0
C      1  0.5012690000000  0.5333380000000  0.4272910000000 1.0
C      1  0.4246880000000  0.5129360000000  0.4914180000000 1.0
C      1  0.5297850000000  0.4532880000000  0.4500830000000 1.0
C      1  0.5223400000000  0.4894570000000  0.4873030000000 1.0
C      1  0.4487950000000  0.4919760000000  0.4483900000000 1.0
C      1  0.5617070000000  0.4951930000000  0.4518290000000 1.0
C      1  0.5401430000000  0.4294990000000  0.5208970000000 1.0
C      1  0.4770670000000  0.4218320000000  0.5012630000000 1.0
C      1  0.4592770000000  0.5149000000000  0.4355830000000 1.0
C      1  0.4693180000000  0.5671360000000  0.5091880000000 1.0
C      1  0.5717880000000  0.5186470000000  0.4646780000000 1.0
C      1  0.5733660000000  0.4695030000000  0.5206420000000 1.0
C      1  0.5283200000000  0.5285830000000  0.4381570000000 1.0
C      1  0.4267100000000  0.4674360000000  0.4825360000000 1.0
C      1  0.4721580000000  0.4500880000000  0.5575770000000 1.0
C      1  0.4895720000000  0.5736820000000  0.4600400000000 1.0
C      1  0.5188540000000  0.5954760000000  0.4913860000000 1.0
C      1  0.5419320000000  0.5558160000000  0.5224320000000 1.0
C      1  0.4923030000000  0.5552020000000  0.5497990000000 1.0
C      1  0.5384060000000  0.4996190000000  0.4356030000000 1.0
C      1  0.4588780000000  0.5419860000000  0.4452580000000 1.0
C      1  0.5196410000000  0.5322320000000  0.4671430000000 1.0
C      1  0.4890460000000  0.4295490000000  0.4763910000000 1.0
C      1  0.4445320000000  0.4877610000000  0.5580630000000 1.0
C      1  0.5160380000000  0.5430740000000  0.5608640000000 1.0
C      1  0.4697160000000  0.4909970000000  0.5005660000000 1.0
C      1  0.4430830000000  0.4448330000000  0.4782730000000 1.0
C      1  0.4343280000000  0.5082800000000  0.5408200000000 1.0
C      1  0.4219820000000  0.4711200000000  0.5102620000000 1.0
C      1  0.4799250000000  0.4719430000000  0.4823250000000 1.0
C      1  0.4220800000000  0.4990250000000  0.5165160000000 1.0
C      1  0.4300870000000  0.4923500000000  0.4703070000000 1.0
C      1  0.5455720000000  0.4515600000000  0.5403480000000 1.0
C      1  0.5059390000000  0.5118920000000  0.4795630000000 1.0
C      1  0.4348050000000  0.5395590000000  0.4921290000000 1.0
C      1  0.5648190000000  0.4696050000000  0.4643370000000 1.0
C      1  0.4843520000000  0.5536490000000  0.4398950000000 1.0
C      1  0.5403430000000  0.5418370000000  0.5468450000000 1.0
C      1  0.5201270000000  0.4773350000000  0.4349070000000 1.0
END
