TITL C-73851-5564-3 -0.0460373179430762 125000 -171.510967131893 0 0 26 (C1) n - 1
REM
REM in /rds/project/t2_vol4/rds-t2-cs072/BORA/CARBON/from-Arr/AIRSS/Generating-Clusters/GAP-ML-2020/Only-C1/SD-CG/HFTN-CG
REM
REM
REM
REM
REM
REM ./C.cell (11c1c37f851c82e70ff6c80c92926a4b)
REM AIRSS Version 0.9.1 bugfix July 2018 build 013d7b7c2542+ Fri, 06 Jul 2018 19:26:36 +0100
REM compiler GCC version 9.3.0
REM options -cpp -mtune=generic -march=x86-64 -g -O0
REM seed -538894878 1944619105 -1632436013 649466096 -876272618 67192831 694973822 -1031524301 1060822774 2063223773 458429103 -853542 -358201376 -1069139514 -1935324401 380567721 574773395 -828063958 1340469424 1046678417 -287297826 -1105288981 1331159156 1900682367 300157968 1053558829 218824332 514880808 -535639538 -125016376 -351242668 1338635371 1692044676
REM
CELL 1.54180   50.00000   50.00000   50.00000   90.00000   90.00000   90.00000
LATT -1
SFAC C  
C      1  0.5442630000000  0.5173570000000  0.4956440000000 1.0
C      1  0.4549560000000  0.4960520000000  0.4776950000000 1.0
C      1  0.5428440000000  0.5170010000000  0.5435520000000 1.0
C      1  0.5327310000000  0.5065100000000  0.4711770000000 1.0
C      1  0.5258780000000  0.5398400000000  0.4952320000000 1.0
C      1  0.4842480000000  0.5475580000000  0.5216110000000 1.0
C      1  0.4842970000000  0.4370450000000  0.5017350000000 1.0
C      1  0.5132070000000  0.5475880000000  0.5184740000000 1.0
C      1  0.5486800000000  0.4744040000000  0.5167880000000 1.0
C      1  0.5239960000000  0.5366750000000  0.5435310000000 1.0
C      1  0.4424040000000  0.4614690000000  0.5115120000000 1.0
C      1  0.4615540000000  0.4431090000000  0.5113440000000 1.0
C      1  0.4878520000000  0.5307780000000  0.4645630000000 1.0
C      1  0.4783050000000  0.4553920000000  0.4583290000000 1.0
C      1  0.5486790000000  0.5027530000000  0.5198680000000 1.0
C      1  0.4817330000000  0.5477110000000  0.5503550000000 1.0
C      1  0.5230960000000  0.4584260000000  0.4782650000000 1.0
C      1  0.4966140000000  0.4469840000000  0.4786870000000 1.0
C      1  0.4658530000000  0.5237010000000  0.4809050000000 1.0
C      1  0.4422110000000  0.4832750000000  0.4983810000000 1.0
C      1  0.4670100000000  0.4776250000000  0.4596080000000 1.0
C      1  0.5285140000000  0.4818770000000  0.4631540000000 1.0
C      1  0.5390930000000  0.4571420000000  0.5016750000000 1.0
C      1  0.4657820000000  0.5384410000000  0.5043120000000 1.0
C      1  0.5029260000000  0.5404270000000  0.5627490000000 1.0
C      1  0.5132750000000  0.5308600000000  0.4708560000000 1.0
END
