TITL C-73832-5424-8 0.0214556120165318 125000 -115.58691088374 0 0 18 (C1) n - 1
REM
REM in /rds/project/t2_vol4/rds-t2-cs072/BORA/CARBON/from-Arr/AIRSS/Generating-Clusters/GAP-ML-2020/Only-C1/SD-CG/HFTN-CG
REM
REM
REM
REM
REM
REM ./C.cell (11c1c37f851c82e70ff6c80c92926a4b)
REM AIRSS Version 0.9.1 bugfix July 2018 build 013d7b7c2542+ Fri, 06 Jul 2018 19:26:36 +0100
REM compiler GCC version 9.3.0
REM options -cpp -mtune=generic -march=x86-64 -g -O0
REM seed -1932772785 1064964764 1642942037 -886719547 -152925813 -306358645 -711676609 2037367438 561345943 1217441028 -277210745 1360663983 1459223793 1741162736 -120723410 1851150820 94339981 -333760150 1221436891 1088482912 1948443141 -1571410149 575343378 -75424573 -846524276 -605247122 1826300530 -965780527 -1521226469 -1984683054 736195779 1062311132 1850245654
REM
CELL 1.54180   50.00000   50.00000   50.00000   90.00000   90.00000   90.00000
LATT -1
SFAC C  
C      1  0.4751040000000  0.5171790000000  0.4660010000000 1.0
C      1  0.4801930000000  0.5204910000000  0.4944740000000 1.0
C      1  0.4844970000000  0.4945220000000  0.5053550000000 1.0
C      1  0.5030540000000  0.4632870000000  0.5377130000000 1.0
C      1  0.4773390000000  0.4895180000000  0.4591180000000 1.0
C      1  0.4978010000000  0.5092360000000  0.4517380000000 1.0
C      1  0.5477720000000  0.5443460000000  0.4903310000000 1.0
C      1  0.4810800000000  0.4749610000000  0.4838040000000 1.0
C      1  0.5057430000000  0.4392430000000  0.5296670000000 1.0
C      1  0.5355510000000  0.5298590000000  0.4727030000000 1.0
C      1  0.4929240000000  0.5428630000000  0.5048270000000 1.0
C      1  0.4973410000000  0.4332340000000  0.5043710000000 1.0
C      1  0.5234440000000  0.5156740000000  0.4539360000000 1.0
C      1  0.4872970000000  0.4485410000000  0.4866400000000 1.0
C      1  0.4956590000000  0.4890350000000  0.5312500000000 1.0
C      1  0.5073040000000  0.5339500000000  0.5524190000000 1.0
C      1  0.5044870000000  0.5453310000000  0.5272430000000 1.0
C      1  0.5034100000000  0.5087320000000  0.5484130000000 1.0
END
