TITL C-73800-8436-4 17.1412641813738 125000 -719.527326147911 0 0 103 (C1) n - 1
REM
REM in /rds/project/t2_vol4/rds-t2-cs072/BORA/CARBON/from-Arr/AIRSS/Generating-Clusters/GAP-ML-2020/Only-C1/SD-CG/HFTN-CG
REM
REM
REM
REM
REM
REM ./C.cell (11c1c37f851c82e70ff6c80c92926a4b)
REM AIRSS Version 0.9.1 bugfix July 2018 build 013d7b7c2542+ Fri, 06 Jul 2018 19:26:36 +0100
REM compiler GCC version 9.3.0
REM options -cpp -mtune=generic -march=x86-64 -g -O0
REM seed 1375478349 -517960639 -1644466828 1965555105 -1606255464 -1812844162 2119495507 -1304721161 800899050 1971962945 -508516504 1564690515 -346527142 -1225798889 1482192656 2098641506 -1534566623 2112626163 -1336724552 144200580 10482502 908496967 1680820725 -101636219 59918554 -1350646045 766237931 1319121176 608847451 70493165 -1916081533 -828353216 -1290409482
REM
CELL 1.54180   50.00000   50.00000   50.00000   90.00000   90.00000   90.00000
LATT -1
SFAC C  
C      1  0.5412060000000  0.5261860000000  0.5191860000000 1.0
C      1  0.4635200000000  0.4535100000000  0.5603140000000 1.0
C      1  0.4298120000000  0.4666610000000  0.5269330000000 1.0
C      1  0.4570050000000  0.5001000000000  0.5550100000000 1.0
C      1  0.5760950000000  0.5391640000000  0.4596210000000 1.0
C      1  0.5624470000000  0.5758410000000  0.5135210000000 1.0
C      1  0.4678630000000  0.4669640000000  0.4728180000000 1.0
C      1  0.4856160000000  0.5012480000000  0.5403820000000 1.0
C      1  0.4865100000000  0.5529960000000  0.4930140000000 1.0
C      1  0.4851180000000  0.4890990000000  0.4633360000000 1.0
C      1  0.4650720000000  0.4075890000000  0.5107060000000 1.0
C      1  0.5497990000000  0.4942870000000  0.5666320000000 1.0
C      1  0.5292340000000  0.4320440000000  0.5373360000000 1.0
C      1  0.5073600000000  0.5056070000000  0.4986860000000 1.0
C      1  0.4785310000000  0.4194560000000  0.4671060000000 1.0
C      1  0.4678000000000  0.5902700000000  0.5174310000000 1.0
C      1  0.5030350000000  0.5780840000000  0.4899110000000 1.0
C      1  0.5215680000000  0.4948500000000  0.5754240000000 1.0
C      1  0.5784560000000  0.4770490000000  0.5032560000000 1.0
C      1  0.5362780000000  0.5384270000000  0.5712970000000 1.0
C      1  0.5668950000000  0.5326810000000  0.5390110000000 1.0
C      1  0.4410880000000  0.5195350000000  0.5391070000000 1.0
C      1  0.5077010000000  0.5761340000000  0.4623730000000 1.0
C      1  0.4330840000000  0.5587290000000  0.5124220000000 1.0
C      1  0.4468230000000  0.4203970000000  0.5290480000000 1.0
C      1  0.5247610000000  0.4751740000000  0.5251590000000 1.0
C      1  0.4753090000000  0.5031350000000  0.5808060000000 1.0
C      1  0.5018680000000  0.5709950000000  0.5559290000000 1.0
C      1  0.5284480000000  0.4203450000000  0.4878540000000 1.0
C      1  0.5334950000000  0.4512960000000  0.4381760000000 1.0
C      1  0.5073480000000  0.4346250000000  0.5566800000000 1.0
C      1  0.4361720000000  0.5413930000000  0.4707800000000 1.0
C      1  0.4769670000000  0.5149190000000  0.4720940000000 1.0
C      1  0.4340880000000  0.4887770000000  0.4531680000000 1.0
C      1  0.4954460000000  0.4819230000000  0.5854560000000 1.0
C      1  0.4457950000000  0.4731970000000  0.5507650000000 1.0
C      1  0.5872610000000  0.5136140000000  0.5381220000000 1.0
C      1  0.5798130000000  0.4923330000000  0.4773300000000 1.0
C      1  0.4607410000000  0.5622340000000  0.4747690000000 1.0
C      1  0.4939650000000  0.5961920000000  0.5092970000000 1.0
C      1  0.4492690000000  0.5778490000000  0.4987550000000 1.0
C      1  0.5584470000000  0.5609110000000  0.4596000000000 1.0
C      1  0.5082800000000  0.4183750000000  0.4667350000000 1.0
C      1  0.4365750000000  0.4394440000000  0.4877960000000 1.0
C      1  0.5068330000000  0.4823300000000  0.5488020000000 1.0
C      1  0.4747150000000  0.4863770000000  0.4130870000000 1.0
C      1  0.5579600000000  0.5213220000000  0.5642050000000 1.0
C      1  0.4739980000000  0.5390350000000  0.5166270000000 1.0
C      1  0.5512500000000  0.4555350000000  0.4594330000000 1.0
C      1  0.5623150000000  0.4534850000000  0.5052270000000 1.0
C      1  0.5339050000000  0.5007100000000  0.4582120000000 1.0
C      1  0.5167480000000  0.5224940000000  0.5829370000000 1.0
C      1  0.4853560000000  0.5543340000000  0.4296110000000 1.0
C      1  0.4575050000000  0.4179790000000  0.4854390000000 1.0
C      1  0.5287790000000  0.5563330000000  0.4514830000000 1.0
C      1  0.5114980000000  0.4851440000000  0.4760390000000 1.0
C      1  0.4338700000000  0.5113040000000  0.5105870000000 1.0
C      1  0.4377550000000  0.4700360000000  0.4780220000000 1.0
C      1  0.4866430000000  0.5123530000000  0.4092400000000 1.0
C      1  0.4864620000000  0.5477580000000  0.5633500000000 1.0
C      1  0.5503050000000  0.4394970000000  0.4834720000000 1.0
C      1  0.5308100000000  0.5592000000000  0.5523550000000 1.0
C      1  0.4817110000000  0.4939780000000  0.5122370000000 1.0
C      1  0.5210640000000  0.5364710000000  0.5361930000000 1.0
C      1  0.4276770000000  0.4834440000000  0.5042320000000 1.0
C      1  0.4489490000000  0.4904080000000  0.4269850000000 1.0
C      1  0.4807010000000  0.5704660000000  0.4522520000000 1.0
C      1  0.5879750000000  0.5179090000000  0.4668440000000 1.0
C      1  0.4816040000000  0.4657500000000  0.5023170000000 1.0
C      1  0.4710610000000  0.4428370000000  0.4527950000000 1.0
C      1  0.5573070000000  0.5636650000000  0.4892500000000 1.0
C      1  0.4924470000000  0.4595880000000  0.5655860000000 1.0
C      1  0.5436720000000  0.5393540000000  0.4935690000000 1.0
C      1  0.5285890000000  0.5308320000000  0.4704210000000 1.0
C      1  0.4486470000000  0.5458000000000  0.5321980000000 1.0
C      1  0.5136340000000  0.4317150000000  0.4422470000000 1.0
C      1  0.4319880000000  0.5194400000000  0.4523290000000 1.0
C      1  0.5132000000000  0.5195330000000  0.4174450000000 1.0
C      1  0.4879580000000  0.4160980000000  0.5489090000000 1.0
C      1  0.4256260000000  0.5372660000000  0.4967180000000 1.0
C      1  0.4891460000000  0.5282950000000  0.5830790000000 1.0
C      1  0.5130830000000  0.5462460000000  0.4279310000000 1.0
C      1  0.5469990000000  0.4552100000000  0.5310760000000 1.0
C      1  0.4891720000000  0.5867590000000  0.5361600000000 1.0
C      1  0.4614500000000  0.4265940000000  0.5519900000000 1.0
C      1  0.4691020000000  0.5329830000000  0.4178530000000 1.0
C      1  0.4457700000000  0.5196500000000  0.4270150000000 1.0
C      1  0.4313130000000  0.4402550000000  0.5156860000000 1.0
C      1  0.5095560000000  0.4636880000000  0.4985670000000 1.0
C      1  0.5009790000000  0.5293600000000  0.4818740000000 1.0
C      1  0.4925280000000  0.4065130000000  0.5224190000000 1.0
C      1  0.5577890000000  0.5632370000000  0.5369770000000 1.0
C      1  0.5608590000000  0.4758620000000  0.5473790000000 1.0
C      1  0.4895890000000  0.4432170000000  0.4316380000000 1.0
C      1  0.5280200000000  0.4985980000000  0.4286590000000 1.0
C      1  0.5311840000000  0.5006270000000  0.5132860000000 1.0
C      1  0.4942800000000  0.4658100000000  0.4159070000000 1.0
C      1  0.4640300000000  0.5139790000000  0.5007390000000 1.0
C      1  0.4925680000000  0.5308110000000  0.5382670000000 1.0
C      1  0.5196540000000  0.4156220000000  0.5150730000000 1.0
C      1  0.5806530000000  0.4878720000000  0.5305680000000 1.0
C      1  0.5218010000000  0.4722440000000  0.4219170000000 1.0
C      1  0.5579970000000  0.4831490000000  0.4621260000000 1.0
END
