TITL C-73796-7315-1 108.664435554084 125000 -764.079309441354 0 0 111 (C1) n - 1
REM
REM in /rds/project/t2_vol4/rds-t2-cs072/BORA/CARBON/from-Arr/AIRSS/Generating-Clusters/GAP-ML-2020/Only-C1/SD-CG/HFTN-CG
REM
REM
REM
REM
REM
REM ./C.cell (11c1c37f851c82e70ff6c80c92926a4b)
REM AIRSS Version 0.9.1 bugfix July 2018 build 013d7b7c2542+ Fri, 06 Jul 2018 19:26:36 +0100
REM compiler GCC version 9.3.0
REM options -cpp -mtune=generic -march=x86-64 -g -O0
REM seed -1559994293 -744064480 -1226617681 40481864 325356500 -1789958353 -1201587362 -716513984 461182731 906057829 1123530119 -167722344 1090388166 -1079265867 -158275650 -1838379620 1075370375 -1453264317 -1417347986 1691830012 1721985240 88523124 996858987 -70507950 -1588275942 -1759503575 143987789 -1558762207 1873299146 750670142 62748152 -1372745504 -442320289
REM
CELL 1.54180   50.00000   50.00000   50.00000   90.00000   90.00000   90.00000
LATT -1
SFAC C  
C      1  0.4366040000000  0.4684160000000  0.5004030000000 1.0
C      1  0.5371760000000  0.4257640000000  0.5259770000000 1.0
C      1  0.4318550000000  0.4323050000000  0.4414930000000 1.0
C      1  0.4802340000000  0.4428080000000  0.4404100000000 1.0
C      1  0.5172640000000  0.5608980000000  0.5712840000000 1.0
C      1  0.4756100000000  0.5351030000000  0.4252640000000 1.0
C      1  0.4629440000000  0.4680350000000  0.5154670000000 1.0
C      1  0.5697170000000  0.5178130000000  0.4405960000000 1.0
C      1  0.4471550000000  0.4670510000000  0.4714970000000 1.0
C      1  0.4233540000000  0.4924360000000  0.5148580000000 1.0
C      1  0.5521690000000  0.5006450000000  0.5818390000000 1.0
C      1  0.5307410000000  0.4523700000000  0.5635210000000 1.0
C      1  0.4968510000000  0.5686550000000  0.5247690000000 1.0
C      1  0.5661490000000  0.4530080000000  0.5022500000000 1.0
C      1  0.5370850000000  0.5764170000000  0.5030130000000 1.0
C      1  0.5395840000000  0.5466980000000  0.4917780000000 1.0
C      1  0.4405810000000  0.5320390000000  0.4895790000000 1.0
C      1  0.4710790000000  0.4360090000000  0.5190890000000 1.0
C      1  0.5184690000000  0.4699560000000  0.4212550000000 1.0
C      1  0.4176370000000  0.4178240000000  0.4619010000000 1.0
C      1  0.4347490000000  0.5183860000000  0.5559940000000 1.0
C      1  0.5740990000000  0.5077510000000  0.5376490000000 1.0
C      1  0.4311770000000  0.5368300000000  0.5349990000000 1.0
C      1  0.4934060000000  0.5090340000000  0.5067670000000 1.0
C      1  0.4929810000000  0.4687000000000  0.4772290000000 1.0
C      1  0.4982990000000  0.5125140000000  0.5905190000000 1.0
C      1  0.4267800000000  0.4404760000000  0.5079890000000 1.0
C      1  0.5099600000000  0.5050950000000  0.4625300000000 1.0
C      1  0.5750910000000  0.5367830000000  0.5385140000000 1.0
C      1  0.4253170000000  0.5201680000000  0.5110750000000 1.0
C      1  0.5561870000000  0.5509680000000  0.5559360000000 1.0
C      1  0.4739000000000  0.5021890000000  0.5500690000000 1.0
C      1  0.4500360000000  0.5612820000000  0.5267410000000 1.0
C      1  0.4480140000000  0.5203960000000  0.4636260000000 1.0
C      1  0.5038640000000  0.5409130000000  0.4283100000000 1.0
C      1  0.4666970000000  0.4866010000000  0.4131090000000 1.0
C      1  0.5424570000000  0.5137530000000  0.4999670000000 1.0
C      1  0.4593170000000  0.5144670000000  0.5742460000000 1.0
C      1  0.4986630000000  0.5212780000000  0.4814380000000 1.0
C      1  0.5853540000000  0.4759570000000  0.4684230000000 1.0
C      1  0.4826330000000  0.4657420000000  0.5834200000000 1.0
C      1  0.5771390000000  0.5298030000000  0.4660410000000 1.0
C      1  0.5064810000000  0.4290760000000  0.4415720000000 1.0
C      1  0.5079030000000  0.4721670000000  0.5683040000000 1.0
C      1  0.4561030000000  0.5416850000000  0.4473730000000 1.0
C      1  0.4894660000000  0.4710740000000  0.4282810000000 1.0
C      1  0.5293910000000  0.5905530000000  0.4811300000000 1.0
C      1  0.5879730000000  0.5249630000000  0.4932000000000 1.0
C      1  0.4435920000000  0.4321840000000  0.5307110000000 1.0
C      1  0.4723930000000  0.4479500000000  0.4715940000000 1.0
C      1  0.4309360000000  0.4935160000000  0.5416530000000 1.0
C      1  0.5042940000000  0.4144660000000  0.4863890000000 1.0
C      1  0.4698240000000  0.5132690000000  0.4098710000000 1.0
C      1  0.4781800000000  0.5234260000000  0.5260070000000 1.0
C      1  0.4565010000000  0.4302340000000  0.4305800000000 1.0
C      1  0.5582810000000  0.5507880000000  0.4692080000000 1.0
C      1  0.4735800000000  0.5701160000000  0.5432800000000 1.0
C      1  0.5586220000000  0.4460940000000  0.5285430000000 1.0
C      1  0.4883120000000  0.4867640000000  0.4545010000000 1.0
C      1  0.5610260000000  0.4915840000000  0.4322340000000 1.0
C      1  0.4643840000000  0.5433040000000  0.5067650000000 1.0
C      1  0.5078080000000  0.4094620000000  0.4597380000000 1.0
C      1  0.4295720000000  0.5590740000000  0.4829310000000 1.0
C      1  0.5282560000000  0.4469260000000  0.4354510000000 1.0
C      1  0.5492460000000  0.4488770000000  0.4543560000000 1.0
C      1  0.4841460000000  0.5852480000000  0.4804390000000 1.0
C      1  0.5297770000000  0.4228030000000  0.4984070000000 1.0
C      1  0.4787340000000  0.4273660000000  0.4921790000000 1.0
C      1  0.4204470000000  0.4258750000000  0.4862530000000 1.0
C      1  0.4330830000000  0.4609300000000  0.4455200000000 1.0
C      1  0.4455820000000  0.5659670000000  0.4604620000000 1.0
C      1  0.4554870000000  0.4777340000000  0.5423330000000 1.0
C      1  0.5432940000000  0.5558320000000  0.4462430000000 1.0
C      1  0.5637490000000  0.4899230000000  0.5587090000000 1.0
C      1  0.5349660000000  0.5358570000000  0.5703800000000 1.0
C      1  0.5324260000000  0.5161180000000  0.5918090000000 1.0
C      1  0.5224000000000  0.5059010000000  0.5211610000000 1.0
C      1  0.5357590000000  0.5722990000000  0.5523170000000 1.0
C      1  0.4895610000000  0.4372870000000  0.5431250000000 1.0
C      1  0.5128520000000  0.4775440000000  0.5166760000000 1.0
C      1  0.5805130000000  0.4763390000000  0.4948440000000 1.0
C      1  0.4794670000000  0.5341340000000  0.5836710000000 1.0
C      1  0.5497220000000  0.5353210000000  0.4287650000000 1.0
C      1  0.4453040000000  0.4827140000000  0.4323160000000 1.0
C      1  0.4575960000000  0.4929350000000  0.4581510000000 1.0
C      1  0.5431960000000  0.4455500000000  0.4840140000000 1.0
C      1  0.5080900000000  0.5863040000000  0.4639490000000 1.0
C      1  0.4722250000000  0.4444670000000  0.5670230000000 1.0
C      1  0.4886990000000  0.5614350000000  0.4974170000000 1.0
C      1  0.4477200000000  0.4488370000000  0.5537350000000 1.0
C      1  0.4883980000000  0.5558010000000  0.5661400000000 1.0
C      1  0.5553160000000  0.4622410000000  0.5526900000000 1.0
C      1  0.4853220000000  0.4815440000000  0.5028080000000 1.0
C      1  0.4740290000000  0.4920660000000  0.5913840000000 1.0
C      1  0.4568890000000  0.5861500000000  0.4784460000000 1.0
C      1  0.5350640000000  0.4933110000000  0.4193010000000 1.0
C      1  0.5226700000000  0.4694890000000  0.4886040000000 1.0
C      1  0.5869780000000  0.5438470000000  0.5127500000000 1.0
C      1  0.5263720000000  0.5227540000000  0.4194070000000 1.0
C      1  0.5237780000000  0.5799630000000  0.5280080000000 1.0
C      1  0.5685850000000  0.4686580000000  0.4482040000000 1.0
C      1  0.5144770000000  0.5592770000000  0.4505440000000 1.0
C      1  0.5028450000000  0.5011220000000  0.5627350000000 1.0
C      1  0.5729420000000  0.5028400000000  0.5076510000000 1.0
C      1  0.5196190000000  0.4307850000000  0.5475670000000 1.0
C      1  0.5103240000000  0.5470070000000  0.4810960000000 1.0
C      1  0.4975500000000  0.5408230000000  0.5395340000000 1.0
C      1  0.5180860000000  0.5207470000000  0.5470910000000 1.0
C      1  0.5031450000000  0.4630140000000  0.5406540000000 1.0
C      1  0.5316520000000  0.4958830000000  0.4781130000000 1.0
C      1  0.4406610000000  0.5770720000000  0.5028710000000 1.0
END
