TITL C-73794-7044-5 -0.165529693329262 125000 -451.346177230376 0 0 66 (C1) n - 1
REM
REM in /rds/project/t2_vol4/rds-t2-cs072/BORA/CARBON/from-Arr/AIRSS/Generating-Clusters/GAP-ML-2020/Only-C1/SD-CG/HFTN-CG
REM
REM
REM
REM
REM
REM ./C.cell (11c1c37f851c82e70ff6c80c92926a4b)
REM AIRSS Version 0.9.1 bugfix July 2018 build 013d7b7c2542+ Fri, 06 Jul 2018 19:26:36 +0100
REM compiler GCC version 9.3.0
REM options -cpp -mtune=generic -march=x86-64 -g -O0
REM seed -1770832294 546908353 866969452 -2064526147 1798101444 797921088 1094705004 1361057646 -920673647 -909445461 1911953790 -1292739876 1022038902 -1166277277 -146694203 -1775893789 -218687584 1448009904 -2092145433 331154969 -1357998241 1994129205 1729082494 1046860356 -235828516 1003821789 -1541924515 1575671216 615479191 -1162340154 -804185921 398265633 800832001
REM
CELL 1.54180   50.00000   50.00000   50.00000   90.00000   90.00000   90.00000
LATT -1
SFAC C  
C      1  0.4560990000000  0.5769630000000  0.5064930000000 1.0
C      1  0.5019300000000  0.4469240000000  0.4538110000000 1.0
C      1  0.5163900000000  0.5568950000000  0.4639780000000 1.0
C      1  0.5079140000000  0.4975690000000  0.5330190000000 1.0
C      1  0.4562940000000  0.4448120000000  0.5068200000000 1.0
C      1  0.5474240000000  0.4630340000000  0.5424050000000 1.0
C      1  0.4809730000000  0.5598370000000  0.5024080000000 1.0
C      1  0.5202390000000  0.4931710000000  0.4858850000000 1.0
C      1  0.4427900000000  0.4894010000000  0.4647520000000 1.0
C      1  0.4340700000000  0.5653220000000  0.5020710000000 1.0
C      1  0.5081300000000  0.5076640000000  0.5615800000000 1.0
C      1  0.4911360000000  0.5458120000000  0.5265700000000 1.0
C      1  0.4313200000000  0.4482140000000  0.5181360000000 1.0
C      1  0.4969760000000  0.4568470000000  0.5663100000000 1.0
C      1  0.5699190000000  0.5172210000000  0.4909460000000 1.0
C      1  0.4581990000000  0.4658280000000  0.4594740000000 1.0
C      1  0.4798700000000  0.5183650000000  0.5612900000000 1.0
C      1  0.4280300000000  0.5188010000000  0.5027370000000 1.0
C      1  0.5506300000000  0.5288430000000  0.4490290000000 1.0
C      1  0.5399250000000  0.4745640000000  0.4437520000000 1.0
C      1  0.4933620000000  0.4911900000000  0.4363330000000 1.0
C      1  0.5664520000000  0.5096220000000  0.4629150000000 1.0
C      1  0.5576540000000  0.5059160000000  0.5580510000000 1.0
C      1  0.5274180000000  0.5745580000000  0.5051500000000 1.0
C      1  0.5267750000000  0.5214010000000  0.4362470000000 1.0
C      1  0.5325160000000  0.5378600000000  0.5342530000000 1.0
C      1  0.4846810000000  0.4480870000000  0.5197410000000 1.0
C      1  0.4852940000000  0.5145720000000  0.4807310000000 1.0
C      1  0.5064280000000  0.5686040000000  0.4882570000000 1.0
C      1  0.4526450000000  0.5211260000000  0.5192960000000 1.0
C      1  0.4880160000000  0.4341770000000  0.4748190000000 1.0
C      1  0.4827000000000  0.4666130000000  0.4439620000000 1.0
C      1  0.5113540000000  0.5247100000000  0.5195920000000 1.0
C      1  0.4636960000000  0.4952680000000  0.5585300000000 1.0
C      1  0.5293580000000  0.4786220000000  0.5262200000000 1.0
C      1  0.5143460000000  0.5208270000000  0.4905630000000 1.0
C      1  0.4519180000000  0.5149110000000  0.4540690000000 1.0
C      1  0.5390680000000  0.4508560000000  0.4862480000000 1.0
C      1  0.5444400000000  0.5557910000000  0.5150830000000 1.0
C      1  0.4570890000000  0.4928460000000  0.5288950000000 1.0
C      1  0.5636000000000  0.4845970000000  0.4533910000000 1.0
C      1  0.5359440000000  0.5222290000000  0.5585090000000 1.0
C      1  0.5297040000000  0.4417200000000  0.5335940000000 1.0
C      1  0.5645270000000  0.4875370000000  0.5377760000000 1.0
C      1  0.4674120000000  0.5344160000000  0.4922640000000 1.0
C      1  0.5450570000000  0.5501400000000  0.4665500000000 1.0
C      1  0.4777350000000  0.4754240000000  0.5718420000000 1.0
C      1  0.4860440000000  0.4822270000000  0.5192820000000 1.0
C      1  0.5291150000000  0.4526030000000  0.4586590000000 1.0
C      1  0.4998140000000  0.4323640000000  0.4999050000000 1.0
C      1  0.5023360000000  0.4417360000000  0.5436400000000 1.0
C      1  0.5654970000000  0.4945120000000  0.5083700000000 1.0
C      1  0.5410250000000  0.4785820000000  0.4995440000000 1.0
C      1  0.5581100000000  0.5442240000000  0.4918190000000 1.0
C      1  0.4368930000000  0.4752800000000  0.5146990000000 1.0
C      1  0.4619540000000  0.4446800000000  0.4783100000000 1.0
C      1  0.4821080000000  0.5157660000000  0.4498510000000 1.0
C      1  0.5275700000000  0.4332780000000  0.5052280000000 1.0
C      1  0.4232250000000  0.5427880000000  0.4876280000000 1.0
C      1  0.5212520000000  0.4937140000000  0.4322040000000 1.0
C      1  0.5054370000000  0.4819640000000  0.5752190000000 1.0
C      1  0.4919980000000  0.4876250000000  0.4917370000000 1.0
C      1  0.4702510000000  0.5344800000000  0.5407770000000 1.0
C      1  0.4450360000000  0.5355900000000  0.4718420000000 1.0
C      1  0.5045340000000  0.5365920000000  0.4454640000000 1.0
C      1  0.4303530000000  0.4922890000000  0.4914730000000 1.0
END
