TITL C-73849-5569-3 -0.0528126751175864 125000 -144.051575687147 0 0 22 (C1) n - 1
REM
REM in /rds/project/t2_vol4/rds-t2-cs072/BORA/CARBON/from-Arr/AIRSS/Generating-Clusters/GAP-ML-2020/Only-C1/SD-CG/HFTN-CG
REM
REM
REM
REM
REM
REM ./C.cell (11c1c37f851c82e70ff6c80c92926a4b)
REM AIRSS Version 0.9.1 bugfix July 2018 build 013d7b7c2542+ Fri, 06 Jul 2018 19:26:36 +0100
REM compiler GCC version 9.3.0
REM options -cpp -mtune=generic -march=x86-64 -g -O0
REM seed -1910911326 -12793017 175545696 -1227245273 528578087 2044068293 276031755 745347825 -2036739409 753208671 -1742842207 750218407 -498346138 -1409046676 -1554486939 648160692 915937764 390605120 1043377105 808825094 1652295582 457985572 -1620465090 -1888356734 2037789766 -856651130 569020328 -1801753172 1845856348 728418184 850351289 81720952 -4200304
REM
CELL 1.54180   50.00000   50.00000   50.00000   90.00000   90.00000   90.00000
LATT -1
SFAC C  
C      1  0.5343180000000  0.5177360000000  0.4648350000000 1.0
C      1  0.4966230000000  0.4783210000000  0.4863620000000 1.0
C      1  0.5512170000000  0.4992010000000  0.4682080000000 1.0
C      1  0.5576930000000  0.4763150000000  0.4788850000000 1.0
C      1  0.4590180000000  0.5370110000000  0.4757180000000 1.0
C      1  0.4863400000000  0.4502840000000  0.5517770000000 1.0
C      1  0.4944190000000  0.4623410000000  0.5074970000000 1.0
C      1  0.4711360000000  0.5557050000000  0.4625160000000 1.0
C      1  0.4790400000000  0.4702170000000  0.5320330000000 1.0
C      1  0.4747030000000  0.5436900000000  0.5297760000000 1.0
C      1  0.5011090000000  0.5690080000000  0.4957900000000 1.0
C      1  0.4677990000000  0.4942210000000  0.5345120000000 1.0
C      1  0.5081560000000  0.5248380000000  0.4688940000000 1.0
C      1  0.4968180000000  0.5518840000000  0.4740360000000 1.0
C      1  0.5535090000000  0.4548670000000  0.4925250000000 1.0
C      1  0.4666290000000  0.5182220000000  0.5204070000000 1.0
C      1  0.5040960000000  0.4338150000000  0.5429730000000 1.0
C      1  0.4886990000000  0.5616930000000  0.5180340000000 1.0
C      1  0.5133360000000  0.4415750000000  0.5170520000000 1.0
C      1  0.4902060000000  0.5038680000000  0.4795630000000 1.0
C      1  0.5386670000000  0.4396800000000  0.5071470000000 1.0
C      1  0.4664680000000  0.5155070000000  0.4914600000000 1.0
END
