TITL C-73786-9258-9 -0.0136911648802875 125000 -681.999417234115 0 0 97 (C1) n - 1
REM
REM in /rds/project/t2_vol4/rds-t2-cs072/BORA/CARBON/from-Arr/AIRSS/Generating-Clusters/GAP-ML-2020/Only-C1/SD-CG/HFTN-CG
REM
REM
REM
REM
REM
REM ./C.cell (11c1c37f851c82e70ff6c80c92926a4b)
REM AIRSS Version 0.9.1 bugfix July 2018 build 013d7b7c2542+ Fri, 06 Jul 2018 19:26:36 +0100
REM compiler GCC version 9.3.0
REM options -cpp -mtune=generic -march=x86-64 -g -O0
REM seed 923962433 1497066183 -1964700516 -192235195 -1114682536 1341942841 669495018 -556977806 -1974322244 -1364238497 -1276103427 742704113 -164829861 1929156521 1937194378 -496017311 1856793488 -1163350478 1839526576 -309056587 1248624088 119726661 353824173 1700279838 -409305738 -2085572069 -1572346840 -1736552581 -1633592839 207408286 -958826852 -338330662 1141902768
REM
CELL 1.54180   50.00000   50.00000   50.00000   90.00000   90.00000   90.00000
LATT -1
SFAC C  
C      1  0.4850860000000  0.5295020000000  0.4747700000000 1.0
C      1  0.5440330000000  0.5098190000000  0.5143320000000 1.0
C      1  0.4273720000000  0.4629330000000  0.4811300000000 1.0
C      1  0.5140540000000  0.5249320000000  0.4798400000000 1.0
C      1  0.5096060000000  0.4926800000000  0.5328170000000 1.0
C      1  0.5035980000000  0.4957990000000  0.4090560000000 1.0
C      1  0.5515110000000  0.4362920000000  0.5328450000000 1.0
C      1  0.4913180000000  0.4780010000000  0.4825120000000 1.0
C      1  0.5321160000000  0.5337560000000  0.4291920000000 1.0
C      1  0.4914520000000  0.5428070000000  0.4265510000000 1.0
C      1  0.5382100000000  0.5008830000000  0.5425720000000 1.0
C      1  0.4878180000000  0.5646970000000  0.5139910000000 1.0
C      1  0.4539650000000  0.4511010000000  0.4407790000000 1.0
C      1  0.4190540000000  0.4977840000000  0.5247670000000 1.0
C      1  0.4860170000000  0.5270580000000  0.5634040000000 1.0
C      1  0.5532630000000  0.4769110000000  0.5506490000000 1.0
C      1  0.5603290000000  0.5633880000000  0.4617050000000 1.0
C      1  0.5624790000000  0.4620440000000  0.5284070000000 1.0
C      1  0.4703850000000  0.5040180000000  0.5164540000000 1.0
C      1  0.4307320000000  0.5567890000000  0.5040620000000 1.0
C      1  0.5225310000000  0.4557920000000  0.4218500000000 1.0
C      1  0.5087420000000  0.5226300000000  0.4150620000000 1.0
C      1  0.5150750000000  0.5574030000000  0.4355060000000 1.0
C      1  0.4466780000000  0.4949040000000  0.5642500000000 1.0
C      1  0.5531370000000  0.5737910000000  0.5149950000000 1.0
C      1  0.5348390000000  0.5852460000000  0.4971210000000 1.0
C      1  0.4935090000000  0.4742410000000  0.5469950000000 1.0
C      1  0.4690660000000  0.4746900000000  0.5296360000000 1.0
C      1  0.5082690000000  0.4249930000000  0.5547290000000 1.0
C      1  0.5289880000000  0.4820030000000  0.4120420000000 1.0
C      1  0.5349590000000  0.4343770000000  0.5556930000000 1.0
C      1  0.5447330000000  0.5656170000000  0.5412840000000 1.0
C      1  0.5262570000000  0.4597380000000  0.5929640000000 1.0
C      1  0.4466340000000  0.4489220000000  0.4669890000000 1.0
C      1  0.5786510000000  0.4969300000000  0.4899760000000 1.0
C      1  0.5290620000000  0.4565370000000  0.4487610000000 1.0
C      1  0.5591960000000  0.5425490000000  0.5477070000000 1.0
C      1  0.4759170000000  0.5583490000000  0.4841720000000 1.0
C      1  0.5116470000000  0.4777450000000  0.5063820000000 1.0
C      1  0.5747460000000  0.5108570000000  0.5145490000000 1.0
C      1  0.4331820000000  0.5410370000000  0.4657980000000 1.0
C      1  0.4309180000000  0.5126450000000  0.5481250000000 1.0
C      1  0.5177440000000  0.5573330000000  0.5470200000000 1.0
C      1  0.5276500000000  0.5012100000000  0.4681310000000 1.0
C      1  0.4885170000000  0.4815940000000  0.5761150000000 1.0
C      1  0.4941050000000  0.4522000000000  0.4202940000000 1.0
C      1  0.4878810000000  0.4372410000000  0.5715120000000 1.0
C      1  0.4955300000000  0.5796060000000  0.4741720000000 1.0
C      1  0.4770250000000  0.5038590000000  0.4890450000000 1.0
C      1  0.5163990000000  0.4167420000000  0.5058560000000 1.0
C      1  0.5260210000000  0.5329500000000  0.5037630000000 1.0
C      1  0.5145750000000  0.5374250000000  0.5670470000000 1.0
C      1  0.4666790000000  0.5479100000000  0.5580670000000 1.0
C      1  0.5408710000000  0.5802270000000  0.4689010000000 1.0
C      1  0.5445340000000  0.4247860000000  0.5087390000000 1.0
C      1  0.5493990000000  0.5107340000000  0.4460390000000 1.0
C      1  0.4916190000000  0.5172050000000  0.5320880000000 1.0
C      1  0.4552590000000  0.4780840000000  0.4311660000000 1.0
C      1  0.4990490000000  0.4591060000000  0.5890880000000 1.0
C      1  0.4708460000000  0.4295600000000  0.5307190000000 1.0
C      1  0.4638780000000  0.4411930000000  0.5560330000000 1.0
C      1  0.5622180000000  0.4696550000000  0.4982450000000 1.0
C      1  0.4795300000000  0.4367610000000  0.4391960000000 1.0
C      1  0.5122200000000  0.4216780000000  0.4774710000000 1.0
C      1  0.4729750000000  0.5337660000000  0.4456740000000 1.0
C      1  0.5374180000000  0.4875490000000  0.4953770000000 1.0
C      1  0.4187120000000  0.5337440000000  0.4897580000000 1.0
C      1  0.4816580000000  0.4778790000000  0.4172710000000 1.0
C      1  0.5716520000000  0.5162480000000  0.4686480000000 1.0
C      1  0.4248760000000  0.4706130000000  0.5300930000000 1.0
C      1  0.5054540000000  0.5424240000000  0.5225670000000 1.0
C      1  0.5509040000000  0.4948480000000  0.4217660000000 1.0
C      1  0.4470140000000  0.5614790000000  0.4807840000000 1.0
C      1  0.4716820000000  0.5034370000000  0.5757640000000 1.0
C      1  0.5355430000000  0.4366710000000  0.4668150000000 1.0
C      1  0.5160110000000  0.5775350000000  0.4544790000000 1.0
C      1  0.5730600000000  0.5551670000000  0.5045860000000 1.0
C      1  0.4169070000000  0.5063910000000  0.4960910000000 1.0
C      1  0.4398300000000  0.5603700000000  0.5299610000000 1.0
C      1  0.5098240000000  0.4805380000000  0.4593560000000 1.0
C      1  0.4395390000000  0.5396820000000  0.5505700000000 1.0
C      1  0.5730740000000  0.5448150000000  0.4769460000000 1.0
C      1  0.4874520000000  0.4294920000000  0.4656310000000 1.0
C      1  0.4391410000000  0.4976030000000  0.4469920000000 1.0
C      1  0.5401480000000  0.5249650000000  0.5600390000000 1.0
C      1  0.5403620000000  0.4585910000000  0.5697800000000 1.0
C      1  0.4677240000000  0.5668030000000  0.5359250000000 1.0
C      1  0.5774660000000  0.5363500000000  0.5253330000000 1.0
C      1  0.4451090000000  0.5258190000000  0.4460380000000 1.0
C      1  0.4611840000000  0.4488030000000  0.5108800000000 1.0
C      1  0.4471550000000  0.4683570000000  0.5503770000000 1.0
C      1  0.4978990000000  0.4189670000000  0.5287380000000 1.0
C      1  0.4325850000000  0.4557020000000  0.5080200000000 1.0
C      1  0.4238160000000  0.4894200000000  0.4725160000000 1.0
C      1  0.5063470000000  0.5848940000000  0.4999380000000 1.0
C      1  0.4720760000000  0.4499050000000  0.4827690000000 1.0
C      1  0.5547200000000  0.4419260000000  0.4873910000000 1.0
END
