TITL C-73795-7052-5 -0.0624512614303341 125000 -324.689640025032 0 0 48 (C1) n - 1
REM
REM in /rds/project/t2_vol4/rds-t2-cs072/BORA/CARBON/from-Arr/AIRSS/Generating-Clusters/GAP-ML-2020/Only-C1/SD-CG/HFTN-CG
REM
REM
REM
REM
REM
REM ./C.cell (11c1c37f851c82e70ff6c80c92926a4b)
REM AIRSS Version 0.9.1 bugfix July 2018 build 013d7b7c2542+ Fri, 06 Jul 2018 19:26:36 +0100
REM compiler GCC version 9.3.0
REM options -cpp -mtune=generic -march=x86-64 -g -O0
REM seed 421815213 -2090552317 1822279996 267353315 -1491861615 1201356562 821037884 276799833 -1556024718 1941042859 200448131 -1458749783 560626179 -1224803336 1502308267 -1077339348 1810615950 281000922 1975066490 -1847244419 79314127 1719031602 1744329899 -1035570234 -910777750 -787154447 -1655330873 -1088198257 -766493164 937797558 1472285165 648373187 -2110435464
REM
CELL 1.54180   50.00000   50.00000   50.00000   90.00000   90.00000   90.00000
LATT -1
SFAC C  
C      1  0.5413210000000  0.5356280000000  0.4702070000000 1.0
C      1  0.4777510000000  0.4513150000000  0.5096920000000 1.0
C      1  0.5274590000000  0.5549890000000  0.4878920000000 1.0
C      1  0.4660670000000  0.4754410000000  0.4696970000000 1.0
C      1  0.5080270000000  0.5023580000000  0.4460210000000 1.0
C      1  0.5287590000000  0.5275050000000  0.5461170000000 1.0
C      1  0.5374930000000  0.4688210000000  0.4642940000000 1.0
C      1  0.4788370000000  0.5512580000000  0.5009480000000 1.0
C      1  0.4771680000000  0.4791950000000  0.4988040000000 1.0
C      1  0.5568020000000  0.4873760000000  0.4748080000000 1.0
C      1  0.5126760000000  0.5047190000000  0.5501000000000 1.0
C      1  0.5223670000000  0.5269840000000  0.4513170000000 1.0
C      1  0.4284700000000  0.4992760000000  0.4991130000000 1.0
C      1  0.4490070000000  0.4502600000000  0.5050870000000 1.0
C      1  0.4705740000000  0.5346350000000  0.5461840000000 1.0
C      1  0.4670340000000  0.4973330000000  0.5195750000000 1.0
C      1  0.4902350000000  0.4610050000000  0.4628420000000 1.0
C      1  0.4819880000000  0.5163990000000  0.4516960000000 1.0
C      1  0.4524830000000  0.5402630000000  0.4996680000000 1.0
C      1  0.5572780000000  0.5151290000000  0.4817080000000 1.0
C      1  0.4868760000000  0.5199860000000  0.5103420000000 1.0
C      1  0.5649120000000  0.4889670000000  0.5212970000000 1.0
C      1  0.5496000000000  0.5335920000000  0.5264570000000 1.0
C      1  0.5691770000000  0.4734880000000  0.4970310000000 1.0
C      1  0.4435520000000  0.4583620000000  0.4774280000000 1.0
C      1  0.5344430000000  0.5552000000000  0.5147730000000 1.0
C      1  0.5626180000000  0.5157370000000  0.5105170000000 1.0
C      1  0.4597530000000  0.5043430000000  0.4624410000000 1.0
C      1  0.5514870000000  0.4527210000000  0.5051470000000 1.0
C      1  0.5164790000000  0.4268990000000  0.4818630000000 1.0
C      1  0.4844030000000  0.5089590000000  0.5565870000000 1.0
C      1  0.5078720000000  0.4852470000000  0.5022000000000 1.0
C      1  0.5152200000000  0.5516540000000  0.5357750000000 1.0
C      1  0.5118350000000  0.5122040000000  0.5001800000000 1.0
C      1  0.4435860000000  0.5175460000000  0.4824070000000 1.0
C      1  0.4967500000000  0.5401020000000  0.4577960000000 1.0
C      1  0.4991560000000  0.5555630000000  0.4808530000000 1.0
C      1  0.5372460000000  0.4448570000000  0.4815920000000 1.0
C      1  0.4898810000000  0.4627920000000  0.5370110000000 1.0
C      1  0.4884050000000  0.5489240000000  0.5293020000000 1.0
C      1  0.4944710000000  0.4420330000000  0.4847470000000 1.0
C      1  0.4395030000000  0.5076610000000  0.5239200000000 1.0
C      1  0.5434540000000  0.4694080000000  0.5282940000000 1.0
C      1  0.4741350000000  0.4848650000000  0.5453470000000 1.0
C      1  0.4293800000000  0.4713620000000  0.4961920000000 1.0
C      1  0.4465820000000  0.5335170000000  0.5287960000000 1.0
C      1  0.5123540000000  0.4760170000000  0.4535490000000 1.0
C      1  0.5150740000000  0.4781010000000  0.5323860000000 1.0
END
