TITL C-73835-5401-11 -0.0890775069582212 125000 -446.462296829944 0 0 66 (C1) n - 1
REM
REM in /rds/project/t2_vol4/rds-t2-cs072/BORA/CARBON/from-Arr/AIRSS/Generating-Clusters/GAP-ML-2020/Only-C1/SD-CG/HFTN-CG
REM
REM
REM
REM
REM
REM ./C.cell (11c1c37f851c82e70ff6c80c92926a4b)
REM AIRSS Version 0.9.1 bugfix July 2018 build 013d7b7c2542+ Fri, 06 Jul 2018 19:26:36 +0100
REM compiler GCC version 9.3.0
REM options -cpp -mtune=generic -march=x86-64 -g -O0
REM seed 1951261773 2104397705 -1557174153 394154069 1045540512 638795206 -1608586938 212968629 411760866 -1298768686 154998924 100154864 -1907656936 -161678904 -749888855 2113665624 899160038 -356712662 1459818622 251971380 647614641 -1933546227 321018147 1706359125 -1551144015 1255532525 -540992697 1693710712 399775569 -950253726 -237518618 893762788 -282974273
REM
CELL 1.54180   50.00000   50.00000   50.00000   90.00000   90.00000   90.00000
LATT -1
SFAC C  
C      1  0.5626080000000  0.5416710000000  0.4588670000000 1.0
C      1  0.4572190000000  0.5183080000000  0.4570550000000 1.0
C      1  0.5045970000000  0.4807180000000  0.4703330000000 1.0
C      1  0.4924080000000  0.4889240000000  0.4314610000000 1.0
C      1  0.4739780000000  0.5044330000000  0.5196120000000 1.0
C      1  0.5592730000000  0.4775700000000  0.5121380000000 1.0
C      1  0.4810390000000  0.5540930000000  0.5386350000000 1.0
C      1  0.4870190000000  0.5189830000000  0.4967040000000 1.0
C      1  0.5464530000000  0.5163600000000  0.5432540000000 1.0
C      1  0.5601160000000  0.4696570000000  0.4843690000000 1.0
C      1  0.5160030000000  0.4854950000000  0.5731260000000 1.0
C      1  0.4691890000000  0.4729840000000  0.4393310000000 1.0
C      1  0.5395720000000  0.4957640000000  0.4432250000000 1.0
C      1  0.4839360000000  0.5218670000000  0.5692000000000 1.0
C      1  0.4502960000000  0.5165520000000  0.5334670000000 1.0
C      1  0.5427140000000  0.4468460000000  0.4783220000000 1.0
C      1  0.5662250000000  0.5026930000000  0.5229740000000 1.0
C      1  0.4811250000000  0.4617000000000  0.5053820000000 1.0
C      1  0.5267690000000  0.5595290000000  0.5270820000000 1.0
C      1  0.5384300000000  0.5442060000000  0.4464990000000 1.0
C      1  0.5205440000000  0.5069260000000  0.5282040000000 1.0
C      1  0.5187780000000  0.4374070000000  0.4933580000000 1.0
C      1  0.5032970000000  0.4690760000000  0.5241130000000 1.0
C      1  0.5648880000000  0.5259790000000  0.5065900000000 1.0
C      1  0.4610440000000  0.4503330000000  0.5247920000000 1.0
C      1  0.5517720000000  0.4953750000000  0.4704590000000 1.0
C      1  0.5496400000000  0.5417760000000  0.5270040000000 1.0
C      1  0.5170800000000  0.4763500000000  0.4418360000000 1.0
C      1  0.4655120000000  0.5431320000000  0.4935000000000 1.0
C      1  0.5193870000000  0.4594320000000  0.5671070000000 1.0
C      1  0.4873350000000  0.4933760000000  0.5669480000000 1.0
C      1  0.4382270000000  0.4684170000000  0.5243840000000 1.0
C      1  0.4449960000000  0.4882290000000  0.5437090000000 1.0
C      1  0.4337310000000  0.5053050000000  0.4603230000000 1.0
C      1  0.4658280000000  0.5341450000000  0.5512750000000 1.0
C      1  0.5101600000000  0.5326820000000  0.5676860000000 1.0
C      1  0.5271640000000  0.4495550000000  0.4402860000000 1.0
C      1  0.4441980000000  0.4616010000000  0.4714770000000 1.0
C      1  0.4702600000000  0.4524810000000  0.4611290000000 1.0
C      1  0.5084610000000  0.5690550000000  0.5050930000000 1.0
C      1  0.4657650000000  0.4854140000000  0.4972970000000 1.0
C      1  0.5144280000000  0.5580370000000  0.4563290000000 1.0
C      1  0.4426440000000  0.4800190000000  0.4497390000000 1.0
C      1  0.4367470000000  0.4784680000000  0.4965170000000 1.0
C      1  0.5132170000000  0.5736360000000  0.4789310000000 1.0
C      1  0.5293330000000  0.4814020000000  0.5141020000000 1.0
C      1  0.5288310000000  0.5198110000000  0.4350200000000 1.0
C      1  0.5152090000000  0.4311530000000  0.5200350000000 1.0
C      1  0.5149540000000  0.5177770000000  0.5007080000000 1.0
C      1  0.5086030000000  0.5534150000000  0.5483900000000 1.0
C      1  0.5455090000000  0.4355260000000  0.4519760000000 1.0
C      1  0.4936600000000  0.4535130000000  0.4800210000000 1.0
C      1  0.4299820000000  0.5065400000000  0.4892510000000 1.0
C      1  0.4653110000000  0.4756680000000  0.5606420000000 1.0
C      1  0.4414590000000  0.5271040000000  0.5057700000000 1.0
C      1  0.5305000000000  0.5119220000000  0.5673600000000 1.0
C      1  0.4947490000000  0.4945050000000  0.5371090000000 1.0
C      1  0.4913130000000  0.5419710000000  0.4486590000000 1.0
C      1  0.5654590000000  0.5218480000000  0.4775760000000 1.0
C      1  0.5052310000000  0.4464400000000  0.5444300000000 1.0
C      1  0.4740530000000  0.4501050000000  0.5496530000000 1.0
C      1  0.4805500000000  0.5612740000000  0.5116400000000 1.0
C      1  0.4793540000000  0.4994170000000  0.4747680000000 1.0
C      1  0.4664150000000  0.5436510000000  0.4635930000000 1.0
C      1  0.5249990000000  0.4940470000000  0.4864280000000 1.0
C      1  0.5004570000000  0.5183520000000  0.4337490000000 1.0
END
