TITL C-73856-6059-8 -2.75862770792496 125000 -804.635605165208 0 0 114 (C1) n - 1
REM
REM in /rds/project/t2_vol4/rds-t2-cs072/BORA/CARBON/from-Arr/AIRSS/Generating-Clusters/GAP-ML-2020/Only-C1/SD-CG/HFTN-CG
REM
REM
REM
REM
REM
REM ./C.cell (11c1c37f851c82e70ff6c80c92926a4b)
REM AIRSS Version 0.9.1 bugfix July 2018 build 013d7b7c2542+ Fri, 06 Jul 2018 19:26:36 +0100
REM compiler GCC version 9.3.0
REM options -cpp -mtune=generic -march=x86-64 -g -O0
REM seed -359194802 452476134 -707090026 1715858955 1318384779 -1128326467 -2033748321 791731274 128513209 -982761621 626866835 898222031 -201410951 624439705 -32128928 -1653419743 -13912644 -1946813671 -450803177 52211506 1424588050 -1839594786 -627934462 1351241570 -1370587453 1867369542 1220774945 -1012346793 173252844 -484066304 -1038259941 1426684314 1663461053
REM
CELL 1.54180   50.00000   50.00000   50.00000   90.00000   90.00000   90.00000
LATT -1
SFAC C  
C      1  0.4688600000000  0.4106630000000  0.4559740000000 1.0
C      1  0.4724670000000  0.4764630000000  0.5361280000000 1.0
C      1  0.5075750000000  0.5572640000000  0.4330490000000 1.0
C      1  0.5840050000000  0.5236220000000  0.4700680000000 1.0
C      1  0.5563790000000  0.5052470000000  0.5020050000000 1.0
C      1  0.4960910000000  0.4129810000000  0.4496060000000 1.0
C      1  0.5303370000000  0.5422080000000  0.4223990000000 1.0
C      1  0.5288480000000  0.5064770000000  0.5897920000000 1.0
C      1  0.4688790000000  0.4347290000000  0.5619270000000 1.0
C      1  0.5713640000000  0.5068610000000  0.5643600000000 1.0
C      1  0.5203110000000  0.4898980000000  0.5334790000000 1.0
C      1  0.5265930000000  0.5154570000000  0.4135050000000 1.0
C      1  0.4668390000000  0.5387840000000  0.4438580000000 1.0
C      1  0.5922590000000  0.4959080000000  0.4744030000000 1.0
C      1  0.4670280000000  0.5517750000000  0.5555960000000 1.0
C      1  0.5011710000000  0.5022930000000  0.4212970000000 1.0
C      1  0.5351350000000  0.4878410000000  0.4844710000000 1.0
C      1  0.5526180000000  0.5631190000000  0.5530580000000 1.0
C      1  0.4909270000000  0.4595940000000  0.4475850000000 1.0
C      1  0.5049030000000  0.4367380000000  0.4334490000000 1.0
C      1  0.4513170000000  0.5610380000000  0.5322350000000 1.0
C      1  0.5833180000000  0.4800550000000  0.4533730000000 1.0
C      1  0.5395800000000  0.5640830000000  0.4634220000000 1.0
C      1  0.5742610000000  0.4536910000000  0.4616220000000 1.0
C      1  0.4358430000000  0.4361670000000  0.4947890000000 1.0
C      1  0.4373970000000  0.5352810000000  0.4467650000000 1.0
C      1  0.5315590000000  0.4396390000000  0.4768590000000 1.0
C      1  0.5261820000000  0.5344830000000  0.5225680000000 1.0
C      1  0.5808510000000  0.5249050000000  0.5463860000000 1.0
C      1  0.4503170000000  0.4816200000000  0.5185800000000 1.0
C      1  0.4090080000000  0.4790250000000  0.5036520000000 1.0
C      1  0.4207860000000  0.4658300000000  0.4618810000000 1.0
C      1  0.5797010000000  0.4611500000000  0.5101830000000 1.0
C      1  0.5489700000000  0.4668490000000  0.5762130000000 1.0
C      1  0.4564730000000  0.4335310000000  0.4711850000000 1.0
C      1  0.5687090000000  0.5551710000000  0.5105430000000 1.0
C      1  0.5512110000000  0.5467980000000  0.4424020000000 1.0
C      1  0.5044620000000  0.5357050000000  0.5065610000000 1.0
C      1  0.5409130000000  0.5473440000000  0.5726090000000 1.0
C      1  0.5483100000000  0.5762030000000  0.5094270000000 1.0
C      1  0.5308200000000  0.4686170000000  0.4101140000000 1.0
C      1  0.4924760000000  0.5855320000000  0.5156330000000 1.0
C      1  0.5086160000000  0.4852690000000  0.4486740000000 1.0
C      1  0.4821340000000  0.5233860000000  0.5191620000000 1.0
C      1  0.5077810000000  0.4995740000000  0.4759440000000 1.0
C      1  0.4168720000000  0.4941200000000  0.4615300000000 1.0
C      1  0.4587770000000  0.5797400000000  0.4854440000000 1.0
C      1  0.4952270000000  0.4587650000000  0.4982140000000 1.0
C      1  0.5113530000000  0.4409970000000  0.5402930000000 1.0
C      1  0.4403180000000  0.4323760000000  0.5224110000000 1.0
C      1  0.5377690000000  0.5100790000000  0.5244710000000 1.0
C      1  0.4604230000000  0.5260620000000  0.5700270000000 1.0
C      1  0.5058450000000  0.4779240000000  0.4047880000000 1.0
C      1  0.4831600000000  0.5644000000000  0.4439270000000 1.0
C      1  0.4569220000000  0.4790020000000  0.5674420000000 1.0
C      1  0.4425570000000  0.5043760000000  0.5642220000000 1.0
C      1  0.5128740000000  0.4105690000000  0.5015450000000 1.0
C      1  0.4320480000000  0.5082670000000  0.4427160000000 1.0
C      1  0.4862860000000  0.4444310000000  0.4745580000000 1.0
C      1  0.5152630000000  0.4150210000000  0.5260000000000 1.0
C      1  0.5670140000000  0.4770760000000  0.5586750000000 1.0
C      1  0.4749410000000  0.5145080000000  0.4270280000000 1.0
C      1  0.5321570000000  0.4615460000000  0.5278790000000 1.0
C      1  0.4832850000000  0.5802120000000  0.4698000000000 1.0
C      1  0.5263240000000  0.4602110000000  0.4971030000000 1.0
C      1  0.4462210000000  0.4520920000000  0.5642600000000 1.0
C      1  0.4121190000000  0.5037240000000  0.4882420000000 1.0
C      1  0.5334310000000  0.5803140000000  0.4858500000000 1.0
C      1  0.4648630000000  0.5783770000000  0.5138620000000 1.0
C      1  0.4284130000000  0.5300090000000  0.4950570000000 1.0
C      1  0.5169420000000  0.5479200000000  0.4587040000000 1.0
C      1  0.5732080000000  0.5496200000000  0.5383590000000 1.0
C      1  0.4790740000000  0.4844190000000  0.5847800000000 1.0
C      1  0.4155660000000  0.5261970000000  0.5356580000000 1.0
C      1  0.4270430000000  0.5479740000000  0.4702860000000 1.0
C      1  0.4159780000000  0.4561210000000  0.4878840000000 1.0
C      1  0.4960850000000  0.4436390000000  0.5671050000000 1.0
C      1  0.4285760000000  0.5449660000000  0.5220140000000 1.0
C      1  0.5009370000000  0.4661760000000  0.5836980000000 1.0
C      1  0.4942630000000  0.5628340000000  0.5590820000000 1.0
C      1  0.4210920000000  0.5021590000000  0.5460870000000 1.0
C      1  0.5083780000000  0.4217430000000  0.4754470000000 1.0
C      1  0.5818160000000  0.4881610000000  0.5000050000000 1.0
C      1  0.4663960000000  0.4289710000000  0.5340710000000 1.0
C      1  0.4350290000000  0.5734040000000  0.4741850000000 1.0
C      1  0.5616510000000  0.4961090000000  0.4386120000000 1.0
C      1  0.5030390000000  0.5291810000000  0.4777020000000 1.0
C      1  0.5073990000000  0.5798370000000  0.5391780000000 1.0
C      1  0.4601910000000  0.4924140000000  0.4939920000000 1.0
C      1  0.4290510000000  0.4511140000000  0.5410340000000 1.0
C      1  0.4439820000000  0.4536670000000  0.4522270000000 1.0
C      1  0.4747000000000  0.5318820000000  0.4729540000000 1.0
C      1  0.5361020000000  0.5784900000000  0.5356120000000 1.0
C      1  0.4861500000000  0.4499780000000  0.5253800000000 1.0
C      1  0.5061780000000  0.5235560000000  0.5877800000000 1.0
C      1  0.5044280000000  0.5856010000000  0.4886850000000 1.0
C      1  0.4921780000000  0.4961220000000  0.5266700000000 1.0
C      1  0.5687520000000  0.5246130000000  0.4465310000000 1.0
C      1  0.4555990000000  0.4950170000000  0.4320140000000 1.0
C      1  0.5459510000000  0.4933090000000  0.4142780000000 1.0
C      1  0.4595780000000  0.5212100000000  0.4947010000000 1.0
C      1  0.5823970000000  0.4468430000000  0.4871130000000 1.0
C      1  0.4630870000000  0.4682580000000  0.4381410000000 1.0
C      1  0.5709530000000  0.5316750000000  0.4941150000000 1.0
C      1  0.4807350000000  0.5128530000000  0.5853820000000 1.0
C      1  0.5389130000000  0.4811350000000  0.4550480000000 1.0
C      1  0.5622200000000  0.4620680000000  0.5341630000000 1.0
C      1  0.5271790000000  0.4777170000000  0.5881020000000 1.0
C      1  0.4886020000000  0.4866420000000  0.4956190000000 1.0
C      1  0.4219730000000  0.4775680000000  0.5296280000000 1.0
C      1  0.5315840000000  0.4453100000000  0.4275860000000 1.0
C      1  0.5457080000000  0.4512050000000  0.4532580000000 1.0
C      1  0.5125040000000  0.5482900000000  0.5756150000000 1.0
C      1  0.5507890000000  0.5209640000000  0.5793820000000 1.0
END
