TITL C-73785-7105-6 555.386961686392 125000 -601.947520497148 0 0 87 (C1) n - 1
REM
REM in /rds/project/t2_vol4/rds-t2-cs072/BORA/CARBON/from-Arr/AIRSS/Generating-Clusters/GAP-ML-2020/Only-C1/SD-CG/HFTN-CG
REM
REM
REM
REM
REM
REM ./C.cell (11c1c37f851c82e70ff6c80c92926a4b)
REM AIRSS Version 0.9.1 bugfix July 2018 build 013d7b7c2542+ Fri, 06 Jul 2018 19:26:36 +0100
REM compiler GCC version 9.3.0
REM options -cpp -mtune=generic -march=x86-64 -g -O0
REM seed -3928666 800519316 -439499699 -1195378472 430412851 -619882742 1498153071 -1484252833 741373327 806326608 432086120 1917108852 -429541146 -897412632 1977285533 1869497 -195371743 -921956321 -889997870 2095148574 -1092298717 -1978309882 1808750950 -1773956391 836174945 1823151831 1238776052 698025052 738643196 1624538901 -279419589 1865019873 1793988468
REM
CELL 1.54180   50.00000   50.00000   50.00000   90.00000   90.00000   90.00000
LATT -1
SFAC C  
C      1  0.5364650000000  0.4735180000000  0.4494880000000 1.0
C      1  0.4566060000000  0.4309720000000  0.5100790000000 1.0
C      1  0.4424870000000  0.5304880000000  0.4560020000000 1.0
C      1  0.5333990000000  0.5392910000000  0.4515810000000 1.0
C      1  0.5708020000000  0.4683000000000  0.4851850000000 1.0
C      1  0.4988680000000  0.5746700000000  0.5205100000000 1.0
C      1  0.5512990000000  0.4976530000000  0.4410490000000 1.0
C      1  0.4938270000000  0.5292470000000  0.4787840000000 1.0
C      1  0.5191120000000  0.4855950000000  0.4722750000000 1.0
C      1  0.4860650000000  0.5206170000000  0.5952540000000 1.0
C      1  0.4782950000000  0.4422920000000  0.4466790000000 1.0
C      1  0.4925000000000  0.5036280000000  0.4640970000000 1.0
C      1  0.4963590000000  0.5807750000000  0.4924490000000 1.0
C      1  0.5386120000000  0.5000250000000  0.5627770000000 1.0
C      1  0.4442630000000  0.4681280000000  0.5476190000000 1.0
C      1  0.4367840000000  0.4975590000000  0.4924140000000 1.0
C      1  0.5787640000000  0.5594520000000  0.4681050000000 1.0
C      1  0.4501510000000  0.4485980000000  0.4884570000000 1.0
C      1  0.4499230000000  0.5694800000000  0.4894220000000 1.0
C      1  0.5632130000000  0.5386930000000  0.4583640000000 1.0
C      1  0.5361480000000  0.5586380000000  0.4965530000000 1.0
C      1  0.4871140000000  0.4631860000000  0.4296220000000 1.0
C      1  0.4768530000000  0.4826860000000  0.5819130000000 1.0
C      1  0.4186580000000  0.4856550000000  0.4443210000000 1.0
C      1  0.5364650000000  0.4308780000000  0.4877350000000 1.0
C      1  0.5620050000000  0.5056230000000  0.5473670000000 1.0
C      1  0.5833100000000  0.5090980000000  0.5053460000000 1.0
C      1  0.4460720000000  0.5256140000000  0.5004500000000 1.0
C      1  0.4944330000000  0.4132740000000  0.5065670000000 1.0
C      1  0.4760890000000  0.5303950000000  0.5011200000000 1.0
C      1  0.5195990000000  0.5749300000000  0.4780830000000 1.0
C      1  0.4680160000000  0.4055080000000  0.5087700000000 1.0
C      1  0.4855380000000  0.5530560000000  0.4567500000000 1.0
C      1  0.5028260000000  0.4598550000000  0.5122350000000 1.0
C      1  0.4667410000000  0.4830980000000  0.4289330000000 1.0
C      1  0.5307020000000  0.5047380000000  0.4910850000000 1.0
C      1  0.4220870000000  0.4743420000000  0.5337550000000 1.0
C      1  0.5063030000000  0.4316490000000  0.5253760000000 1.0
C      1  0.5502120000000  0.4531860000000  0.5250320000000 1.0
C      1  0.5365610000000  0.4310650000000  0.5157440000000 1.0
C      1  0.4600320000000  0.4924400000000  0.5585260000000 1.0
C      1  0.5200330000000  0.5240430000000  0.5580940000000 1.0
C      1  0.5051120000000  0.5097850000000  0.5344650000000 1.0
C      1  0.4866010000000  0.5280020000000  0.5259600000000 1.0
C      1  0.5791550000000  0.4956280000000  0.4797090000000 1.0
C      1  0.4732620000000  0.5667790000000  0.5346690000000 1.0
C      1  0.5237200000000  0.5312990000000  0.4832230000000 1.0
C      1  0.5748050000000  0.5353680000000  0.5128060000000 1.0
C      1  0.4847590000000  0.4893310000000  0.5411500000000 1.0
C      1  0.4786750000000  0.4807950000000  0.4759220000000 1.0
C      1  0.4737230000000  0.5402180000000  0.5505490000000 1.0
C      1  0.4522130000000  0.4490780000000  0.4586080000000 1.0
C      1  0.4629920000000  0.4481980000000  0.5358370000000 1.0
C      1  0.4347410000000  0.5213620000000  0.5280020000000 1.0
C      1  0.5497990000000  0.4538840000000  0.4715080000000 1.0
C      1  0.4211050000000  0.4968350000000  0.5188590000000 1.0
C      1  0.5654670000000  0.5538590000000  0.4926650000000 1.0
C      1  0.5081190000000  0.5034600000000  0.4254460000000 1.0
C      1  0.4378240000000  0.5451940000000  0.4801940000000 1.0
C      1  0.5722500000000  0.4658870000000  0.5142200000000 1.0
C      1  0.5613190000000  0.5333690000000  0.5381290000000 1.0
C      1  0.4887150000000  0.4422900000000  0.5492840000000 1.0
C      1  0.5315290000000  0.5169340000000  0.4333070000000 1.0
C      1  0.5246630000000  0.4747640000000  0.5574270000000 1.0
C      1  0.4943560000000  0.5326720000000  0.5719420000000 1.0
C      1  0.5363420000000  0.5455490000000  0.5441180000000 1.0
C      1  0.4968660000000  0.4679150000000  0.5626170000000 1.0
C      1  0.5021050000000  0.4634140000000  0.4825130000000 1.0
C      1  0.4303330000000  0.5029880000000  0.4628380000000 1.0
C      1  0.5264770000000  0.4989740000000  0.5173670000000 1.0
C      1  0.4585750000000  0.4763290000000  0.4960410000000 1.0
C      1  0.5272520000000  0.4714520000000  0.5275350000000 1.0
C      1  0.4672010000000  0.5343330000000  0.4416280000000 1.0
C      1  0.5128280000000  0.4746720000000  0.4290900000000 1.0
C      1  0.5701280000000  0.5102450000000  0.4572480000000 1.0
C      1  0.5108920000000  0.4184400000000  0.4819240000000 1.0
C      1  0.4740530000000  0.5733020000000  0.4757050000000 1.0
C      1  0.4989700000000  0.4374260000000  0.4657080000000 1.0
C      1  0.4804420000000  0.5086390000000  0.4345420000000 1.0
C      1  0.5137600000000  0.5617920000000  0.4534390000000 1.0
C      1  0.4763430000000  0.4712470000000  0.5202860000000 1.0
C      1  0.4504620000000  0.5217000000000  0.5513180000000 1.0
C      1  0.4525650000000  0.5706430000000  0.5176350000000 1.0
C      1  0.4804330000000  0.4971320000000  0.6061150000000 1.0
C      1  0.5251560000000  0.5628150000000  0.5241030000000 1.0
C      1  0.5771000000000  0.4913760000000  0.5266930000000 1.0
C      1  0.4432190000000  0.4726880000000  0.4436880000000 1.0
END
