TITL C-73802-7008-3 -381.450296193056 125000 -386.853984431032 0 0 56 (C1) n - 1
REM
REM in /rds/project/t2_vol4/rds-t2-cs072/BORA/CARBON/from-Arr/AIRSS/Generating-Clusters/GAP-ML-2020/Only-C1/SD-CG/HFTN-CG
REM
REM
REM
REM
REM
REM ./C.cell (11c1c37f851c82e70ff6c80c92926a4b)
REM AIRSS Version 0.9.1 bugfix July 2018 build 013d7b7c2542+ Fri, 06 Jul 2018 19:26:36 +0100
REM compiler GCC version 9.3.0
REM options -cpp -mtune=generic -march=x86-64 -g -O0
REM seed 843675006 -1451055827 747744009 1360395294 1502767208 948470568 -1068182016 820818914 -256938958 -940465247 2134823034 -522946790 -1724502665 41017236 -2136409868 -1430834748 -447006594 -906576324 1639365565 1626039537 -1601157336 1790250920 1465451921 1872279918 -1868376740 94327515 -507083874 1691446227 -1835687317 -65326052 1085488210 -995350559 -176164097
REM
CELL 1.54180   50.00000   50.00000   50.00000   90.00000   90.00000   90.00000
LATT -1
SFAC C  
C      1  0.5074750000000  0.4740740000000  0.5016030000000 1.0
C      1  0.4776700000000  0.4409120000000  0.4808480000000 1.0
C      1  0.4761800000000  0.5699480000000  0.5182440000000 1.0
C      1  0.4733970000000  0.4562380000000  0.5401310000000 1.0
C      1  0.5690950000000  0.4724370000000  0.5110360000000 1.0
C      1  0.5048350000000  0.4887480000000  0.5643960000000 1.0
C      1  0.4283640000000  0.5153010000000  0.5082490000000 1.0
C      1  0.5413620000000  0.4428500000000  0.4879200000000 1.0
C      1  0.4938120000000  0.4749930000000  0.4444320000000 1.0
C      1  0.4559450000000  0.4543490000000  0.4918910000000 1.0
C      1  0.4745710000000  0.5336830000000  0.5468000000000 1.0
C      1  0.5512810000000  0.4908330000000  0.4723610000000 1.0
C      1  0.5026510000000  0.5425710000000  0.5442090000000 1.0
C      1  0.5405150000000  0.5347140000000  0.4633850000000 1.0
C      1  0.4461740000000  0.4761290000000  0.4753800000000 1.0
C      1  0.4766240000000  0.5653710000000  0.4898270000000 1.0
C      1  0.4398920000000  0.5418230000000  0.5107490000000 1.0
C      1  0.4900620000000  0.4344750000000  0.5381350000000 1.0
C      1  0.5092850000000  0.4278790000000  0.5196440000000 1.0
C      1  0.4990580000000  0.4262550000000  0.4930590000000 1.0
C      1  0.5690800000000  0.5220670000000  0.5092450000000 1.0
C      1  0.4674630000000  0.4870020000000  0.4449240000000 1.0
C      1  0.5044660000000  0.5618560000000  0.4806120000000 1.0
C      1  0.4575840000000  0.5516490000000  0.5310750000000 1.0
C      1  0.4272430000000  0.4736000000000  0.5268480000000 1.0
C      1  0.5027010000000  0.5657810000000  0.5277300000000 1.0
C      1  0.5132740000000  0.5442000000000  0.4602290000000 1.0
C      1  0.5691850000000  0.4977340000000  0.5246290000000 1.0
C      1  0.4706150000000  0.5058090000000  0.5397500000000 1.0
C      1  0.5372500000000  0.4381430000000  0.5164400000000 1.0
C      1  0.4963250000000  0.4508620000000  0.4593640000000 1.0
C      1  0.5178900000000  0.4360760000000  0.4732020000000 1.0
C      1  0.4477690000000  0.5034570000000  0.4886980000000 1.0
C      1  0.5224870000000  0.5171080000000  0.5085130000000 1.0
C      1  0.5215820000000  0.5675070000000  0.5053970000000 1.0
C      1  0.4506770000000  0.4590860000000  0.5203750000000 1.0
C      1  0.5508400000000  0.4848400000000  0.5450270000000 1.0
C      1  0.4980060000000  0.5225660000000  0.4468070000000 1.0
C      1  0.5279200000000  0.4997840000000  0.5542490000000 1.0
C      1  0.5523750000000  0.4586460000000  0.5308590000000 1.0
C      1  0.5510280000000  0.5239540000000  0.4401790000000 1.0
C      1  0.4141600000000  0.4961680000000  0.5234020000000 1.0
C      1  0.5115060000000  0.4973990000000  0.4418490000000 1.0
C      1  0.4702720000000  0.5161360000000  0.4488650000000 1.0
C      1  0.5481390000000  0.5637870000000  0.5101260000000 1.0
C      1  0.5226400000000  0.5230070000000  0.5377450000000 1.0
C      1  0.4532110000000  0.5253360000000  0.4690550000000 1.0
C      1  0.5403080000000  0.4986980000000  0.4465880000000 1.0
C      1  0.4807310000000  0.4824290000000  0.5533110000000 1.0
C      1  0.4435230000000  0.4741110000000  0.4473400000000 1.0
C      1  0.4534210000000  0.5486160000000  0.4851000000000 1.0
C      1  0.5582230000000  0.4668380000000  0.4850740000000 1.0
C      1  0.5695660000000  0.5495310000000  0.5141170000000 1.0
C      1  0.5004050000000  0.4995830000000  0.5018430000000 1.0
C      1  0.5464820000000  0.5163260000000  0.4888380000000 1.0
C      1  0.4734030000000  0.5067260000000  0.5102970000000 1.0
END
