TITL C-73837-5394-3 -45.7535117327987 125000 -59.5453168768151 0 0 10 (C1) n - 1
REM
REM in /rds/project/t2_vol4/rds-t2-cs072/BORA/CARBON/from-Arr/AIRSS/Generating-Clusters/GAP-ML-2020/Only-C1/SD-CG/HFTN-CG
REM
REM
REM
REM
REM
REM ./C.cell (11c1c37f851c82e70ff6c80c92926a4b)
REM AIRSS Version 0.9.1 bugfix July 2018 build 013d7b7c2542+ Fri, 06 Jul 2018 19:26:36 +0100
REM compiler GCC version 9.3.0
REM options -cpp -mtune=generic -march=x86-64 -g -O0
REM seed 366158676 966291547 -1067078592 1358002162 -474598186 -368993347 2033503743 -1193710662 1942631806 -880868043 -94123285 1487958856 -2072787211 1583853406 1384203408 1535597255 -1849092602 -1991855756 1174306639 -1417559624 -335548923 1819431631 -1167711576 343201935 -1841820615 895334047 -226705723 1078056401 1498014581 262679296 150764335 2095888029 -262744550
REM
CELL 1.54180   50.00000   50.00000   50.00000   90.00000   90.00000   90.00000
LATT -1
SFAC C  
C      1  0.5026740000000  0.5221650000000  0.4765260000000 1.0
C      1  0.5190420000000  0.4959870000000  0.4806690000000 1.0
C      1  0.4768080000000  0.5028930000000  0.5182750000000 1.0
C      1  0.5005950000000  0.4689830000000  0.5416360000000 1.0
C      1  0.5470030000000  0.4879270000000  0.4807500000000 1.0
C      1  0.4809910000000  0.5318700000000  0.4909140000000 1.0
C      1  0.4643470000000  0.5275180000000  0.5113930000000 1.0
C      1  0.4964430000000  0.5036850000000  0.4962010000000 1.0
C      1  0.5315240000000  0.4746070000000  0.4651750000000 1.0
C      1  0.4805730000000  0.4843640000000  0.5384600000000 1.0
END
