TITL C-73851-5564-8 -0.321089127376962 125000 -541.677111765467 0 0 80 (C1) n - 1
REM
REM in /rds/project/t2_vol4/rds-t2-cs072/BORA/CARBON/from-Arr/AIRSS/Generating-Clusters/GAP-ML-2020/Only-C1/SD-CG/HFTN-CG
REM
REM
REM
REM
REM
REM ./C.cell (11c1c37f851c82e70ff6c80c92926a4b)
REM AIRSS Version 0.9.1 bugfix July 2018 build 013d7b7c2542+ Fri, 06 Jul 2018 19:26:36 +0100
REM compiler GCC version 9.3.0
REM options -cpp -mtune=generic -march=x86-64 -g -O0
REM seed -1522946171 -437798059 -2083316716 1090324063 -1573520939 -1382439003 -578469513 -1152146103 -479764514 798204078 -520603818 1966939472 -1051425384 662315346 -1852604445 732096746 1054085415 1051489075 -1968191161 680422781 -181646830 718162051 -653825740 -516909464 -399639370 -364223063 1759414584 -1488955754 1477339757 1960379775 50374817 1157122094 -2111893283
REM
CELL 1.54180   50.00000   50.00000   50.00000   90.00000   90.00000   90.00000
LATT -1
SFAC C  
C      1  0.5468810000000  0.5454480000000  0.5067100000000 1.0
C      1  0.5713540000000  0.4991290000000  0.5183940000000 1.0
C      1  0.5051380000000  0.4209460000000  0.5048080000000 1.0
C      1  0.5247260000000  0.5427210000000  0.5618280000000 1.0
C      1  0.5604610000000  0.4717970000000  0.5227780000000 1.0
C      1  0.4723310000000  0.4856500000000  0.4987840000000 1.0
C      1  0.5023520000000  0.4568460000000  0.4794920000000 1.0
C      1  0.4904250000000  0.5388030000000  0.4334160000000 1.0
C      1  0.5432760000000  0.4628410000000  0.4505180000000 1.0
C      1  0.4967720000000  0.4797400000000  0.4600230000000 1.0
C      1  0.4847750000000  0.5000120000000  0.4790590000000 1.0
C      1  0.5404430000000  0.5184180000000  0.5236730000000 1.0
C      1  0.5367630000000  0.5076800000000  0.5909740000000 1.0
C      1  0.5669940000000  0.5411910000000  0.4853630000000 1.0
C      1  0.5210390000000  0.4770630000000  0.4378870000000 1.0
C      1  0.4315430000000  0.4809240000000  0.5271980000000 1.0
C      1  0.4245840000000  0.4827270000000  0.4806840000000 1.0
C      1  0.4552460000000  0.4467800000000  0.4743510000000 1.0
C      1  0.5265860000000  0.5549570000000  0.4639930000000 1.0
C      1  0.4808660000000  0.5536140000000  0.5534430000000 1.0
C      1  0.5311590000000  0.4290400000000  0.5165630000000 1.0
C      1  0.4869460000000  0.4436180000000  0.5447010000000 1.0
C      1  0.4572090000000  0.5629970000000  0.4734650000000 1.0
C      1  0.5142000000000  0.4975050000000  0.5795940000000 1.0
C      1  0.4471390000000  0.5434520000000  0.4564450000000 1.0
C      1  0.5525740000000  0.5456940000000  0.4565330000000 1.0
C      1  0.4847290000000  0.5681560000000  0.4718130000000 1.0
C      1  0.5151690000000  0.5273520000000  0.5359150000000 1.0
C      1  0.4615700000000  0.4557900000000  0.5491830000000 1.0
C      1  0.4710090000000  0.5071090000000  0.5525190000000 1.0
C      1  0.4635390000000  0.5281910000000  0.4378560000000 1.0
C      1  0.4623370000000  0.5349020000000  0.5416700000000 1.0
C      1  0.4322340000000  0.5000640000000  0.4591540000000 1.0
C      1  0.4960120000000  0.4623190000000  0.4257990000000 1.0
C      1  0.5178780000000  0.4798730000000  0.5553070000000 1.0
C      1  0.4611930000000  0.4499870000000  0.4470310000000 1.0
C      1  0.4515060000000  0.4386990000000  0.5278870000000 1.0
C      1  0.4812310000000  0.4349660000000  0.5169630000000 1.0
C      1  0.4307430000000  0.5260550000000  0.4715740000000 1.0
C      1  0.4866060000000  0.4377360000000  0.4374560000000 1.0
C      1  0.5252870000000  0.5376540000000  0.4875130000000 1.0
C      1  0.5444190000000  0.5220270000000  0.5692490000000 1.0
C      1  0.4965710000000  0.5040620000000  0.5067480000000 1.0
C      1  0.5354400000000  0.5700800000000  0.5214880000000 1.0
C      1  0.4990270000000  0.5014120000000  0.5386910000000 1.0
C      1  0.4524820000000  0.4835190000000  0.5479380000000 1.0
C      1  0.4234610000000  0.4978610000000  0.5056600000000 1.0
C      1  0.5279130000000  0.5681940000000  0.5489880000000 1.0
C      1  0.5026120000000  0.5355200000000  0.5080180000000 1.0
C      1  0.4537820000000  0.5005850000000  0.4391850000000 1.0
C      1  0.5125500000000  0.4507200000000  0.5531820000000 1.0
C      1  0.4292110000000  0.5250300000000  0.5006340000000 1.0
C      1  0.5565560000000  0.5075140000000  0.5457820000000 1.0
C      1  0.4335700000000  0.4548970000000  0.5150820000000 1.0
C      1  0.4460980000000  0.5415260000000  0.5177840000000 1.0
C      1  0.5071370000000  0.5793750000000  0.5172440000000 1.0
C      1  0.5301610000000  0.5035650000000  0.4274600000000 1.0
C      1  0.5047850000000  0.4261030000000  0.4764420000000 1.0
C      1  0.4720370000000  0.4767070000000  0.4393220000000 1.0
C      1  0.5310010000000  0.4328330000000  0.5432610000000 1.0
C      1  0.4588370000000  0.5610300000000  0.5022670000000 1.0
C      1  0.5470950000000  0.4792890000000  0.5469300000000 1.0
C      1  0.5243030000000  0.4956620000000  0.5021730000000 1.0
C      1  0.4772930000000  0.4565100000000  0.4943140000000 1.0
C      1  0.5646480000000  0.4748010000000  0.4636110000000 1.0
C      1  0.5410030000000  0.5286720000000  0.4366410000000 1.0
C      1  0.4888080000000  0.5636890000000  0.5012810000000 1.0
C      1  0.5471980000000  0.4513240000000  0.5037000000000 1.0
C      1  0.4992750000000  0.5740180000000  0.5440840000000 1.0
C      1  0.5332180000000  0.5092380000000  0.4786720000000 1.0
C      1  0.4316620000000  0.4561000000000  0.4865920000000 1.0
C      1  0.5626420000000  0.5005820000000  0.4738720000000 1.0
C      1  0.5545500000000  0.4522380000000  0.4754280000000 1.0
C      1  0.5772520000000  0.5145550000000  0.4932080000000 1.0
C      1  0.5147430000000  0.5260940000000  0.4253090000000 1.0
C      1  0.5010120000000  0.5589670000000  0.4514350000000 1.0
C      1  0.5228050000000  0.4668720000000  0.4980290000000 1.0
C      1  0.4965650000000  0.5402780000000  0.5734330000000 1.0
C      1  0.4959160000000  0.4166110000000  0.4523090000000 1.0
C      1  0.4895350000000  0.5134930000000  0.5762350000000 1.0
END
