TITL C-73807-7197-1 265.333244413716 125000 -273.401799405088 0 0 42 (C1) n - 1
REM
REM in /rds/project/t2_vol4/rds-t2-cs072/BORA/CARBON/from-Arr/AIRSS/Generating-Clusters/GAP-ML-2020/Only-C1/SD-CG/HFTN-CG
REM
REM
REM
REM
REM
REM ./C.cell (11c1c37f851c82e70ff6c80c92926a4b)
REM AIRSS Version 0.9.1 bugfix July 2018 build 013d7b7c2542+ Fri, 06 Jul 2018 19:26:36 +0100
REM compiler GCC version 9.3.0
REM options -cpp -mtune=generic -march=x86-64 -g -O0
REM seed -729371167 -684290622 1014248370 -262366826 -2071418023 -1227789281 -549389395 1591268090 -1704617422 56663179 -1990150356 1425045594 1274672024 2071781906 -1921368503 -574140296 1876494138 1147971944 -1347394768 -129584054 1794750505 -1715166898 11547298 2129167018 154038082 -2059183091 -998245038 -182426601 567397739 -2131677625 1404909464 -462167049 2107784021
REM
CELL 1.54180   50.00000   50.00000   50.00000   90.00000   90.00000   90.00000
LATT -1
SFAC C  
C      1  0.4943910000000  0.5464980000000  0.5074300000000 1.0
C      1  0.5236240000000  0.5354040000000  0.5048170000000 1.0
C      1  0.5337030000000  0.4952700000000  0.5634470000000 1.0
C      1  0.5068070000000  0.4952490000000  0.5680540000000 1.0
C      1  0.5396070000000  0.5471940000000  0.4643840000000 1.0
C      1  0.4328160000000  0.4859650000000  0.4905480000000 1.0
C      1  0.4289820000000  0.5366700000000  0.4900600000000 1.0
C      1  0.5390960000000  0.4990300000000  0.4654990000000 1.0
C      1  0.4897660000000  0.4480740000000  0.4687560000000 1.0
C      1  0.5267070000000  0.4786680000000  0.4479890000000 1.0
C      1  0.4294720000000  0.5087500000000  0.4770060000000 1.0
C      1  0.4768930000000  0.4817210000000  0.4485340000000 1.0
C      1  0.4673200000000  0.4536070000000  0.5098270000000 1.0
C      1  0.4484610000000  0.5189070000000  0.4579980000000 1.0
C      1  0.4795970000000  0.5009820000000  0.5686170000000 1.0
C      1  0.4795270000000  0.5209860000000  0.5476780000000 1.0
C      1  0.4677570000000  0.4768670000000  0.5574580000000 1.0
C      1  0.5226250000000  0.5300240000000  0.5350300000000 1.0
C      1  0.5426840000000  0.5518740000000  0.4904310000000 1.0
C      1  0.5049140000000  0.5049610000000  0.5387030000000 1.0
C      1  0.4804870000000  0.5451480000000  0.4834130000000 1.0
C      1  0.4958100000000  0.5266980000000  0.4643940000000 1.0
C      1  0.4950900000000  0.4901970000000  0.4939890000000 1.0
C      1  0.5137760000000  0.5106830000000  0.4844610000000 1.0
C      1  0.5173590000000  0.5387720000000  0.4477170000000 1.0
C      1  0.5149730000000  0.4405490000000  0.5117670000000 1.0
C      1  0.5623330000000  0.4933120000000  0.4816640000000 1.0
C      1  0.5033170000000  0.4673410000000  0.4508170000000 1.0
C      1  0.5423890000000  0.4762230000000  0.5414130000000 1.0
C      1  0.4990410000000  0.4829880000000  0.5217810000000 1.0
C      1  0.4647690000000  0.4626980000000  0.4650500000000 1.0
C      1  0.4526220000000  0.5427700000000  0.4783300000000 1.0
C      1  0.5663570000000  0.4799470000000  0.5291970000000 1.0
C      1  0.5208770000000  0.4633020000000  0.5262510000000 1.0
C      1  0.4919960000000  0.4428630000000  0.4963770000000 1.0
C      1  0.5418830000000  0.5247600000000  0.4487930000000 1.0
C      1  0.4734650000000  0.5089530000000  0.4535610000000 1.0
C      1  0.5389330000000  0.5233700000000  0.5569420000000 1.0
C      1  0.4735920000000  0.4691450000000  0.5327140000000 1.0
C      1  0.4928440000000  0.5421570000000  0.5358040000000 1.0
C      1  0.5716880000000  0.4849970000000  0.5037960000000 1.0
C      1  0.4516510000000  0.4664270000000  0.4895040000000 1.0
END
