TITL C-73847-5381-4 0.0598396793134442 125000 -307.571936857448 0 0 46 (C1) n - 1
REM
REM in /rds/project/t2_vol4/rds-t2-cs072/BORA/CARBON/from-Arr/AIRSS/Generating-Clusters/GAP-ML-2020/Only-C1/SD-CG/HFTN-CG
REM
REM
REM
REM
REM
REM ./C.cell (11c1c37f851c82e70ff6c80c92926a4b)
REM AIRSS Version 0.9.1 bugfix July 2018 build 013d7b7c2542+ Fri, 06 Jul 2018 19:26:36 +0100
REM compiler GCC version 9.3.0
REM options -cpp -mtune=generic -march=x86-64 -g -O0
REM seed -1678327843 -1309830287 -1733842955 -621734637 2015585669 -1586584985 -2019630030 112922765 -843099068 -1760358297 2121221499 -273130146 1012753852 -313567052 -631588759 864307056 2125429772 1670433650 -814300144 -1068790778 -280294097 1043106459 1231551588 1127642085 1761955625 444617813 751317399 -384718621 -277322490 -1017444335 880342267 -1884473449 -1807993905
REM
CELL 1.54180   50.00000   50.00000   50.00000   90.00000   90.00000   90.00000
LATT -1
SFAC C  
C      1  0.5077680000000  0.5491370000000  0.4692560000000 1.0
C      1  0.4799500000000  0.4808680000000  0.4450060000000 1.0
C      1  0.4485850000000  0.5286360000000  0.4939340000000 1.0
C      1  0.5511540000000  0.4849140000000  0.5646200000000 1.0
C      1  0.5128910000000  0.5476690000000  0.4978410000000 1.0
C      1  0.4678880000000  0.5489150000000  0.4908680000000 1.0
C      1  0.4818560000000  0.5278000000000  0.4476090000000 1.0
C      1  0.5223760000000  0.4984400000000  0.4957540000000 1.0
C      1  0.4518840000000  0.5062190000000  0.4761320000000 1.0
C      1  0.5052890000000  0.5402950000000  0.5507210000000 1.0
C      1  0.5453170000000  0.4586200000000  0.5094130000000 1.0
C      1  0.4818600000000  0.5480730000000  0.5386420000000 1.0
C      1  0.5402690000000  0.5075370000000  0.4733440000000 1.0
C      1  0.5491960000000  0.5332410000000  0.5250760000000 1.0
C      1  0.4516510000000  0.5169990000000  0.5206480000000 1.0
C      1  0.4776370000000  0.4926560000000  0.4923500000000 1.0
C      1  0.4586170000000  0.4563200000000  0.4802040000000 1.0
C      1  0.4633090000000  0.4705380000000  0.5345990000000 1.0
C      1  0.5439390000000  0.4881140000000  0.5153420000000 1.0
C      1  0.4488040000000  0.4807490000000  0.4921020000000 1.0
C      1  0.4663360000000  0.4599950000000  0.4546690000000 1.0
C      1  0.5076610000000  0.4775830000000  0.5476300000000 1.0
C      1  0.5560130000000  0.5265570000000  0.4860330000000 1.0
C      1  0.4570670000000  0.5352220000000  0.5406410000000 1.0
C      1  0.4826220000000  0.5073720000000  0.5161180000000 1.0
C      1  0.5074760000000  0.4520130000000  0.5360160000000 1.0
C      1  0.4658020000000  0.5058790000000  0.4508130000000 1.0
C      1  0.5229240000000  0.4546490000000  0.4594630000000 1.0
C      1  0.5088430000000  0.5196460000000  0.5108180000000 1.0
C      1  0.5318750000000  0.4936680000000  0.5457780000000 1.0
C      1  0.4446870000000  0.4860880000000  0.5197670000000 1.0
C      1  0.4835400000000  0.4896200000000  0.5412760000000 1.0
C      1  0.4800160000000  0.4436850000000  0.4960180000000 1.0
C      1  0.5242560000000  0.5241250000000  0.5380310000000 1.0
C      1  0.5328310000000  0.4438380000000  0.5294580000000 1.0
C      1  0.5613540000000  0.5122790000000  0.5115750000000 1.0
C      1  0.5091900000000  0.4807140000000  0.4514590000000 1.0
C      1  0.4873920000000  0.5565470000000  0.5108760000000 1.0
C      1  0.5255170000000  0.5049290000000  0.4493700000000 1.0
C      1  0.5112570000000  0.5281810000000  0.4500720000000 1.0
C      1  0.5421530000000  0.5474250000000  0.5013860000000 1.0
C      1  0.4794210000000  0.5493360000000  0.4658870000000 1.0
C      1  0.4804420000000  0.4497860000000  0.5234870000000 1.0
C      1  0.5049690000000  0.4523170000000  0.4836730000000 1.0
C      1  0.5344350000000  0.4499700000000  0.4839700000000 1.0
C      1  0.5016790000000  0.4828330000000  0.4822560000000 1.0
END
