TITL C-74805-4728-25 0.0934585765909098 125000 -1287.55327706581 0 0 184 (C1) n - 1
REM
REM in /rds/project/t2_vol4/rds-t2-cs072/BORA/CARBON/from-Arr/AIRSS/Generating-Clusters/GAP-ML-2020/Only-C1/SD-CG/HFTN-CG/C160-200
REM
REM
REM
REM
REM
REM ./C.cell (f2ad243b7eb7c0cd63fb1bbaf7e03044)
REM AIRSS Version 0.9.1 bugfix July 2018 build 013d7b7c2542+ Fri, 06 Jul 2018 19:26:36 +0100
REM compiler GCC version 9.3.0
REM options -cpp -mtune=generic -march=x86-64 -g -O0
REM seed 1278330806 -1180788811 -1207104245 -1566252038 577075179 -1695052967 -1818153192 908477939 -979940592 9858413 692380026 845339035 321026035 -1081982497 -271860021 -1470949598 -2035309641 495538206 -346190262 -360210215 1625428335 1251852522 -130972591 -1003328920 1924583607 -587124723 -1767240448 2127488869 -1115538176 1589972615 518879911 -848775583 114464139
REM
CELL 1.54180   50.00000   50.00000   50.00000   90.00000   90.00000   90.00000
LATT -1
SFAC C  
C      1  0.5253300000000  0.5288510000000  0.4007060000000 1.0
C      1  0.4718050000000  0.5321630000000  0.3996060000000 1.0
C      1  0.5251870000000  0.4521160000000  0.4089570000000 1.0
C      1  0.5702000000000  0.4083190000000  0.4916690000000 1.0
C      1  0.4399830000000  0.5222390000000  0.5732680000000 1.0
C      1  0.5501270000000  0.4009630000000  0.4753240000000 1.0
C      1  0.5163780000000  0.6034990000000  0.4802380000000 1.0
C      1  0.5566740000000  0.5853230000000  0.5436980000000 1.0
C      1  0.4600390000000  0.4377550000000  0.4188350000000 1.0
C      1  0.5679930000000  0.4581810000000  0.5040190000000 1.0
C      1  0.5071110000000  0.4909610000000  0.4376500000000 1.0
C      1  0.4602470000000  0.5045900000000  0.6057680000000 1.0
C      1  0.4535600000000  0.4579140000000  0.5865080000000 1.0
C      1  0.5895130000000  0.5299330000000  0.4301580000000 1.0
C      1  0.5601230000000  0.4051500000000  0.5177000000000 1.0
C      1  0.4314800000000  0.5014190000000  0.5089620000000 1.0
C      1  0.5121860000000  0.4045140000000  0.5242880000000 1.0
C      1  0.4856980000000  0.4809430000000  0.3953980000000 1.0
C      1  0.4494660000000  0.5195060000000  0.5255960000000 1.0
C      1  0.4147900000000  0.5567430000000  0.5101800000000 1.0
C      1  0.4899390000000  0.4788280000000  0.4582730000000 1.0
C      1  0.4099160000000  0.5393310000000  0.4843940000000 1.0
C      1  0.4382970000000  0.5480950000000  0.5300050000000 1.0
C      1  0.6071600000000  0.4991060000000  0.5037510000000 1.0
C      1  0.5754270000000  0.4614130000000  0.4222760000000 1.0
C      1  0.5493910000000  0.5667800000000  0.4764460000000 1.0
C      1  0.4203610000000  0.4510640000000  0.4683210000000 1.0
C      1  0.5955100000000  0.4320890000000  0.5273070000000 1.0
C      1  0.4877090000000  0.5859270000000  0.5724430000000 1.0
C      1  0.4023260000000  0.4657670000000  0.5344410000000 1.0
C      1  0.5410320000000  0.4613400000000  0.4905920000000 1.0
C      1  0.5858660000000  0.4337550000000  0.4960680000000 1.0
C      1  0.5204890000000  0.4508530000000  0.5605460000000 1.0
C      1  0.5332800000000  0.4970640000000  0.4502980000000 1.0
C      1  0.5345210000000  0.4211320000000  0.5190560000000 1.0
C      1  0.5036970000000  0.5742780000000  0.5511100000000 1.0
C      1  0.5532390000000  0.5273310000000  0.5915730000000 1.0
C      1  0.4027800000000  0.4947490000000  0.5253810000000 1.0
C      1  0.5476490000000  0.5463660000000  0.4084410000000 1.0
C      1  0.5121980000000  0.5497910000000  0.5899120000000 1.0
C      1  0.3815730000000  0.4828980000000  0.4818500000000 1.0
C      1  0.4858010000000  0.5532130000000  0.5383450000000 1.0
C      1  0.5365750000000  0.4570260000000  0.5852650000000 1.0
C      1  0.4745780000000  0.4002990000000  0.5480640000000 1.0
C      1  0.4899840000000  0.6037290000000  0.4913630000000 1.0
C      1  0.3783100000000  0.5076080000000  0.4668370000000 1.0
C      1  0.5658720000000  0.5656150000000  0.4506370000000 1.0
C      1  0.5222650000000  0.4767270000000  0.5064860000000 1.0
C      1  0.5827330000000  0.4870740000000  0.4151550000000 1.0
C      1  0.4673490000000  0.5631740000000  0.4941230000000 1.0
C      1  0.3923400000000  0.5138970000000  0.4442690000000 1.0
C      1  0.6045600000000  0.4714440000000  0.4714190000000 1.0
C      1  0.5478310000000  0.5665080000000  0.4282650000000 1.0
C      1  0.5236200000000  0.5549810000000  0.4647940000000 1.0
C      1  0.5270350000000  0.5322150000000  0.5396290000000 1.0
C      1  0.4635450000000  0.5647450000000  0.5230570000000 1.0
C      1  0.4784470000000  0.5382040000000  0.4858020000000 1.0
C      1  0.4978430000000  0.5912160000000  0.4356980000000 1.0
C      1  0.5283060000000  0.4206440000000  0.4442900000000 1.0
C      1  0.5490330000000  0.5177840000000  0.4969240000000 1.0
C      1  0.4879560000000  0.6037930000000  0.5192420000000 1.0
C      1  0.4579000000000  0.4840290000000  0.4542500000000 1.0
C      1  0.4520030000000  0.4574270000000  0.5235940000000 1.0
C      1  0.5623990000000  0.4606050000000  0.5323700000000 1.0
C      1  0.5611770000000  0.4415830000000  0.5812510000000 1.0
C      1  0.5831670000000  0.5295430000000  0.5313550000000 1.0
C      1  0.5842620000000  0.5491980000000  0.5541220000000 1.0
C      1  0.4363340000000  0.6009510000000  0.5204780000000 1.0
C      1  0.4876040000000  0.4495180000000  0.4575470000000 1.0
C      1  0.4982580000000  0.5274830000000  0.5327400000000 1.0
C      1  0.5657950000000  0.5488600000000  0.5763680000000 1.0
C      1  0.5237340000000  0.5559310000000  0.5627460000000 1.0
C      1  0.5109740000000  0.4323700000000  0.4249830000000 1.0
C      1  0.4386080000000  0.4272730000000  0.4327410000000 1.0
C      1  0.5230440000000  0.4118910000000  0.4724700000000 1.0
C      1  0.5254760000000  0.5275220000000  0.6010160000000 1.0
C      1  0.4338510000000  0.4973110000000  0.5899310000000 1.0
C      1  0.4842710000000  0.4347070000000  0.4329560000000 1.0
C      1  0.4235240000000  0.5850740000000  0.5026600000000 1.0
C      1  0.4968850000000  0.5213390000000  0.4394930000000 1.0
C      1  0.3967140000000  0.5213790000000  0.5376520000000 1.0
C      1  0.5595560000000  0.4995980000000  0.5903700000000 1.0
C      1  0.4550560000000  0.5072990000000  0.5515260000000 1.0
C      1  0.4622450000000  0.5580730000000  0.5961790000000 1.0
C      1  0.5604790000000  0.5460230000000  0.4938990000000 1.0
C      1  0.5534160000000  0.4307230000000  0.4385490000000 1.0
C      1  0.5175950000000  0.6008230000000  0.4523120000000 1.0
C      1  0.5940180000000  0.4461130000000  0.4695730000000 1.0
C      1  0.5834750000000  0.5759540000000  0.5405580000000 1.0
C      1  0.4332070000000  0.5489810000000  0.5597880000000 1.0
C      1  0.4792050000000  0.5076740000000  0.3905440000000 1.0
C      1  0.4566170000000  0.5589710000000  0.4407510000000 1.0
C      1  0.4260780000000  0.5308750000000  0.4148750000000 1.0
C      1  0.4776880000000  0.4874820000000  0.5540260000000 1.0
C      1  0.4621100000000  0.5903550000000  0.5617410000000 1.0
C      1  0.4101310000000  0.5531870000000  0.4566760000000 1.0
C      1  0.4513180000000  0.4323780000000  0.5753610000000 1.0
C      1  0.4282570000000  0.5158750000000  0.4842110000000 1.0
C      1  0.5040200000000  0.4024660000000  0.5501020000000 1.0
C      1  0.5744170000000  0.4873460000000  0.5683840000000 1.0
C      1  0.5982330000000  0.4860020000000  0.5485890000000 1.0
C      1  0.5392790000000  0.5919320000000  0.4933420000000 1.0
C      1  0.4550370000000  0.5314910000000  0.5979860000000 1.0
C      1  0.4400060000000  0.5839220000000  0.4783870000000 1.0
C      1  0.5881820000000  0.5481940000000  0.4520360000000 1.0
C      1  0.4783050000000  0.4733330000000  0.5821250000000 1.0
C      1  0.5204400000000  0.5166300000000  0.4845520000000 1.0
C      1  0.3970700000000  0.4588870000000  0.4843210000000 1.0
C      1  0.5702820000000  0.5299030000000  0.4091040000000 1.0
C      1  0.4745230000000  0.4190250000000  0.5694630000000 1.0
C      1  0.5653290000000  0.4978170000000  0.4806790000000 1.0
C      1  0.5885020000000  0.5494560000000  0.5041490000000 1.0
C      1  0.5377530000000  0.5929550000000  0.5224270000000 1.0
C      1  0.4724840000000  0.4458910000000  0.4807450000000 1.0
C      1  0.5585910000000  0.4225080000000  0.5594820000000 1.0
C      1  0.5774250000000  0.4136960000000  0.5385300000000 1.0
C      1  0.4778580000000  0.4900460000000  0.5051490000000 1.0
C      1  0.4612120000000  0.4063850000000  0.5211600000000 1.0
C      1  0.5976730000000  0.5750050000000  0.5174800000000 1.0
C      1  0.4175430000000  0.5017290000000  0.4427190000000 1.0
C      1  0.4443610000000  0.5104320000000  0.4605700000000 1.0
C      1  0.6118780000000  0.5146560000000  0.4795600000000 1.0
C      1  0.4286250000000  0.4111250000000  0.4847510000000 1.0
C      1  0.5486310000000  0.5697310000000  0.5667420000000 1.0
C      1  0.4158820000000  0.4568170000000  0.5581490000000 1.0
C      1  0.4485850000000  0.4777950000000  0.5024550000000 1.0
C      1  0.6001760000000  0.5400990000000  0.4774430000000 1.0
C      1  0.5806300000000  0.4582460000000  0.5719790000000 1.0
C      1  0.5141940000000  0.4798140000000  0.4062070000000 1.0
C      1  0.4512540000000  0.3948640000000  0.4939470000000 1.0
C      1  0.4503600000000  0.5450180000000  0.4137960000000 1.0
C      1  0.5071710000000  0.5436320000000  0.4867720000000 1.0
C      1  0.5144860000000  0.5000220000000  0.6050780000000 1.0
C      1  0.4504260000000  0.4828500000000  0.4237930000000 1.0
C      1  0.3817400000000  0.4990720000000  0.5050450000000 1.0
C      1  0.4739740000000  0.5821080000000  0.4474420000000 1.0
C      1  0.6104340000000  0.4952780000000  0.4578520000000 1.0
C      1  0.5917080000000  0.4571790000000  0.5443770000000 1.0
C      1  0.4311270000000  0.4327470000000  0.5555010000000 1.0
C      1  0.5108790000000  0.5950080000000  0.5323040000000 1.0
C      1  0.5704850000000  0.4529210000000  0.4515790000000 1.0
C      1  0.5633240000000  0.5033400000000  0.4012080000000 1.0
C      1  0.4325480000000  0.5690380000000  0.4558640000000 1.0
C      1  0.4892970000000  0.5664980000000  0.5935760000000 1.0
C      1  0.4406640000000  0.4280230000000  0.5272830000000 1.0
C      1  0.4791270000000  0.4656470000000  0.5265870000000 1.0
C      1  0.5991070000000  0.5031590000000  0.4329080000000 1.0
C      1  0.4736990000000  0.3858980000000  0.4788270000000 1.0
C      1  0.4965710000000  0.3997400000000  0.4820980000000 1.0
C      1  0.4696320000000  0.5307370000000  0.4565440000000 1.0
C      1  0.4984710000000  0.5315290000000  0.4108950000000 1.0
C      1  0.5236110000000  0.5246790000000  0.4561370000000 1.0
C      1  0.5516380000000  0.5163870000000  0.5289380000000 1.0
C      1  0.4011650000000  0.4480820000000  0.5108460000000 1.0
C      1  0.4617410000000  0.5940680000000  0.5319960000000 1.0
C      1  0.4891280000000  0.4133680000000  0.5083400000000 1.0
C      1  0.3910880000000  0.5415590000000  0.5201650000000 1.0
C      1  0.5517720000000  0.4874810000000  0.5419870000000 1.0
C      1  0.3826160000000  0.5259880000000  0.4926480000000 1.0
C      1  0.4045560000000  0.5377200000000  0.4342550000000 1.0
C      1  0.4294670000000  0.5015660000000  0.4173100000000 1.0
C      1  0.5226210000000  0.5749460000000  0.4402550000000 1.0
C      1  0.5032830000000  0.4257030000000  0.5671370000000 1.0
C      1  0.5231810000000  0.4371340000000  0.4941770000000 1.0
C      1  0.5226490000000  0.4812210000000  0.5389740000000 1.0
C      1  0.5525390000000  0.4466710000000  0.4138040000000 1.0
C      1  0.5497540000000  0.4780220000000  0.4655550000000 1.0
C      1  0.4864660000000  0.4914910000000  0.6029620000000 1.0
C      1  0.6025240000000  0.5063090000000  0.5305170000000 1.0
C      1  0.4192700000000  0.4258430000000  0.5081030000000 1.0
C      1  0.4695960000000  0.5877580000000  0.4762710000000 1.0
C      1  0.4757660000000  0.5188370000000  0.5111390000000 1.0
C      1  0.4477450000000  0.4641400000000  0.4762250000000 1.0
C      1  0.5417000000000  0.4388990000000  0.5421720000000 1.0
C      1  0.4262390000000  0.4251350000000  0.4571530000000 1.0
C      1  0.4643290000000  0.4651170000000  0.4068050000000 1.0
C      1  0.4467690000000  0.5697330000000  0.5738240000000 1.0
C      1  0.4288630000000  0.4714420000000  0.5803230000000 1.0
C      1  0.4924450000000  0.4430580000000  0.5031860000000 1.0
C      1  0.5345500000000  0.5017650000000  0.3971500000000 1.0
C      1  0.5366610000000  0.4828960000000  0.5977220000000 1.0
C      1  0.5021130000000  0.4892550000000  0.4876200000000 1.0
C      1  0.5031410000000  0.5019710000000  0.5480980000000 1.0
C      1  0.5867400000000  0.4808010000000  0.4938280000000 1.0
END
