TITL C-74805-4728-19 -42.029281902333 125000 -1286.11544486803 0 0 179 (C1) n - 1
REM
REM in /rds/project/t2_vol4/rds-t2-cs072/BORA/CARBON/from-Arr/AIRSS/Generating-Clusters/GAP-ML-2020/Only-C1/SD-CG/HFTN-CG/C160-200
REM
REM
REM
REM
REM
REM ./C.cell (f2ad243b7eb7c0cd63fb1bbaf7e03044)
REM AIRSS Version 0.9.1 bugfix July 2018 build 013d7b7c2542+ Fri, 06 Jul 2018 19:26:36 +0100
REM compiler GCC version 9.3.0
REM options -cpp -mtune=generic -march=x86-64 -g -O0
REM seed -341283716 1188543804 848458869 -554957618 -178079704 -499975050 528498385 1061309450 -923851053 164737613 -1181203203 -645387158 -322881243 -1943464648 -2028537196 1219044796 -1784427050 -240274100 923610451 -1454390162 829147650 1087541083 2125530588 -805544030 -1159807818 1161011315 621355238 -978702947 -207872699 777301845 1553749456 -1582936315 941252701
REM
CELL 1.54180   50.00000   50.00000   50.00000   90.00000   90.00000   90.00000
LATT -1
SFAC C  
C      1  0.4664980000000  0.4714630000000  0.4806050000000 1.0
C      1  0.4476960000000  0.4803200000000  0.4099740000000 1.0
C      1  0.5093900000000  0.3871340000000  0.5095830000000 1.0
C      1  0.5268600000000  0.4773060000000  0.6002590000000 1.0
C      1  0.4123830000000  0.4959530000000  0.5237230000000 1.0
C      1  0.4483730000000  0.4872100000000  0.4579950000000 1.0
C      1  0.5220140000000  0.4635350000000  0.5379550000000 1.0
C      1  0.4196820000000  0.5572530000000  0.5765940000000 1.0
C      1  0.5351630000000  0.5032010000000  0.4277010000000 1.0
C      1  0.5361740000000  0.3930970000000  0.5187240000000 1.0
C      1  0.4051390000000  0.5179760000000  0.4667940000000 1.0
C      1  0.5311730000000  0.5415030000000  0.5480730000000 1.0
C      1  0.4715830000000  0.4082070000000  0.5674100000000 1.0
C      1  0.5014710000000  0.4638160000000  0.6024360000000 1.0
C      1  0.4709100000000  0.5601470000000  0.5902850000000 1.0
C      1  0.5941820000000  0.5036630000000  0.5400980000000 1.0
C      1  0.5228290000000  0.4061920000000  0.4655500000000 1.0
C      1  0.4104210000000  0.4701410000000  0.5400050000000 1.0
C      1  0.5564830000000  0.4000070000000  0.5002520000000 1.0
C      1  0.5580120000000  0.5182660000000  0.4686830000000 1.0
C      1  0.4722050000000  0.4653730000000  0.5303380000000 1.0
C      1  0.4558430000000  0.4027020000000  0.4960410000000 1.0
C      1  0.4093120000000  0.4594000000000  0.4894450000000 1.0
C      1  0.5142410000000  0.5404220000000  0.4538320000000 1.0
C      1  0.5701600000000  0.4206290000000  0.4601540000000 1.0
C      1  0.4759360000000  0.5391850000000  0.5407100000000 1.0
C      1  0.5806260000000  0.5582560000000  0.5324320000000 1.0
C      1  0.4980170000000  0.4346990000000  0.5090470000000 1.0
C      1  0.4380320000000  0.4709550000000  0.4351390000000 1.0
C      1  0.5313340000000  0.5519890000000  0.4980940000000 1.0
C      1  0.5094080000000  0.5256520000000  0.6039860000000 1.0
C      1  0.5471830000000  0.6019470000000  0.4896650000000 1.0
C      1  0.5229970000000  0.4286280000000  0.3998950000000 1.0
C      1  0.5488360000000  0.5617090000000  0.4267790000000 1.0
C      1  0.4456100000000  0.5150720000000  0.5880700000000 1.0
C      1  0.5292080000000  0.4710950000000  0.3947920000000 1.0
C      1  0.5871460000000  0.5550090000000  0.4814750000000 1.0
C      1  0.5100210000000  0.4486440000000  0.4875960000000 1.0
C      1  0.5640990000000  0.5124500000000  0.4391340000000 1.0
C      1  0.5664940000000  0.4839490000000  0.5764000000000 1.0
C      1  0.4581590000000  0.4502580000000  0.5902220000000 1.0
C      1  0.4806230000000  0.5430750000000  0.4007560000000 1.0
C      1  0.5324020000000  0.5722890000000  0.5500930000000 1.0
C      1  0.4942640000000  0.6007590000000  0.5435940000000 1.0
C      1  0.4947490000000  0.5936640000000  0.5714720000000 1.0
C      1  0.4990410000000  0.5011960000000  0.4981820000000 1.0
C      1  0.4501280000000  0.5232080000000  0.4865310000000 1.0
C      1  0.5035850000000  0.5850820000000  0.4335070000000 1.0
C      1  0.4315090000000  0.4304370000000  0.5524670000000 1.0
C      1  0.4774070000000  0.4892400000000  0.5453240000000 1.0
C      1  0.4741890000000  0.5462490000000  0.5122020000000 1.0
C      1  0.5642510000000  0.5898220000000  0.5095600000000 1.0
C      1  0.5015120000000  0.5330380000000  0.5577020000000 1.0
C      1  0.4521600000000  0.5530400000000  0.5520700000000 1.0
C      1  0.5237480000000  0.4228570000000  0.5833470000000 1.0
C      1  0.5468300000000  0.4664770000000  0.4705360000000 1.0
C      1  0.5436130000000  0.4939760000000  0.4793130000000 1.0
C      1  0.5152630000000  0.6013480000000  0.4535000000000 1.0
C      1  0.5972510000000  0.4676190000000  0.5102420000000 1.0
C      1  0.4350050000000  0.4500900000000  0.5736620000000 1.0
C      1  0.4681700000000  0.6018350000000  0.5333140000000 1.0
C      1  0.5780820000000  0.4589860000000  0.5314160000000 1.0
C      1  0.4758360000000  0.4282130000000  0.5865800000000 1.0
C      1  0.5030940000000  0.4225760000000  0.4137030000000 1.0
C      1  0.5145910000000  0.5742030000000  0.5759540000000 1.0
C      1  0.5790830000000  0.5615670000000  0.4548420000000 1.0
C      1  0.5592900000000  0.4209840000000  0.5539140000000 1.0
C      1  0.4747870000000  0.4741830000000  0.4029550000000 1.0
C      1  0.4421140000000  0.4270610000000  0.4595980000000 1.0
C      1  0.4380980000000  0.5551170000000  0.4191850000000 1.0
C      1  0.5495400000000  0.4634670000000  0.5873020000000 1.0
C      1  0.5851990000000  0.5697740000000  0.5054240000000 1.0
C      1  0.3944940000000  0.5223740000000  0.5158150000000 1.0
C      1  0.5847860000000  0.4875490000000  0.4382450000000 1.0
C      1  0.5484180000000  0.4357200000000  0.5774880000000 1.0
C      1  0.4733910000000  0.4725060000000  0.6014140000000 1.0
C      1  0.4223760000000  0.4746100000000  0.5652880000000 1.0
C      1  0.4892830000000  0.5466810000000  0.4681890000000 1.0
C      1  0.4984430000000  0.5022160000000  0.5594190000000 1.0
C      1  0.5131030000000  0.5104040000000  0.4471410000000 1.0
C      1  0.5598300000000  0.5812640000000  0.4452350000000 1.0
C      1  0.5190180000000  0.4019570000000  0.5643360000000 1.0
C      1  0.4262230000000  0.4473950000000  0.4463350000000 1.0
C      1  0.5473780000000  0.4945720000000  0.5086470000000 1.0
C      1  0.5145030000000  0.4952720000000  0.3859850000000 1.0
C      1  0.5373080000000  0.5419530000000  0.4724060000000 1.0
C      1  0.5976980000000  0.4571400000000  0.4837610000000 1.0
C      1  0.5148070000000  0.5865000000000  0.5303330000000 1.0
C      1  0.4544630000000  0.4684020000000  0.5055770000000 1.0
C      1  0.4305140000000  0.5020640000000  0.5681890000000 1.0
C      1  0.4029460000000  0.5450450000000  0.5327240000000 1.0
C      1  0.4965560000000  0.4489840000000  0.5319610000000 1.0
C      1  0.5783690000000  0.4174230000000  0.5074570000000 1.0
C      1  0.6217180000000  0.4970810000000  0.4706510000000 1.0
C      1  0.4454330000000  0.5446880000000  0.5824570000000 1.0
C      1  0.4293940000000  0.5018990000000  0.4773990000000 1.0
C      1  0.5019510000000  0.4363980000000  0.5940710000000 1.0
C      1  0.5438160000000  0.5981080000000  0.4610290000000 1.0
C      1  0.4910410000000  0.4353260000000  0.4380670000000 1.0
C      1  0.4308620000000  0.5715300000000  0.4917440000000 1.0
C      1  0.5785970000000  0.4679830000000  0.4208420000000 1.0
C      1  0.4169940000000  0.4356250000000  0.5032920000000 1.0
C      1  0.5192560000000  0.5592950000000  0.4259900000000 1.0
C      1  0.4694880000000  0.4204030000000  0.4544640000000 1.0
C      1  0.5130400000000  0.5738210000000  0.5040020000000 1.0
C      1  0.4437270000000  0.5469720000000  0.5046790000000 1.0
C      1  0.5467300000000  0.4653330000000  0.5191370000000 1.0
C      1  0.5637340000000  0.5208290000000  0.5143720000000 1.0
C      1  0.4952850000000  0.4749520000000  0.4835910000000 1.0
C      1  0.4338740000000  0.5120210000000  0.5393910000000 1.0
C      1  0.5805440000000  0.5262650000000  0.4879850000000 1.0
C      1  0.4853470000000  0.4956560000000  0.3865070000000 1.0
C      1  0.4898890000000  0.4965360000000  0.4386720000000 1.0
C      1  0.5349390000000  0.5329190000000  0.5190340000000 1.0
C      1  0.5602740000000  0.4360380000000  0.4373710000000 1.0
C      1  0.4995880000000  0.5485400000000  0.5850850000000 1.0
C      1  0.5382080000000  0.4529930000000  0.4939440000000 1.0
C      1  0.4688400000000  0.5854660000000  0.5781860000000 1.0
C      1  0.5163140000000  0.4908430000000  0.5422550000000 1.0
C      1  0.4768040000000  0.4027220000000  0.4761030000000 1.0
C      1  0.4647790000000  0.5628430000000  0.4151630000000 1.0
C      1  0.4122020000000  0.5331790000000  0.4431800000000 1.0
C      1  0.4909220000000  0.5591410000000  0.4935930000000 1.0
C      1  0.4069250000000  0.5654300000000  0.5516690000000 1.0
C      1  0.5401090000000  0.4014440000000  0.5456780000000 1.0
C      1  0.4318270000000  0.5406580000000  0.5318400000000 1.0
C      1  0.4936590000000  0.3943080000000  0.5561740000000 1.0
C      1  0.4883070000000  0.3878720000000  0.5288730000000 1.0
C      1  0.5029980000000  0.3936130000000  0.4820900000000 1.0
C      1  0.5208950000000  0.5058850000000  0.5180400000000 1.0
C      1  0.4069120000000  0.4569070000000  0.4628720000000 1.0
C      1  0.4714770000000  0.6053780000000  0.4797370000000 1.0
C      1  0.6045930000000  0.4940750000000  0.5150570000000 1.0
C      1  0.5262990000000  0.4721430000000  0.4240930000000 1.0
C      1  0.4874130000000  0.5137740000000  0.6139430000000 1.0
C      1  0.5505420000000  0.4038630000000  0.4722260000000 1.0
C      1  0.5875030000000  0.4300740000000  0.4826860000000 1.0
C      1  0.6020800000000  0.4793400000000  0.4625630000000 1.0
C      1  0.4247220000000  0.5873540000000  0.5402940000000 1.0
C      1  0.4668790000000  0.5305510000000  0.4634510000000 1.0
C      1  0.5307600000000  0.5062480000000  0.5980290000000 1.0
C      1  0.5231840000000  0.5165210000000  0.4019560000000 1.0
C      1  0.5086490000000  0.5413990000000  0.4053230000000 1.0
C      1  0.5774930000000  0.5288700000000  0.5407250000000 1.0
C      1  0.5433500000000  0.4465810000000  0.3923050000000 1.0
C      1  0.4577030000000  0.6041580000000  0.5067080000000 1.0
C      1  0.6055410000000  0.5084380000000  0.4902270000000 1.0
C      1  0.4726280000000  0.5150600000000  0.5051270000000 1.0
C      1  0.5776110000000  0.4296070000000  0.5339710000000 1.0
C      1  0.4634850000000  0.5104750000000  0.5328870000000 1.0
C      1  0.4999640000000  0.6093730000000  0.4764670000000 1.0
C      1  0.4617940000000  0.3973970000000  0.5232920000000 1.0
C      1  0.5368190000000  0.4521180000000  0.4456160000000 1.0
C      1  0.4267920000000  0.5276860000000  0.4178930000000 1.0
C      1  0.5555700000000  0.5292940000000  0.5614980000000 1.0
C      1  0.4163460000000  0.4429340000000  0.5312180000000 1.0
C      1  0.4654430000000  0.5004350000000  0.6049310000000 1.0
C      1  0.4429550000000  0.5085690000000  0.4036170000000 1.0
C      1  0.5691300000000  0.5421540000000  0.4343690000000 1.0
C      1  0.4238410000000  0.5607850000000  0.4437070000000 1.0
C      1  0.4663880000000  0.5078530000000  0.4469530000000 1.0
C      1  0.5142530000000  0.4345230000000  0.4577060000000 1.0
C      1  0.4236680000000  0.4828930000000  0.4996980000000 1.0
C      1  0.4352200000000  0.5774420000000  0.4636070000000 1.0
C      1  0.3902620000000  0.5249540000000  0.4893880000000 1.0
C      1  0.5827760000000  0.4808460000000  0.5530370000000 1.0
C      1  0.5597650000000  0.5774290000000  0.5368170000000 1.0
C      1  0.4517990000000  0.5852740000000  0.5522060000000 1.0
C      1  0.5540110000000  0.5099040000000  0.5816700000000 1.0
C      1  0.5193870000000  0.6016390000000  0.4968590000000 1.0
C      1  0.4317710000000  0.5915430000000  0.5117980000000 1.0
C      1  0.4941480000000  0.4686820000000  0.4270600000000 1.0
C      1  0.5674040000000  0.4456790000000  0.4107390000000 1.0
C      1  0.4348320000000  0.4192320000000  0.4865810000000 1.0
C      1  0.4590510000000  0.5922050000000  0.4568240000000 1.0
C      1  0.4683350000000  0.5184100000000  0.3918720000000 1.0
C      1  0.4508790000000  0.4096620000000  0.5479550000000 1.0
C      1  0.4752120000000  0.5832220000000  0.4331140000000 1.0
C      1  0.5144290000000  0.4965620000000  0.4725710000000 1.0
END
