TITL C-74805-4728-31 692.240660336031 125000 -1311.2456806333 0 0 188 (C1) n - 1
REM
REM in /rds/project/t2_vol4/rds-t2-cs072/BORA/CARBON/from-Arr/AIRSS/Generating-Clusters/GAP-ML-2020/Only-C1/SD-CG/HFTN-CG/C160-200
REM
REM
REM
REM
REM
REM ./C.cell (f2ad243b7eb7c0cd63fb1bbaf7e03044)
REM AIRSS Version 0.9.1 bugfix July 2018 build 013d7b7c2542+ Fri, 06 Jul 2018 19:26:36 +0100
REM compiler GCC version 9.3.0
REM options -cpp -mtune=generic -march=x86-64 -g -O0
REM seed -1005536400 1802140039 -939726267 -357005156 -1730802674 -1465124721 1757533771 882300159 552825494 -597862262 951636198 -31382675 -209961060 -114703619 -1400522149 1780578135 422059950 -468490544 -2145824689 1378211477 -166832981 972025572 -114293595 -63665807 1425994968 -1407589867 1457349548 1763419884 520169423 -1216718708 331949168 -1482993975 -193504207
REM
CELL 1.54180   50.00000   50.00000   50.00000   90.00000   90.00000   90.00000
LATT -1
SFAC C  
C      1  0.3891410000000  0.4586640000000  0.5344900000000 1.0
C      1  0.4732410000000  0.4665720000000  0.3937980000000 1.0
C      1  0.5596850000000  0.4837170000000  0.4843080000000 1.0
C      1  0.4244330000000  0.5158070000000  0.4303180000000 1.0
C      1  0.6081820000000  0.5359170000000  0.5051080000000 1.0
C      1  0.4252910000000  0.5136770000000  0.5834270000000 1.0
C      1  0.5908560000000  0.4364260000000  0.4854340000000 1.0
C      1  0.4384550000000  0.4399770000000  0.5288440000000 1.0
C      1  0.5365450000000  0.5551240000000  0.4322100000000 1.0
C      1  0.3926000000000  0.4866730000000  0.5425360000000 1.0
C      1  0.4481630000000  0.4827240000000  0.3949270000000 1.0
C      1  0.5768260000000  0.4579630000000  0.5546460000000 1.0
C      1  0.6029050000000  0.4619090000000  0.4848670000000 1.0
C      1  0.4999910000000  0.4533560000000  0.4388810000000 1.0
C      1  0.5119170000000  0.4808360000000  0.4355150000000 1.0
C      1  0.4699540000000  0.5110060000000  0.5265120000000 1.0
C      1  0.5002820000000  0.5490170000000  0.5321560000000 1.0
C      1  0.4978490000000  0.6154690000000  0.5180320000000 1.0
C      1  0.4325940000000  0.4674890000000  0.4429750000000 1.0
C      1  0.5569800000000  0.4433690000000  0.5154310000000 1.0
C      1  0.4732950000000  0.4610590000000  0.4820270000000 1.0
C      1  0.4280370000000  0.4918710000000  0.6005780000000 1.0
C      1  0.5988560000000  0.5623450000000  0.5101810000000 1.0
C      1  0.4835210000000  0.4672730000000  0.5097350000000 1.0
C      1  0.5819380000000  0.5772370000000  0.4916170000000 1.0
C      1  0.5369170000000  0.5881900000000  0.4996780000000 1.0
C      1  0.4790150000000  0.4487440000000  0.4147570000000 1.0
C      1  0.4835680000000  0.5957100000000  0.5359870000000 1.0
C      1  0.5841760000000  0.5241720000000  0.4402470000000 1.0
C      1  0.4897010000000  0.4412290000000  0.5224540000000 1.0
C      1  0.4374270000000  0.4410940000000  0.4346530000000 1.0
C      1  0.4708090000000  0.6161380000000  0.5165640000000 1.0
C      1  0.4810940000000  0.5659790000000  0.4918600000000 1.0
C      1  0.6040310000000  0.5303100000000  0.4766820000000 1.0
C      1  0.5204530000000  0.4838270000000  0.6055760000000 1.0
C      1  0.4830980000000  0.4874130000000  0.5799220000000 1.0
C      1  0.5143890000000  0.5010960000000  0.4823010000000 1.0
C      1  0.5492870000000  0.4540530000000  0.4869900000000 1.0
C      1  0.4388320000000  0.5032410000000  0.5588230000000 1.0
C      1  0.4781280000000  0.5346760000000  0.5722420000000 1.0
C      1  0.4960810000000  0.4521150000000  0.4680560000000 1.0
C      1  0.5525970000000  0.5876450000000  0.5572970000000 1.0
C      1  0.4966800000000  0.4819370000000  0.5520830000000 1.0
C      1  0.5239620000000  0.5020120000000  0.4516840000000 1.0
C      1  0.5403950000000  0.3918350000000  0.4893310000000 1.0
C      1  0.5913670000000  0.5702230000000  0.5367000000000 1.0
C      1  0.6076040000000  0.5185890000000  0.5293290000000 1.0
C      1  0.4645620000000  0.5322960000000  0.4155390000000 1.0
C      1  0.4061820000000  0.5183100000000  0.4521440000000 1.0
C      1  0.4801070000000  0.4374470000000  0.5724110000000 1.0
C      1  0.4391510000000  0.4898950000000  0.4227220000000 1.0
C      1  0.5862030000000  0.4804140000000  0.4653320000000 1.0
C      1  0.5162820000000  0.5108010000000  0.5998470000000 1.0
C      1  0.5657530000000  0.4334590000000  0.4689060000000 1.0
C      1  0.5025160000000  0.4434090000000  0.5918970000000 1.0
C      1  0.5542590000000  0.4227610000000  0.5784880000000 1.0
C      1  0.4725400000000  0.4830460000000  0.5342700000000 1.0
C      1  0.5054350000000  0.5430810000000  0.5608340000000 1.0
C      1  0.5338840000000  0.5244690000000  0.4316020000000 1.0
C      1  0.4305920000000  0.4205290000000  0.5070820000000 1.0
C      1  0.5943960000000  0.4801530000000  0.5524900000000 1.0
C      1  0.6138360000000  0.4735820000000  0.5068970000000 1.0
C      1  0.4660840000000  0.5018110000000  0.4583290000000 1.0
C      1  0.4534600000000  0.4780080000000  0.4696380000000 1.0
C      1  0.4992980000000  0.3961470000000  0.5506340000000 1.0
C      1  0.4652720000000  0.4234870000000  0.5300200000000 1.0
C      1  0.4400980000000  0.5624270000000  0.5758820000000 1.0
C      1  0.4369690000000  0.5937940000000  0.4826920000000 1.0
C      1  0.4704530000000  0.5216690000000  0.4786750000000 1.0
C      1  0.5003640000000  0.5954700000000  0.5604810000000 1.0
C      1  0.4920120000000  0.5775430000000  0.5825270000000 1.0
C      1  0.5296500000000  0.5633840000000  0.4053910000000 1.0
C      1  0.5573180000000  0.4967450000000  0.5110850000000 1.0
C      1  0.4956230000000  0.5891260000000  0.4352390000000 1.0
C      1  0.4596280000000  0.4302340000000  0.4236380000000 1.0
C      1  0.4584460000000  0.5259660000000  0.5486840000000 1.0
C      1  0.4683340000000  0.5034180000000  0.4293130000000 1.0
C      1  0.4942760000000  0.4066490000000  0.4500160000000 1.0
C      1  0.5332530000000  0.4447340000000  0.5825820000000 1.0
C      1  0.4894350000000  0.5125650000000  0.3761550000000 1.0
C      1  0.4957810000000  0.4961480000000  0.4169230000000 1.0
C      1  0.5132380000000  0.3986530000000  0.4979030000000 1.0
C      1  0.4284290000000  0.4402470000000  0.5562290000000 1.0
C      1  0.4777550000000  0.6129410000000  0.4695010000000 1.0
C      1  0.4475090000000  0.4099490000000  0.4652190000000 1.0
C      1  0.4590440000000  0.6113560000000  0.4915480000000 1.0
C      1  0.5975760000000  0.5075120000000  0.4595380000000 1.0
C      1  0.4366860000000  0.5556180000000  0.4535660000000 1.0
C      1  0.5625050000000  0.5147010000000  0.4244520000000 1.0
C      1  0.5453390000000  0.4765050000000  0.3989330000000 1.0
C      1  0.5169280000000  0.6086190000000  0.4985020000000 1.0
C      1  0.6097000000000  0.4893810000000  0.5289420000000 1.0
C      1  0.4770780000000  0.4131360000000  0.5551410000000 1.0
C      1  0.5447020000000  0.3990250000000  0.5648790000000 1.0
C      1  0.5346400000000  0.4842200000000  0.5242340000000 1.0
C      1  0.5943680000000  0.5260770000000  0.5545570000000 1.0
C      1  0.4213210000000  0.4891560000000  0.5402450000000 1.0
C      1  0.5635200000000  0.5917980000000  0.5080300000000 1.0
C      1  0.4445790000000  0.5842950000000  0.4555170000000 1.0
C      1  0.4202600000000  0.5784790000000  0.4978290000000 1.0
C      1  0.4515420000000  0.5523480000000  0.5309650000000 1.0
C      1  0.3994030000000  0.5359140000000  0.5245560000000 1.0
C      1  0.4103260000000  0.4982210000000  0.4846510000000 1.0
C      1  0.5354690000000  0.4275350000000  0.5286420000000 1.0
C      1  0.4519920000000  0.5137090000000  0.5027480000000 1.0
C      1  0.3903690000000  0.4904700000000  0.5015490000000 1.0
C      1  0.5400820000000  0.5207770000000  0.5854890000000 1.0
C      1  0.4204190000000  0.5413390000000  0.5772590000000 1.0
C      1  0.5322580000000  0.5614120000000  0.4828530000000 1.0
C      1  0.4588300000000  0.5496820000000  0.4802580000000 1.0
C      1  0.5196300000000  0.4516210000000  0.4877920000000 1.0
C      1  0.4652970000000  0.5236120000000  0.3862600000000 1.0
C      1  0.4315450000000  0.5657900000000  0.5480160000000 1.0
C      1  0.5183700000000  0.5959930000000  0.4517150000000 1.0
C      1  0.4378540000000  0.4681740000000  0.5994440000000 1.0
C      1  0.5274450000000  0.5972170000000  0.5567040000000 1.0
C      1  0.4411770000000  0.5428390000000  0.5045120000000 1.0
C      1  0.5182130000000  0.3969900000000  0.5701860000000 1.0
C      1  0.5065120000000  0.6107530000000  0.4726400000000 1.0
C      1  0.5438200000000  0.4734760000000  0.5928510000000 1.0
C      1  0.4681160000000  0.5614830000000  0.5815210000000 1.0
C      1  0.4076430000000  0.4483380000000  0.4789870000000 1.0
C      1  0.5419250000000  0.5061150000000  0.4747160000000 1.0
C      1  0.5424080000000  0.5515030000000  0.5886050000000 1.0
C      1  0.5256700000000  0.4908750000000  0.3843290000000 1.0
C      1  0.5135750000000  0.4261280000000  0.4379260000000 1.0
C      1  0.4921360000000  0.3955910000000  0.4773260000000 1.0
C      1  0.4374770000000  0.4888810000000  0.4937490000000 1.0
C      1  0.5764350000000  0.4351140000000  0.5692260000000 1.0
C      1  0.4783100000000  0.5665030000000  0.5236080000000 1.0
C      1  0.5433230000000  0.3993450000000  0.5337590000000 1.0
C      1  0.5287330000000  0.5239740000000  0.5559160000000 1.0
C      1  0.5860240000000  0.5532120000000  0.5590060000000 1.0
C      1  0.4985190000000  0.5241210000000  0.4901140000000 1.0
C      1  0.5146010000000  0.5592180000000  0.5849410000000 1.0
C      1  0.4249150000000  0.4255100000000  0.4797220000000 1.0
C      1  0.3906270000000  0.5074920000000  0.5241230000000 1.0
C      1  0.5283640000000  0.4448660000000  0.5528120000000 1.0
C      1  0.4666240000000  0.4113160000000  0.4428280000000 1.0
C      1  0.4295140000000  0.4705640000000  0.5177600000000 1.0
C      1  0.5889700000000  0.5474010000000  0.4575350000000 1.0
C      1  0.5495000000000  0.4616950000000  0.5386240000000 1.0
C      1  0.5622890000000  0.5644970000000  0.5730610000000 1.0
C      1  0.4005510000000  0.4631120000000  0.5065890000000 1.0
C      1  0.4097650000000  0.5468690000000  0.5489150000000 1.0
C      1  0.5187090000000  0.5209610000000  0.3834820000000 1.0
C      1  0.5028720000000  0.5674750000000  0.4185440000000 1.0
C      1  0.4643610000000  0.3976350000000  0.4848200000000 1.0
C      1  0.5472410000000  0.5345080000000  0.4871750000000 1.0
C      1  0.5422140000000  0.5731160000000  0.4553940000000 1.0
C      1  0.4906180000000  0.5428390000000  0.4183390000000 1.0
C      1  0.5622190000000  0.4430260000000  0.4416590000000 1.0
C      1  0.5599580000000  0.4977180000000  0.5847100000000 1.0
C      1  0.5163830000000  0.5018730000000  0.5394900000000 1.0
C      1  0.5136080000000  0.4292520000000  0.5082090000000 1.0
C      1  0.4999350000000  0.4520550000000  0.5495910000000 1.0
C      1  0.4581250000000  0.4804660000000  0.5630900000000 1.0
C      1  0.5540170000000  0.5259340000000  0.5128410000000 1.0
C      1  0.5103330000000  0.5215420000000  0.4127070000000 1.0
C      1  0.5788010000000  0.4239280000000  0.5090310000000 1.0
C      1  0.5711150000000  0.5898420000000  0.5351290000000 1.0
C      1  0.4508690000000  0.4533900000000  0.5742240000000 1.0
C      1  0.5367010000000  0.4516140000000  0.4058850000000 1.0
C      1  0.5744230000000  0.5706950000000  0.4646810000000 1.0
C      1  0.4956780000000  0.4852570000000  0.3873070000000 1.0
C      1  0.4130270000000  0.5431460000000  0.4667750000000 1.0
C      1  0.5393430000000  0.4334880000000  0.4261030000000 1.0
C      1  0.4063570000000  0.4666950000000  0.4571790000000 1.0
C      1  0.3967440000000  0.4927880000000  0.4614240000000 1.0
C      1  0.5045030000000  0.5522510000000  0.4836710000000 1.0
C      1  0.5316610000000  0.5465700000000  0.3843050000000 1.0
C      1  0.4891690000000  0.5135440000000  0.5903030000000 1.0
C      1  0.5643000000000  0.4867500000000  0.4189550000000 1.0
C      1  0.4123190000000  0.5505990000000  0.4976570000000 1.0
C      1  0.4538360000000  0.4048710000000  0.5100970000000 1.0
C      1  0.5452310000000  0.5376270000000  0.5354960000000 1.0
C      1  0.5600180000000  0.4062150000000  0.4786010000000 1.0
C      1  0.5841750000000  0.5016520000000  0.5679980000000 1.0
C      1  0.5627970000000  0.3988260000000  0.5080640000000 1.0
C      1  0.4014830000000  0.4417080000000  0.5516720000000 1.0
C      1  0.4462600000000  0.5054400000000  0.3801510000000 1.0
C      1  0.5126220000000  0.4768800000000  0.5017730000000 1.0
C      1  0.4394390000000  0.5396130000000  0.4288640000000 1.0
C      1  0.4971690000000  0.4692790000000  0.5997060000000 1.0
C      1  0.4700640000000  0.5963510000000  0.4479980000000 1.0
C      1  0.5739030000000  0.4691280000000  0.4391780000000 1.0
C      1  0.5153930000000  0.3897200000000  0.5271500000000 1.0
C      1  0.4976600000000  0.5217900000000  0.5208780000000 1.0
END
