TITL C-74805-4728-4 60.5717319435585 125000 -1304.73533413727 0 0 185 (C1) n - 1
REM
REM in /rds/project/t2_vol4/rds-t2-cs072/BORA/CARBON/from-Arr/AIRSS/Generating-Clusters/GAP-ML-2020/Only-C1/SD-CG/HFTN-CG/C160-200
REM
REM
REM
REM
REM
REM ./C.cell (f2ad243b7eb7c0cd63fb1bbaf7e03044)
REM AIRSS Version 0.9.1 bugfix July 2018 build 013d7b7c2542+ Fri, 06 Jul 2018 19:26:36 +0100
REM compiler GCC version 9.3.0
REM options -cpp -mtune=generic -march=x86-64 -g -O0
REM seed 985321736 333375125 -2074494287 1690178629 -1413463436 354163185 -1694210036 -1599276246 68452902 -2075111806 431110579 -1737124301 921519660 -1795088598 -465833890 -871988956 1371504410 625706 -1069430845 -335890978 -1112292185 -133300296 -1865127691 142681038 385611745 -853875719 1514245165 -626357782 1424179544 2094005321 -677516220 1360846233 -956775959
REM
CELL 1.54180   50.00000   50.00000   50.00000   90.00000   90.00000   90.00000
LATT -1
SFAC C  
C      1  0.5748300000000  0.4561500000000  0.5440580000000 1.0
C      1  0.5960310000000  0.5510190000000  0.5446280000000 1.0
C      1  0.5545270000000  0.5375810000000  0.4247930000000 1.0
C      1  0.5083220000000  0.4534330000000  0.4624340000000 1.0
C      1  0.4601740000000  0.4466930000000  0.4057630000000 1.0
C      1  0.4782310000000  0.4489600000000  0.4997770000000 1.0
C      1  0.5002410000000  0.4840280000000  0.5293620000000 1.0
C      1  0.4202720000000  0.4629960000000  0.5777360000000 1.0
C      1  0.5886780000000  0.4565700000000  0.4931190000000 1.0
C      1  0.5090890000000  0.4312810000000  0.5994410000000 1.0
C      1  0.5522310000000  0.5131560000000  0.4083230000000 1.0
C      1  0.4816200000000  0.5412930000000  0.4392580000000 1.0
C      1  0.4388770000000  0.4650890000000  0.4115370000000 1.0
C      1  0.4540660000000  0.5543600000000  0.4287080000000 1.0
C      1  0.5429780000000  0.5907370000000  0.4645120000000 1.0
C      1  0.6043910000000  0.5442500000000  0.5169730000000 1.0
C      1  0.4673500000000  0.4690510000000  0.4562540000000 1.0
C      1  0.5104520000000  0.4449670000000  0.3990690000000 1.0
C      1  0.5596280000000  0.5823540000000  0.5569740000000 1.0
C      1  0.5912690000000  0.4984180000000  0.4651350000000 1.0
C      1  0.4687840000000  0.6058100000000  0.4719710000000 1.0
C      1  0.5081660000000  0.5304150000000  0.5414890000000 1.0
C      1  0.4802070000000  0.5819080000000  0.5645250000000 1.0
C      1  0.5443760000000  0.5987160000000  0.5390520000000 1.0
C      1  0.4511430000000  0.4228070000000  0.4495040000000 1.0
C      1  0.4301690000000  0.5558100000000  0.4456690000000 1.0
C      1  0.4570860000000  0.4927620000000  0.5002730000000 1.0
C      1  0.4870920000000  0.5119640000000  0.4367340000000 1.0
C      1  0.5448150000000  0.4743350000000  0.4689420000000 1.0
C      1  0.5107320000000  0.6085900000000  0.4950300000000 1.0
C      1  0.4904350000000  0.4407280000000  0.5773380000000 1.0
C      1  0.5829990000000  0.5756420000000  0.5427810000000 1.0
C      1  0.4631100000000  0.4957290000000  0.4422890000000 1.0
C      1  0.4421760000000  0.4445330000000  0.5838970000000 1.0
C      1  0.3974150000000  0.4957630000000  0.5499920000000 1.0
C      1  0.4919930000000  0.5470780000000  0.3940590000000 1.0
C      1  0.4130750000000  0.5189920000000  0.5601590000000 1.0
C      1  0.5300380000000  0.4656440000000  0.3961940000000 1.0
C      1  0.4294250000000  0.5198810000000  0.4150690000000 1.0
C      1  0.5610990000000  0.5389690000000  0.5796100000000 1.0
C      1  0.4615190000000  0.5191840000000  0.5361670000000 1.0
C      1  0.5816870000000  0.5847870000000  0.5157170000000 1.0
C      1  0.5207440000000  0.5696700000000  0.5815300000000 1.0
C      1  0.4958580000000  0.5426480000000  0.4647200000000 1.0
C      1  0.3953210000000  0.4459820000000  0.4662270000000 1.0
C      1  0.5226670000000  0.4896720000000  0.5094590000000 1.0
C      1  0.4773880000000  0.5556910000000  0.5756110000000 1.0
C      1  0.4764560000000  0.5111050000000  0.5994660000000 1.0
C      1  0.4132400000000  0.5103620000000  0.5109380000000 1.0
C      1  0.4746140000000  0.4746330000000  0.4860330000000 1.0
C      1  0.5336830000000  0.5555360000000  0.4127340000000 1.0
C      1  0.4159750000000  0.5319010000000  0.4387810000000 1.0
C      1  0.5070510000000  0.5893340000000  0.5651320000000 1.0
C      1  0.4910150000000  0.3982500000000  0.4504690000000 1.0
C      1  0.4333500000000  0.4130430000000  0.5214790000000 1.0
C      1  0.4296320000000  0.5700830000000  0.4705380000000 1.0
C      1  0.4324560000000  0.5238950000000  0.5338650000000 1.0
C      1  0.4692970000000  0.4923540000000  0.5261640000000 1.0
C      1  0.4881070000000  0.4833080000000  0.3852490000000 1.0
C      1  0.4608930000000  0.5935840000000  0.4989750000000 1.0
C      1  0.5753380000000  0.4313890000000  0.4972340000000 1.0
C      1  0.4489710000000  0.5524830000000  0.5776010000000 1.0
C      1  0.4994640000000  0.3902480000000  0.4944810000000 1.0
C      1  0.4973510000000  0.5610760000000  0.5145230000000 1.0
C      1  0.5026810000000  0.4936580000000  0.4853370000000 1.0
C      1  0.5061740000000  0.5336900000000  0.5117810000000 1.0
C      1  0.5895140000000  0.5057690000000  0.5633240000000 1.0
C      1  0.4398750000000  0.5672750000000  0.5503730000000 1.0
C      1  0.3893310000000  0.5135370000000  0.5294240000000 1.0
C      1  0.5063280000000  0.4888970000000  0.5587220000000 1.0
C      1  0.5682620000000  0.4917080000000  0.5766760000000 1.0
C      1  0.5274830000000  0.3999120000000  0.5376640000000 1.0
C      1  0.5228010000000  0.4563650000000  0.6047740000000 1.0
C      1  0.4989100000000  0.6100080000000  0.5211920000000 1.0
C      1  0.5850590000000  0.5334960000000  0.4332980000000 1.0
C      1  0.4844870000000  0.4562740000000  0.3936550000000 1.0
C      1  0.4752130000000  0.4235480000000  0.5550310000000 1.0
C      1  0.4700950000000  0.6036420000000  0.5238080000000 1.0
C      1  0.5107120000000  0.4814390000000  0.6097840000000 1.0
C      1  0.6121090000000  0.4712040000000  0.5001320000000 1.0
C      1  0.4911800000000  0.5615260000000  0.4189920000000 1.0
C      1  0.4230260000000  0.4579210000000  0.4336980000000 1.0
C      1  0.5898960000000  0.5670440000000  0.4695980000000 1.0
C      1  0.5622110000000  0.5709930000000  0.4605260000000 1.0
C      1  0.4275100000000  0.4847090000000  0.5029710000000 1.0
C      1  0.4263940000000  0.4810400000000  0.4732940000000 1.0
C      1  0.4980550000000  0.5684200000000  0.4777440000000 1.0
C      1  0.4973150000000  0.5978390000000  0.4697570000000 1.0
C      1  0.4675870000000  0.5021940000000  0.3907730000000 1.0
C      1  0.5120840000000  0.4582980000000  0.5629360000000 1.0
C      1  0.6043630000000  0.4545380000000  0.5453740000000 1.0
C      1  0.4339160000000  0.4866610000000  0.5844840000000 1.0
C      1  0.4898640000000  0.4104340000000  0.4251000000000 1.0
C      1  0.4582150000000  0.3989960000000  0.5155630000000 1.0
C      1  0.5019010000000  0.5264390000000  0.6048130000000 1.0
C      1  0.5233920000000  0.5076270000000  0.6036580000000 1.0
C      1  0.4641370000000  0.4241670000000  0.4231350000000 1.0
C      1  0.5979280000000  0.4983030000000  0.5348790000000 1.0
C      1  0.4469870000000  0.4942550000000  0.4124940000000 1.0
C      1  0.5276550000000  0.5093550000000  0.5538730000000 1.0
C      1  0.3975480000000  0.4652270000000  0.4457120000000 1.0
C      1  0.5235240000000  0.4432250000000  0.5104660000000 1.0
C      1  0.4480160000000  0.4233410000000  0.5665070000000 1.0
C      1  0.5174080000000  0.4823360000000  0.4614090000000 1.0
C      1  0.5170780000000  0.6037310000000  0.5426190000000 1.0
C      1  0.5486010000000  0.5646610000000  0.5766880000000 1.0
C      1  0.4085090000000  0.4700660000000  0.5512860000000 1.0
C      1  0.5539000000000  0.4659330000000  0.4122060000000 1.0
C      1  0.4705480000000  0.3934080000000  0.4905560000000 1.0
C      1  0.5140130000000  0.4215620000000  0.4147150000000 1.0
C      1  0.5588940000000  0.4260890000000  0.4734720000000 1.0
C      1  0.5190070000000  0.5909240000000  0.4492460000000 1.0
C      1  0.4465120000000  0.5064750000000  0.4634550000000 1.0
C      1  0.5391850000000  0.4672490000000  0.4992730000000 1.0
C      1  0.5458220000000  0.5125590000000  0.5822700000000 1.0
C      1  0.4920930000000  0.5219740000000  0.4859930000000 1.0
C      1  0.4826820000000  0.4818540000000  0.6068220000000 1.0
C      1  0.5670640000000  0.4915260000000  0.4184470000000 1.0
C      1  0.5052530000000  0.4545050000000  0.5337570000000 1.0
C      1  0.5405790000000  0.4208160000000  0.5231190000000 1.0
C      1  0.4761800000000  0.4466360000000  0.5310980000000 1.0
C      1  0.5371520000000  0.4204410000000  0.4316510000000 1.0
C      1  0.5303230000000  0.5134650000000  0.3902200000000 1.0
C      1  0.6093670000000  0.4978550000000  0.4888930000000 1.0
C      1  0.4237350000000  0.5523450000000  0.4959260000000 1.0
C      1  0.5449140000000  0.5038700000000  0.5291530000000 1.0
C      1  0.4689350000000  0.5304940000000  0.3899170000000 1.0
C      1  0.4597320000000  0.5880670000000  0.5463830000000 1.0
C      1  0.5194780000000  0.5400390000000  0.3928310000000 1.0
C      1  0.5160310000000  0.5745150000000  0.4263430000000 1.0
C      1  0.4262840000000  0.4627260000000  0.5255430000000 1.0
C      1  0.5857470000000  0.5338170000000  0.5658300000000 1.0
C      1  0.6138070000000  0.4733310000000  0.5286320000000 1.0
C      1  0.4019860000000  0.4359530000000  0.4880460000000 1.0
C      1  0.4484510000000  0.5283890000000  0.5933060000000 1.0
C      1  0.5680380000000  0.4766660000000  0.5009790000000 1.0
C      1  0.4406310000000  0.4542850000000  0.4575190000000 1.0
C      1  0.4566380000000  0.4686970000000  0.5394740000000 1.0
C      1  0.4596440000000  0.4799920000000  0.5688950000000 1.0
C      1  0.5566850000000  0.5985650000000  0.5134970000000 1.0
C      1  0.5290600000000  0.4010900000000  0.5651900000000 1.0
C      1  0.5368560000000  0.5961790000000  0.4925980000000 1.0
C      1  0.3971320000000  0.5389160000000  0.5433060000000 1.0
C      1  0.4463970000000  0.5401400000000  0.4050250000000 1.0
C      1  0.5038210000000  0.3924410000000  0.5229690000000 1.0
C      1  0.4213170000000  0.5529010000000  0.5304770000000 1.0
C      1  0.5011070000000  0.5519700000000  0.5930980000000 1.0
C      1  0.5665500000000  0.4311140000000  0.5248670000000 1.0
C      1  0.4809280000000  0.5023780000000  0.5703980000000 1.0
C      1  0.5168010000000  0.4887730000000  0.3857420000000 1.0
C      1  0.4790520000000  0.4005250000000  0.5353960000000 1.0
C      1  0.4817920000000  0.5287630000000  0.5541320000000 1.0
C      1  0.5539880000000  0.4436190000000  0.4299260000000 1.0
C      1  0.5701690000000  0.4852640000000  0.5279930000000 1.0
C      1  0.4887880000000  0.4549570000000  0.4441500000000 1.0
C      1  0.4089440000000  0.5282890000000  0.4879580000000 1.0
C      1  0.4264610000000  0.5135100000000  0.5851140000000 1.0
C      1  0.5379000000000  0.4512040000000  0.5790570000000 1.0
C      1  0.4026050000000  0.5186080000000  0.4609720000000 1.0
C      1  0.5982530000000  0.5526420000000  0.4473360000000 1.0
C      1  0.5305940000000  0.4206760000000  0.5828480000000 1.0
C      1  0.5496610000000  0.5253260000000  0.4775910000000 1.0
C      1  0.5213810000000  0.5673120000000  0.4968850000000 1.0
C      1  0.4188320000000  0.4359230000000  0.5104430000000 1.0
C      1  0.5637910000000  0.4972070000000  0.4773630000000 1.0
C      1  0.5107570000000  0.4992480000000  0.4397690000000 1.0
C      1  0.5871140000000  0.5044760000000  0.4367920000000 1.0
C      1  0.4691480000000  0.4590570000000  0.5884340000000 1.0
C      1  0.5384680000000  0.4092660000000  0.4595810000000 1.0
C      1  0.4654960000000  0.4023210000000  0.4637290000000 1.0
C      1  0.5360630000000  0.5402510000000  0.4996410000000 1.0
C      1  0.5135890000000  0.3958790000000  0.4686060000000 1.0
C      1  0.6074780000000  0.5160350000000  0.5125000000000 1.0
C      1  0.5519610000000  0.5428260000000  0.4545880000000 1.0
C      1  0.4615210000000  0.5190490000000  0.4861210000000 1.0
C      1  0.4445670000000  0.5939810000000  0.4739380000000 1.0
C      1  0.5589410000000  0.4496910000000  0.4570590000000 1.0
C      1  0.5632440000000  0.4638150000000  0.5707200000000 1.0
C      1  0.4731950000000  0.5659490000000  0.4988550000000 1.0
C      1  0.5960590000000  0.5664660000000  0.4987400000000 1.0
C      1  0.4529730000000  0.5457590000000  0.4948490000000 1.0
C      1  0.5494610000000  0.5308700000000  0.5219530000000 1.0
C      1  0.4025990000000  0.4895400000000  0.4599670000000 1.0
C      1  0.4298800000000  0.4167190000000  0.5482080000000 1.0
C      1  0.5029910000000  0.4416030000000  0.4888010000000 1.0
END
