TITL C-74805-4728-1 -0.0106697529879684 125000 -1314.75799075942 0 0 182 (C1) n - 1
REM
REM in /rds/project/t2_vol4/rds-t2-cs072/BORA/CARBON/from-Arr/AIRSS/Generating-Clusters/GAP-ML-2020/Only-C1/SD-CG/HFTN-CG/C160-200
REM
REM
REM
REM
REM
REM ./C.cell (f2ad243b7eb7c0cd63fb1bbaf7e03044)
REM AIRSS Version 0.9.1 bugfix July 2018 build 013d7b7c2542+ Fri, 06 Jul 2018 19:26:36 +0100
REM compiler GCC version 9.3.0
REM options -cpp -mtune=generic -march=x86-64 -g -O0
REM seed -1748582897 -176972483 1182577498 -1195382804 1673727912 -925440280 1307896091 -1894171546 -801501255 105467410 653926241 -864228449 -2109558942 1861312997 1107637149 -1892276769 -1713690449 328442236 -1192514634 1692779801 811769865 -1984282088 -1871531836 1515415723 1509742231 2073733157 1673482305 2133241943 -1996490930 665507131 1891344108 -801064541 -115209016
REM
CELL 1.54180   50.00000   50.00000   50.00000   90.00000   90.00000   90.00000
LATT -1
SFAC C  
C      1  0.4605350000000  0.5873730000000  0.4440460000000 1.0
C      1  0.4168710000000  0.4582800000000  0.5752930000000 1.0
C      1  0.4878110000000  0.4563580000000  0.4032680000000 1.0
C      1  0.6074180000000  0.4785490000000  0.5315740000000 1.0
C      1  0.5644170000000  0.4440490000000  0.4869690000000 1.0
C      1  0.5044720000000  0.4372430000000  0.4153100000000 1.0
C      1  0.4583710000000  0.6053480000000  0.4898330000000 1.0
C      1  0.5354720000000  0.4540450000000  0.4857530000000 1.0
C      1  0.4101220000000  0.4492940000000  0.4697770000000 1.0
C      1  0.4222480000000  0.4346300000000  0.5616540000000 1.0
C      1  0.5878040000000  0.5518700000000  0.4523270000000 1.0
C      1  0.4675670000000  0.4917820000000  0.4272080000000 1.0
C      1  0.4433870000000  0.5309320000000  0.5338980000000 1.0
C      1  0.5416530000000  0.4335990000000  0.5688890000000 1.0
C      1  0.5902030000000  0.5496530000000  0.5292760000000 1.0
C      1  0.4932960000000  0.6105260000000  0.5338440000000 1.0
C      1  0.4264700000000  0.4261660000000  0.4718360000000 1.0
C      1  0.5862960000000  0.5086000000000  0.5603130000000 1.0
C      1  0.5280520000000  0.6104700000000  0.5016210000000 1.0
C      1  0.4944910000000  0.4410440000000  0.5800180000000 1.0
C      1  0.5991410000000  0.5235460000000  0.5384970000000 1.0
C      1  0.5534710000000  0.4567170000000  0.5828100000000 1.0
C      1  0.5505990000000  0.5271530000000  0.4092150000000 1.0
C      1  0.5046540000000  0.4934100000000  0.4800190000000 1.0
C      1  0.3991570000000  0.5429750000000  0.4947970000000 1.0
C      1  0.5592630000000  0.5825050000000  0.5243080000000 1.0
C      1  0.6029390000000  0.4608260000000  0.5097270000000 1.0
C      1  0.4958410000000  0.4440180000000  0.4632390000000 1.0
C      1  0.4418400000000  0.4492740000000  0.4329910000000 1.0
C      1  0.4977730000000  0.5761430000000  0.4197050000000 1.0
C      1  0.5103150000000  0.5124610000000  0.5613890000000 1.0
C      1  0.4932200000000  0.5513540000000  0.5234120000000 1.0
C      1  0.4981610000000  0.5179530000000  0.4581030000000 1.0
C      1  0.4332260000000  0.4141400000000  0.5226930000000 1.0
C      1  0.4478820000000  0.4803160000000  0.5100400000000 1.0
C      1  0.5070000000000  0.5034990000000  0.5089570000000 1.0
C      1  0.5770160000000  0.4568320000000  0.5656030000000 1.0
C      1  0.4109510000000  0.5367040000000  0.4457630000000 1.0
C      1  0.5115080000000  0.5441390000000  0.5951610000000 1.0
C      1  0.5544490000000  0.5828340000000  0.4708720000000 1.0
C      1  0.4812910000000  0.5557760000000  0.4063530000000 1.0
C      1  0.5166770000000  0.5506350000000  0.4864270000000 1.0
C      1  0.4462460000000  0.5038350000000  0.4962340000000 1.0
C      1  0.4867370000000  0.4705740000000  0.5687070000000 1.0
C      1  0.5920750000000  0.4796590000000  0.5560570000000 1.0
C      1  0.4986900000000  0.4937850000000  0.6056400000000 1.0
C      1  0.5828160000000  0.5046560000000  0.4358410000000 1.0
C      1  0.4443640000000  0.4247870000000  0.4497290000000 1.0
C      1  0.5901210000000  0.4359490000000  0.4580650000000 1.0
C      1  0.5019450000000  0.5010470000000  0.4345980000000 1.0
C      1  0.5325000000000  0.4376380000000  0.4166750000000 1.0
C      1  0.4562960000000  0.4597620000000  0.5981850000000 1.0
C      1  0.4889250000000  0.5920560000000  0.4412780000000 1.0
C      1  0.5724110000000  0.4347100000000  0.4362040000000 1.0
C      1  0.6123440000000  0.5042940000000  0.5209100000000 1.0
C      1  0.4621280000000  0.4016880000000  0.4864710000000 1.0
C      1  0.4842250000000  0.4576920000000  0.5240000000000 1.0
C      1  0.5667300000000  0.4311640000000  0.5541300000000 1.0
C      1  0.5979040000000  0.5248410000000  0.4476080000000 1.0
C      1  0.5071490000000  0.4787510000000  0.5252260000000 1.0
C      1  0.4288530000000  0.5766060000000  0.5183000000000 1.0
C      1  0.3977420000000  0.4795350000000  0.5356430000000 1.0
C      1  0.5578520000000  0.4049820000000  0.4841710000000 1.0
C      1  0.4220720000000  0.5139090000000  0.4315540000000 1.0
C      1  0.4802190000000  0.3994820000000  0.5336130000000 1.0
C      1  0.4005620000000  0.4544310000000  0.5213740000000 1.0
C      1  0.3887510000000  0.4871570000000  0.4909130000000 1.0
C      1  0.5079490000000  0.4173870000000  0.5042170000000 1.0
C      1  0.5381270000000  0.5378610000000  0.4996580000000 1.0
C      1  0.5549330000000  0.4701610000000  0.5240940000000 1.0
C      1  0.6019230000000  0.5515540000000  0.4778250000000 1.0
C      1  0.6092460000000  0.4744110000000  0.4846750000000 1.0
C      1  0.4927910000000  0.4278200000000  0.4389890000000 1.0
C      1  0.5305920000000  0.5599300000000  0.5809870000000 1.0
C      1  0.5680880000000  0.5613590000000  0.5427070000000 1.0
C      1  0.4215260000000  0.5063970000000  0.5762160000000 1.0
C      1  0.4561770000000  0.5108690000000  0.5523230000000 1.0
C      1  0.5172460000000  0.6009010000000  0.5461030000000 1.0
C      1  0.4589650000000  0.5419770000000  0.5842340000000 1.0
C      1  0.5549580000000  0.4960010000000  0.5133210000000 1.0
C      1  0.5342210000000  0.5174390000000  0.5197870000000 1.0
C      1  0.4680860000000  0.4624190000000  0.5000000000000 1.0
C      1  0.4058250000000  0.5264270000000  0.5680180000000 1.0
C      1  0.3942440000000  0.5282060000000  0.5187830000000 1.0
C      1  0.5380720000000  0.6006410000000  0.5262470000000 1.0
C      1  0.5466610000000  0.4234380000000  0.4372970000000 1.0
C      1  0.4185730000000  0.4636170000000  0.4459940000000 1.0
C      1  0.4368370000000  0.4114380000000  0.4945910000000 1.0
C      1  0.5315550000000  0.6012390000000  0.4743290000000 1.0
C      1  0.5552270000000  0.4975120000000  0.4846190000000 1.0
C      1  0.5480430000000  0.4598120000000  0.4060900000000 1.0
C      1  0.4146530000000  0.4329220000000  0.5343850000000 1.0
C      1  0.5077080000000  0.4013540000000  0.5445660000000 1.0
C      1  0.5079340000000  0.4849760000000  0.5538180000000 1.0
C      1  0.5113130000000  0.5205330000000  0.3834860000000 1.0
C      1  0.4857180000000  0.6128090000000  0.4846290000000 1.0
C      1  0.5139370000000  0.5780260000000  0.5641740000000 1.0
C      1  0.4650910000000  0.4054830000000  0.4584350000000 1.0
C      1  0.6124530000000  0.5244270000000  0.4729520000000 1.0
C      1  0.4054090000000  0.5388670000000  0.5434880000000 1.0
C      1  0.4456650000000  0.5943260000000  0.4675430000000 1.0
C      1  0.4907840000000  0.4001100000000  0.4468060000000 1.0
C      1  0.5159280000000  0.5150690000000  0.5925320000000 1.0
C      1  0.4824100000000  0.4688500000000  0.4737770000000 1.0
C      1  0.5290890000000  0.4599130000000  0.5163640000000 1.0
C      1  0.4680050000000  0.5457580000000  0.4867950000000 1.0
C      1  0.5333100000000  0.4805160000000  0.3928740000000 1.0
C      1  0.4098710000000  0.4906700000000  0.4445240000000 1.0
C      1  0.5051360000000  0.5460150000000  0.3933870000000 1.0
C      1  0.4579500000000  0.5268710000000  0.5088900000000 1.0
C      1  0.4536790000000  0.5059460000000  0.4692760000000 1.0
C      1  0.4917460000000  0.5590240000000  0.4967860000000 1.0
C      1  0.4645200000000  0.5836480000000  0.5620280000000 1.0
C      1  0.5287820000000  0.5309470000000  0.5463050000000 1.0
C      1  0.5172180000000  0.4316110000000  0.4786180000000 1.0
C      1  0.5167290000000  0.4720450000000  0.6090610000000 1.0
C      1  0.5140270000000  0.5560820000000  0.5405060000000 1.0
C      1  0.5552320000000  0.5255710000000  0.4803290000000 1.0
C      1  0.4846790000000  0.5159270000000  0.5481990000000 1.0
C      1  0.4627310000000  0.4830770000000  0.4562810000000 1.0
C      1  0.5465190000000  0.5341350000000  0.4544060000000 1.0
C      1  0.5918900000000  0.5621340000000  0.5018210000000 1.0
C      1  0.4628510000000  0.4644590000000  0.4162770000000 1.0
C      1  0.5450620000000  0.5057490000000  0.5922050000000 1.0
C      1  0.4926390000000  0.5001010000000  0.3857130000000 1.0
C      1  0.5526620000000  0.4047170000000  0.5130550000000 1.0
C      1  0.4668300000000  0.6002530000000  0.5388170000000 1.0
C      1  0.5725930000000  0.4588420000000  0.4214420000000 1.0
C      1  0.5291000000000  0.4894220000000  0.4410730000000 1.0
C      1  0.5539820000000  0.5121340000000  0.4342050000000 1.0
C      1  0.4875930000000  0.5776130000000  0.5768150000000 1.0
C      1  0.5079440000000  0.4464500000000  0.6051210000000 1.0
C      1  0.4293960000000  0.4607260000000  0.5999390000000 1.0
C      1  0.5760130000000  0.4487250000000  0.5126740000000 1.0
C      1  0.5800250000000  0.4205300000000  0.4788860000000 1.0
C      1  0.5037310000000  0.4755910000000  0.3891340000000 1.0
C      1  0.4230130000000  0.5775360000000  0.4700020000000 1.0
C      1  0.4176010000000  0.4817920000000  0.5576540000000 1.0
C      1  0.5140100000000  0.3908630000000  0.4563490000000 1.0
C      1  0.4471350000000  0.4828560000000  0.5410780000000 1.0
C      1  0.5323880000000  0.4816680000000  0.4709670000000 1.0
C      1  0.6151020000000  0.5023610000000  0.4913750000000 1.0
C      1  0.3965500000000  0.4599740000000  0.4928050000000 1.0
C      1  0.5173680000000  0.5391470000000  0.4606170000000 1.0
C      1  0.5367630000000  0.5099340000000  0.3909090000000 1.0
C      1  0.4564760000000  0.5447020000000  0.4148560000000 1.0
C      1  0.4493000000000  0.5966980000000  0.5161140000000 1.0
C      1  0.4652490000000  0.4349260000000  0.5847120000000 1.0
C      1  0.4844320000000  0.5536730000000  0.5913560000000 1.0
C      1  0.5698340000000  0.5793950000000  0.4971640000000 1.0
C      1  0.4469360000000  0.5614840000000  0.5655340000000 1.0
C      1  0.4722890000000  0.4858310000000  0.5922560000000 1.0
C      1  0.3941440000000  0.5009300000000  0.4671650000000 1.0
C      1  0.5258450000000  0.4004860000000  0.5212710000000 1.0
C      1  0.5479960000000  0.5562830000000  0.4167840000000 1.0
C      1  0.5034510000000  0.6037770000000  0.4632670000000 1.0
C      1  0.4539090000000  0.4071850000000  0.5424160000000 1.0
C      1  0.4518530000000  0.5113060000000  0.5820290000000 1.0
C      1  0.3975030000000  0.5289650000000  0.4694980000000 1.0
C      1  0.5518850000000  0.5446850000000  0.5634880000000 1.0
C      1  0.4458650000000  0.5662160000000  0.4307840000000 1.0
C      1  0.5010740000000  0.6173250000000  0.5073620000000 1.0
C      1  0.4712570000000  0.5282370000000  0.4649450000000 1.0
C      1  0.4482520000000  0.5163270000000  0.4193020000000 1.0
C      1  0.5429230000000  0.4779260000000  0.5983840000000 1.0
C      1  0.4296810000000  0.5565430000000  0.5411430000000 1.0
C      1  0.3899000000000  0.5000150000000  0.5168080000000 1.0
C      1  0.5358390000000  0.4091490000000  0.4621940000000 1.0
C      1  0.4142950000000  0.5677090000000  0.4952250000000 1.0
C      1  0.4831160000000  0.4016970000000  0.5054130000000 1.0
C      1  0.5134950000000  0.4278020000000  0.5580750000000 1.0
C      1  0.4863140000000  0.5222300000000  0.5208490000000 1.0
C      1  0.5642810000000  0.5199470000000  0.5756850000000 1.0
C      1  0.4471240000000  0.4212940000000  0.5669290000000 1.0
C      1  0.5222350000000  0.5641450000000  0.4087480000000 1.0
C      1  0.6009450000000  0.4628980000000  0.4593850000000 1.0
C      1  0.4677020000000  0.4637030000000  0.5477170000000 1.0
C      1  0.5599550000000  0.5612380000000  0.4473400000000 1.0
C      1  0.5896390000000  0.4769810000000  0.4362060000000 1.0
C      1  0.4227190000000  0.5617170000000  0.4461670000000 1.0
C      1  0.5697270000000  0.4236030000000  0.5274600000000 1.0
C      1  0.5092380000000  0.4390590000000  0.5267950000000 1.0
END
