TITL C-74805-4728-20 427.83767638286 125000 -1231.61712732709 0 0 174 (C1) n - 1
REM
REM in /rds/project/t2_vol4/rds-t2-cs072/BORA/CARBON/from-Arr/AIRSS/Generating-Clusters/GAP-ML-2020/Only-C1/SD-CG/HFTN-CG/C160-200
REM
REM
REM
REM
REM
REM ./C.cell (f2ad243b7eb7c0cd63fb1bbaf7e03044)
REM AIRSS Version 0.9.1 bugfix July 2018 build 013d7b7c2542+ Fri, 06 Jul 2018 19:26:36 +0100
REM compiler GCC version 9.3.0
REM options -cpp -mtune=generic -march=x86-64 -g -O0
REM seed 1064854137 -1410840653 -2131653737 -1882140856 -766503272 707618419 -1874693192 -352201733 -549930093 -1115614657 -1813904525 -1203757986 -371240402 -1747037060 -1125515738 -1127324897 1630260408 -1247382271 55895577 1443116997 1934292013 961538647 -2093374919 1048017688 -1907990801 -1236272389 -924618305 -1670942841 1715460632 1379663903 -596764273 1051508560 -439765746
REM
CELL 1.54180   50.00000   50.00000   50.00000   90.00000   90.00000   90.00000
LATT -1
SFAC C  
C      1  0.4562530000000  0.5242420000000  0.5939490000000 1.0
C      1  0.6065820000000  0.4747780000000  0.5162890000000 1.0
C      1  0.4273850000000  0.4854490000000  0.5100580000000 1.0
C      1  0.4435820000000  0.5676560000000  0.5615950000000 1.0
C      1  0.4488220000000  0.4014300000000  0.5167510000000 1.0
C      1  0.4904740000000  0.5863230000000  0.5695930000000 1.0
C      1  0.4203150000000  0.4932750000000  0.5376470000000 1.0
C      1  0.4348580000000  0.4148800000000  0.4944210000000 1.0
C      1  0.4739080000000  0.4964450000000  0.3905180000000 1.0
C      1  0.5459980000000  0.4358280000000  0.5570350000000 1.0
C      1  0.4250090000000  0.5448270000000  0.5605400000000 1.0
C      1  0.4641370000000  0.4602960000000  0.5787630000000 1.0
C      1  0.5030660000000  0.4915750000000  0.4908690000000 1.0
C      1  0.5240770000000  0.4177670000000  0.5556010000000 1.0
C      1  0.5268540000000  0.4457840000000  0.4953710000000 1.0
C      1  0.4228020000000  0.5566390000000  0.4659820000000 1.0
C      1  0.4327660000000  0.4766060000000  0.4176500000000 1.0
C      1  0.4579880000000  0.5019520000000  0.6096200000000 1.0
C      1  0.5978620000000  0.5460120000000  0.5269120000000 1.0
C      1  0.5249380000000  0.4932640000000  0.4002440000000 1.0
C      1  0.5514370000000  0.5027350000000  0.4080760000000 1.0
C      1  0.4692240000000  0.5671050000000  0.5757440000000 1.0
C      1  0.5589830000000  0.4769100000000  0.4183760000000 1.0
C      1  0.5302860000000  0.5898460000000  0.4526240000000 1.0
C      1  0.5141310000000  0.4723800000000  0.5842800000000 1.0
C      1  0.5517420000000  0.4592060000000  0.4999300000000 1.0
C      1  0.4233140000000  0.5031130000000  0.4229560000000 1.0
C      1  0.5087750000000  0.5076220000000  0.4650420000000 1.0
C      1  0.5763510000000  0.5673930000000  0.5287450000000 1.0
C      1  0.5408660000000  0.4651860000000  0.5807560000000 1.0
C      1  0.6050080000000  0.4997420000000  0.5040280000000 1.0
C      1  0.5315980000000  0.5856690000000  0.5473490000000 1.0
C      1  0.4990460000000  0.4255050000000  0.5677640000000 1.0
C      1  0.3956660000000  0.5330940000000  0.4921260000000 1.0
C      1  0.5554940000000  0.4087290000000  0.5220210000000 1.0
C      1  0.5341350000000  0.5617110000000  0.5865770000000 1.0
C      1  0.4521690000000  0.4768440000000  0.4561320000000 1.0
C      1  0.4683580000000  0.4292050000000  0.4282530000000 1.0
C      1  0.5006140000000  0.5069860000000  0.3959380000000 1.0
C      1  0.5673840000000  0.4139190000000  0.4962400000000 1.0
C      1  0.5240420000000  0.4674330000000  0.4445060000000 1.0
C      1  0.4659150000000  0.4790930000000  0.5511000000000 1.0
C      1  0.5722050000000  0.4742430000000  0.4461250000000 1.0
C      1  0.4934400000000  0.4514840000000  0.5810770000000 1.0
C      1  0.5649080000000  0.5102570000000  0.5034130000000 1.0
C      1  0.5276800000000  0.4029720000000  0.5305850000000 1.0
C      1  0.4461370000000  0.5046690000000  0.5478890000000 1.0
C      1  0.5331920000000  0.4152620000000  0.4393140000000 1.0
C      1  0.4824940000000  0.5980200000000  0.4609310000000 1.0
C      1  0.4152750000000  0.5090440000000  0.4515090000000 1.0
C      1  0.4722310000000  0.4856940000000  0.4349070000000 1.0
C      1  0.5225930000000  0.4889410000000  0.5122610000000 1.0
C      1  0.4468310000000  0.5545850000000  0.4217740000000 1.0
C      1  0.4835130000000  0.5567610000000  0.5045750000000 1.0
C      1  0.4473160000000  0.5071950000000  0.4606450000000 1.0
C      1  0.5118340000000  0.5924780000000  0.5273700000000 1.0
C      1  0.5909980000000  0.4404150000000  0.5349320000000 1.0
C      1  0.5375930000000  0.3839500000000  0.4786380000000 1.0
C      1  0.5877900000000  0.5145660000000  0.5547290000000 1.0
C      1  0.4017670000000  0.4873130000000  0.4641850000000 1.0
C      1  0.4990430000000  0.5738030000000  0.4214470000000 1.0
C      1  0.4627430000000  0.4622460000000  0.5267060000000 1.0
C      1  0.5806980000000  0.4853180000000  0.5588950000000 1.0
C      1  0.4481950000000  0.4210140000000  0.4702150000000 1.0
C      1  0.4749320000000  0.5576160000000  0.4205640000000 1.0
C      1  0.5379380000000  0.5181370000000  0.6080420000000 1.0
C      1  0.4306250000000  0.4579750000000  0.4415730000000 1.0
C      1  0.4650590000000  0.4368610000000  0.4865440000000 1.0
C      1  0.4317910000000  0.5630690000000  0.4943780000000 1.0
C      1  0.5131190000000  0.3949700000000  0.4843490000000 1.0
C      1  0.4644850000000  0.6040260000000  0.5030780000000 1.0
C      1  0.5582900000000  0.4017380000000  0.4733790000000 1.0
C      1  0.6043240000000  0.5088550000000  0.4758720000000 1.0
C      1  0.5291830000000  0.4667630000000  0.4131630000000 1.0
C      1  0.5814690000000  0.5754810000000  0.5019670000000 1.0
C      1  0.5758210000000  0.4429010000000  0.4890290000000 1.0
C      1  0.4428940000000  0.5866310000000  0.5420580000000 1.0
C      1  0.4892040000000  0.6059860000000  0.4877620000000 1.0
C      1  0.5458110000000  0.4838580000000  0.4558650000000 1.0
C      1  0.5397050000000  0.5111960000000  0.5519440000000 1.0
C      1  0.4061150000000  0.5340490000000  0.4653590000000 1.0
C      1  0.5079520000000  0.4449450000000  0.4064950000000 1.0
C      1  0.6037730000000  0.5380830000000  0.4757200000000 1.0
C      1  0.5483440000000  0.5254200000000  0.4860760000000 1.0
C      1  0.5146990000000  0.4461970000000  0.4687590000000 1.0
C      1  0.4425960000000  0.5238840000000  0.4136360000000 1.0
C      1  0.4625830000000  0.6023590000000  0.5315000000000 1.0
C      1  0.4482250000000  0.4798100000000  0.5964200000000 1.0
C      1  0.5012370000000  0.5309100000000  0.4114440000000 1.0
C      1  0.5377190000000  0.5957920000000  0.4796180000000 1.0
C      1  0.4514150000000  0.4144410000000  0.5618150000000 1.0
C      1  0.5983810000000  0.4484250000000  0.5077550000000 1.0
C      1  0.4545610000000  0.5156260000000  0.3893710000000 1.0
C      1  0.5542380000000  0.4857720000000  0.5422660000000 1.0
C      1  0.4023740000000  0.4534930000000  0.4886410000000 1.0
C      1  0.5372220000000  0.4632870000000  0.5512640000000 1.0
C      1  0.5581390000000  0.4215290000000  0.4511370000000 1.0
C      1  0.4023860000000  0.4843780000000  0.4935550000000 1.0
C      1  0.4652370000000  0.5217540000000  0.4816850000000 1.0
C      1  0.5723310000000  0.5709650000000  0.4564530000000 1.0
C      1  0.4637040000000  0.4743100000000  0.4081970000000 1.0
C      1  0.5043070000000  0.5479490000000  0.4870700000000 1.0
C      1  0.4157230000000  0.4298740000000  0.5350170000000 1.0
C      1  0.5675200000000  0.4259090000000  0.5410280000000 1.0
C      1  0.4147770000000  0.4749790000000  0.5610380000000 1.0
C      1  0.4879360000000  0.6001300000000  0.5442230000000 1.0
C      1  0.4563920000000  0.4802990000000  0.5046410000000 1.0
C      1  0.4568520000000  0.5420480000000  0.5039680000000 1.0
C      1  0.4197540000000  0.4475830000000  0.5582920000000 1.0
C      1  0.5123870000000  0.4711120000000  0.5331070000000 1.0
C      1  0.5981160000000  0.4673260000000  0.5435970000000 1.0
C      1  0.4765090000000  0.5419300000000  0.5856690000000 1.0
C      1  0.5892950000000  0.5477400000000  0.4535160000000 1.0
C      1  0.5183010000000  0.5810210000000  0.5719900000000 1.0
C      1  0.5514710000000  0.4860010000000  0.5121270000000 1.0
C      1  0.5729650000000  0.4456120000000  0.4587510000000 1.0
C      1  0.5512830000000  0.5637550000000  0.5434980000000 1.0
C      1  0.5137110000000  0.4205140000000  0.4191350000000 1.0
C      1  0.4941840000000  0.5637810000000  0.5290010000000 1.0
C      1  0.4088610000000  0.5411450000000  0.5370570000000 1.0
C      1  0.5611750000000  0.5279290000000  0.4184620000000 1.0
C      1  0.5115320000000  0.5017710000000  0.5682820000000 1.0
C      1  0.5158230000000  0.6021730000000  0.4988710000000 1.0
C      1  0.4910840000000  0.4139190000000  0.4364430000000 1.0
C      1  0.4774580000000  0.5030660000000  0.5025880000000 1.0
C      1  0.5652700000000  0.5849360000000  0.4809860000000 1.0
C      1  0.4354810000000  0.5188190000000  0.5729280000000 1.0
C      1  0.4838550000000  0.5337660000000  0.4353210000000 1.0
C      1  0.5041620000000  0.5396100000000  0.5417890000000 1.0
C      1  0.5904600000000  0.4997860000000  0.4514120000000 1.0
C      1  0.4936930000000  0.4677370000000  0.4741910000000 1.0
C      1  0.4553390000000  0.5876100000000  0.4610660000000 1.0
C      1  0.5822600000000  0.5246980000000  0.4375710000000 1.0
C      1  0.4005790000000  0.5143990000000  0.5323010000000 1.0
C      1  0.4863180000000  0.5161760000000  0.5305100000000 1.0
C      1  0.5637980000000  0.4820030000000  0.5844490000000 1.0
C      1  0.4787870000000  0.4071580000000  0.5244140000000 1.0
C      1  0.5037720000000  0.5913610000000  0.4429840000000 1.0
C      1  0.5226590000000  0.5382710000000  0.5972560000000 1.0
C      1  0.4777490000000  0.4385880000000  0.5144820000000 1.0
C      1  0.4595550000000  0.5255940000000  0.5307640000000 1.0
C      1  0.5624890000000  0.5248140000000  0.5688630000000 1.0
C      1  0.4930690000000  0.4915520000000  0.5469570000000 1.0
C      1  0.5183970000000  0.5540010000000  0.4133990000000 1.0
C      1  0.5557800000000  0.5533260000000  0.5703660000000 1.0
C      1  0.4788320000000  0.4488860000000  0.4098090000000 1.0
C      1  0.4394530000000  0.5678070000000  0.4458290000000 1.0
C      1  0.5050310000000  0.3968990000000  0.5127330000000 1.0
C      1  0.5586820000000  0.5077460000000  0.5936880000000 1.0
C      1  0.5057300000000  0.4491180000000  0.5156270000000 1.0
C      1  0.5317330000000  0.5366230000000  0.5320860000000 1.0
C      1  0.3906680000000  0.5091840000000  0.5061130000000 1.0
C      1  0.5455160000000  0.5527560000000  0.4203850000000 1.0
C      1  0.5502850000000  0.5731140000000  0.4396060000000 1.0
C      1  0.5021680000000  0.5307560000000  0.5758360000000 1.0
C      1  0.4621890000000  0.5141040000000  0.4352530000000 1.0
C      1  0.4456680000000  0.5895180000000  0.4875150000000 1.0
C      1  0.4084070000000  0.5522530000000  0.5098670000000 1.0
C      1  0.5090750000000  0.4158790000000  0.4605980000000 1.0
C      1  0.4645110000000  0.4648470000000  0.4796010000000 1.0
C      1  0.5879380000000  0.5173560000000  0.5215660000000 1.0
C      1  0.5289210000000  0.5392740000000  0.5008360000000 1.0
C      1  0.4253710000000  0.4902490000000  0.5826520000000 1.0
C      1  0.6100550000000  0.5335980000000  0.5506390000000 1.0
C      1  0.4782240000000  0.4105640000000  0.5549500000000 1.0
C      1  0.4072440000000  0.4597500000000  0.4603700000000 1.0
C      1  0.4449720000000  0.4316590000000  0.4434880000000 1.0
C      1  0.4914750000000  0.5315060000000  0.4658610000000 1.0
C      1  0.6018960000000  0.5549410000000  0.4980520000000 1.0
C      1  0.4126380000000  0.4322640000000  0.5055000000000 1.0
C      1  0.4989150000000  0.4840590000000  0.4488770000000 1.0
C      1  0.4435840000000  0.4390980000000  0.5726210000000 1.0
C      1  0.5372200000000  0.5101230000000  0.4643400000000 1.0
C      1  0.4341360000000  0.4081210000000  0.5394950000000 1.0
END
