TITL C-77347-1612-8 -153.198567479159 125000 -368.998980399165 0 0 54 (C1) n - 1
REM
REM in /rds/project/t2_vol4/rds-t2-cs072/BORA/CARBON/from-Arr/AIRSS/Generating-Clusters/GAP-ML-2020/Only-C1/SD-CG/HFTN-CG
REM
REM
REM
REM
REM
REM ./C.cell (11c1c37f851c82e70ff6c80c92926a4b)
REM AIRSS Version 0.9.1 bugfix July 2018 build 013d7b7c2542+ Fri, 06 Jul 2018 19:26:36 +0100
REM compiler GCC version 9.3.0
REM options -cpp -mtune=generic -march=x86-64 -g -O0
REM seed 769457911 -1434105961 81325116 379793137 156865529 1275215636 -738071827 -97476927 1272313407 612967563 -779470831 -1834401177 1104814733 -1708858541 -813876673 -794732922 -866128482 1792760598 1928361470 1330979451 335280784 135780235 1486914995 -1871243335 1189307623 69214162 851067897 1730537969 -1155521459 -1781812021 1303306808 -2002893494 2107708123
REM
CELL 1.54180   50.00000   50.00000   50.00000   90.00000   90.00000   90.00000
LATT -1
SFAC C  
C      1  0.4864020000000  0.5202580000000  0.5546030000000 1.0
C      1  0.4777550000000  0.4385150000000  0.5120110000000 1.0
C      1  0.5021340000000  0.5149560000000  0.5052220000000 1.0
C      1  0.5257280000000  0.4320090000000  0.5207990000000 1.0
C      1  0.4504300000000  0.5338710000000  0.4756020000000 1.0
C      1  0.5304010000000  0.4332990000000  0.4939420000000 1.0
C      1  0.5573220000000  0.4967060000000  0.5169980000000 1.0
C      1  0.4825130000000  0.4426460000000  0.4838460000000 1.0
C      1  0.5101710000000  0.4480550000000  0.4789680000000 1.0
C      1  0.5316060000000  0.4765630000000  0.5124180000000 1.0
C      1  0.5034570000000  0.5702520000000  0.5079050000000 1.0
C      1  0.4725720000000  0.4733600000000  0.5559260000000 1.0
C      1  0.5065320000000  0.5114360000000  0.5343710000000 1.0
C      1  0.5219070000000  0.5445090000000  0.4518760000000 1.0
C      1  0.4875920000000  0.5154450000000  0.4365840000000 1.0
C      1  0.5539370000000  0.5308680000000  0.4754460000000 1.0
C      1  0.5470110000000  0.4992870000000  0.5467130000000 1.0
C      1  0.5249520000000  0.5381840000000  0.5392150000000 1.0
C      1  0.5372350000000  0.5553670000000  0.4737630000000 1.0
C      1  0.5071590000000  0.4938230000000  0.4342170000000 1.0
C      1  0.4447020000000  0.4679000000000  0.4946300000000 1.0
C      1  0.5472170000000  0.4505180000000  0.5133500000000 1.0
C      1  0.4675290000000  0.5013500000000  0.5614230000000 1.0
C      1  0.4430990000000  0.5180990000000  0.4537570000000 1.0
C      1  0.5562690000000  0.5228090000000  0.5030470000000 1.0
C      1  0.4502640000000  0.5331560000000  0.5300450000000 1.0
C      1  0.5421210000000  0.5439700000000  0.5167050000000 1.0
C      1  0.5340740000000  0.4957030000000  0.4436190000000 1.0
C      1  0.4751310000000  0.5512740000000  0.4695910000000 1.0
C      1  0.4930080000000  0.4706280000000  0.4384180000000 1.0
C      1  0.5195240000000  0.4847770000000  0.5394740000000 1.0
C      1  0.4992750000000  0.5570280000000  0.5329630000000 1.0
C      1  0.5662130000000  0.4715010000000  0.4759440000000 1.0
C      1  0.4755580000000  0.5443660000000  0.5417810000000 1.0
C      1  0.4488700000000  0.4651580000000  0.5412040000000 1.0
C      1  0.4986620000000  0.4645820000000  0.5470460000000 1.0
C      1  0.4440980000000  0.5111300000000  0.5476040000000 1.0
C      1  0.5190700000000  0.4756830000000  0.4853660000000 1.0
C      1  0.4333580000000  0.4892690000000  0.5340190000000 1.0
C      1  0.5304700000000  0.5629830000000  0.4996100000000 1.0
C      1  0.4938340000000  0.5402090000000  0.4493540000000 1.0
C      1  0.4420750000000  0.5236360000000  0.5021000000000 1.0
C      1  0.4353270000000  0.4941340000000  0.5058570000000 1.0
C      1  0.4626740000000  0.5030020000000  0.4426340000000 1.0
C      1  0.4677790000000  0.4746330000000  0.4487100000000 1.0
C      1  0.4615610000000  0.4600090000000  0.4724990000000 1.0
C      1  0.4853730000000  0.5695980000000  0.4872430000000 1.0
C      1  0.4995780000000  0.4976810000000  0.4864110000000 1.0
C      1  0.5669710000000  0.4700880000000  0.5046360000000 1.0
C      1  0.5429540000000  0.5239040000000  0.5578750000000 1.0
C      1  0.5406520000000  0.5216120000000  0.4508790000000 1.0
C      1  0.5424820000000  0.4772430000000  0.4645040000000 1.0
C      1  0.4531540000000  0.4515210000000  0.5173220000000 1.0
C      1  0.5002620000000  0.4414360000000  0.5299580000000 1.0
END
