TITL C-77373-1801-6 -7.47810709254367 125000 -547.845410965241 0 0 79 (C1) n - 1
REM
REM in /rds/project/t2_vol4/rds-t2-cs072/BORA/CARBON/from-Arr/AIRSS/Generating-Clusters/GAP-ML-2020/Only-C1/SD-CG/HFTN-CG
REM
REM
REM
REM
REM
REM ./C.cell (11c1c37f851c82e70ff6c80c92926a4b)
REM AIRSS Version 0.9.1 bugfix July 2018 build 013d7b7c2542+ Fri, 06 Jul 2018 19:26:36 +0100
REM compiler GCC version 9.3.0
REM options -cpp -mtune=generic -march=x86-64 -g -O0
REM seed 669112935 856554606 1268337380 1759127922 664753614 -303613781 1938799410 1282477042 1420126713 1115213206 1816886086 -1875623681 1006863383 1766764411 1329357090 452539936 144985893 1786353701 -1543610182 143546467 -657032358 593070921 -1926476247 596136074 9587511 -726378288 1325784796 -1944454945 1379758866 -840543913 -1234536138 1057651421 -1918814651
REM
CELL 1.54180   50.00000   50.00000   50.00000   90.00000   90.00000   90.00000
LATT -1
SFAC C  
C      1  0.4293780000000  0.5368580000000  0.5424480000000 1.0
C      1  0.4743010000000  0.4457840000000  0.4454170000000 1.0
C      1  0.5304880000000  0.5419470000000  0.5050030000000 1.0
C      1  0.5256040000000  0.4988210000000  0.5325020000000 1.0
C      1  0.5313190000000  0.5427950000000  0.4758820000000 1.0
C      1  0.5071240000000  0.5783620000000  0.4908630000000 1.0
C      1  0.5236840000000  0.5034810000000  0.5646090000000 1.0
C      1  0.5347300000000  0.5471730000000  0.5569100000000 1.0
C      1  0.4620120000000  0.5789240000000  0.4661020000000 1.0
C      1  0.5083410000000  0.5289510000000  0.4376440000000 1.0
C      1  0.5468750000000  0.5226460000000  0.5639230000000 1.0
C      1  0.5152910000000  0.4453350000000  0.5416200000000 1.0
C      1  0.4787600000000  0.5197790000000  0.5196660000000 1.0
C      1  0.4889590000000  0.5087400000000  0.4284670000000 1.0
C      1  0.5037130000000  0.5224710000000  0.4695260000000 1.0
C      1  0.4769530000000  0.5331970000000  0.4761700000000 1.0
C      1  0.5204920000000  0.4289710000000  0.5175740000000 1.0
C      1  0.4956700000000  0.4206080000000  0.5070210000000 1.0
C      1  0.4866360000000  0.4760870000000  0.5358420000000 1.0
C      1  0.4977910000000  0.5175570000000  0.5638500000000 1.0
C      1  0.4751000000000  0.5639160000000  0.4443370000000 1.0
C      1  0.4991010000000  0.4192080000000  0.4787530000000 1.0
C      1  0.5315090000000  0.4899650000000  0.4333890000000 1.0
C      1  0.5026170000000  0.5580940000000  0.4435120000000 1.0
C      1  0.5595910000000  0.4748680000000  0.4698250000000 1.0
C      1  0.4432700000000  0.5506090000000  0.5223310000000 1.0
C      1  0.5685060000000  0.5115300000000  0.5476890000000 1.0
C      1  0.5501120000000  0.5240820000000  0.4614100000000 1.0
C      1  0.4579540000000  0.5185670000000  0.4943090000000 1.0
C      1  0.5189690000000  0.5664230000000  0.4658950000000 1.0
C      1  0.4767920000000  0.5030340000000  0.5456430000000 1.0
C      1  0.4600320000000  0.5396160000000  0.4515810000000 1.0
C      1  0.4739280000000  0.5497880000000  0.5220410000000 1.0
C      1  0.5393640000000  0.4370710000000  0.4952290000000 1.0
C      1  0.4487410000000  0.4924370000000  0.5539890000000 1.0
C      1  0.4415130000000  0.5568170000000  0.4703380000000 1.0
C      1  0.5572030000000  0.5465980000000  0.5178930000000 1.0
C      1  0.5428170000000  0.5637010000000  0.5351370000000 1.0
C      1  0.4705920000000  0.4651100000000  0.5125510000000 1.0
C      1  0.5176220000000  0.5682340000000  0.5179870000000 1.0
C      1  0.4790720000000  0.5850870000000  0.4871310000000 1.0
C      1  0.5120110000000  0.5171870000000  0.5136280000000 1.0
C      1  0.5701430000000  0.4777050000000  0.5137770000000 1.0
C      1  0.4310070000000  0.4729870000000  0.4922520000000 1.0
C      1  0.5057980000000  0.5448360000000  0.5584140000000 1.0
C      1  0.5590150000000  0.4590400000000  0.4940270000000 1.0
C      1  0.4686310000000  0.4331200000000  0.5141190000000 1.0
C      1  0.4502850000000  0.4916610000000  0.4530440000000 1.0
C      1  0.5039190000000  0.4839520000000  0.4283460000000 1.0
C      1  0.4994130000000  0.4566170000000  0.4367510000000 1.0
C      1  0.4749490000000  0.4258240000000  0.4665100000000 1.0
C      1  0.4407050000000  0.4686060000000  0.5179130000000 1.0
C      1  0.5085310000000  0.4761490000000  0.4939450000000 1.0
C      1  0.5647900000000  0.5032110000000  0.4747590000000 1.0
C      1  0.4833760000000  0.4693830000000  0.4874080000000 1.0
C      1  0.4807840000000  0.5568990000000  0.4945960000000 1.0
C      1  0.5329780000000  0.4521870000000  0.5633300000000 1.0
C      1  0.4546780000000  0.4306340000000  0.4860640000000 1.0
C      1  0.5317400000000  0.4778930000000  0.5749820000000 1.0
C      1  0.5556480000000  0.4684920000000  0.5627170000000 1.0
C      1  0.5356370000000  0.5171500000000  0.4382070000000 1.0
C      1  0.5122950000000  0.5027270000000  0.4883050000000 1.0
C      1  0.5432090000000  0.4686100000000  0.4479970000000 1.0
C      1  0.4864190000000  0.4510310000000  0.5519290000000 1.0
C      1  0.4421990000000  0.4645560000000  0.5454250000000 1.0
C      1  0.5684140000000  0.4830180000000  0.5427500000000 1.0
C      1  0.5731850000000  0.5035550000000  0.5020130000000 1.0
C      1  0.4386280000000  0.5443260000000  0.4950160000000 1.0
C      1  0.5242300000000  0.4473600000000  0.4488170000000 1.0
C      1  0.4512770000000  0.4623730000000  0.4512320000000 1.0
C      1  0.4390580000000  0.4517880000000  0.4750270000000 1.0
C      1  0.5247060000000  0.4304140000000  0.4713530000000 1.0
C      1  0.4624980000000  0.5128960000000  0.4384760000000 1.0
C      1  0.4308750000000  0.5142500000000  0.5547920000000 1.0
C      1  0.4615180000000  0.4404030000000  0.5450530000000 1.0
C      1  0.4960000000000  0.5607090000000  0.5372290000000 1.0
C      1  0.5135750000000  0.4742440000000  0.5250540000000 1.0
C      1  0.4428280000000  0.4969470000000  0.4800750000000 1.0
C      1  0.5725230000000  0.5240200000000  0.5226570000000 1.0
END
