TITL C-77354-1619-10 0.000472707727635897 125000 -29.1208935588269 0 0 5 (C2v) n - 1
REM
REM in /rds/project/t2_vol4/rds-t2-cs072/BORA/CARBON/from-Arr/AIRSS/Generating-Clusters/GAP-ML-2020/Only-C1/SD-CG/HFTN-CG
REM
REM
REM
REM
REM
REM ./C.cell (11c1c37f851c82e70ff6c80c92926a4b)
REM AIRSS Version 0.9.1 bugfix July 2018 build 013d7b7c2542+ Fri, 06 Jul 2018 19:26:36 +0100
REM compiler GCC version 9.3.0
REM options -cpp -mtune=generic -march=x86-64 -g -O0
REM seed -1336213393 -1641548981 -253154653 -1762314621 -54716200 -390191928 526802522 -240591478 -1992777561 1018651932 824876578 -691775047 -662568275 -1671977667 -2028565748 -2048734747 -1985564601 -36705708 -2099975302 415742784 -1513052646 -667497219 1756393536 -1856017017 -1394128921 -917461795 386700444 -1853515913 858380712 577320963 947190499 -180688566 1403743486
REM
CELL 1.54180   50.00000   50.00000   50.00000   90.00000   90.00000   90.00000
LATT -1
SFAC C  
C      1  0.5246440000000  0.5066920000000  0.5212440000000 1.0
C      1  0.4771970000000  0.4993130000000  0.4593450000000 1.0
C      1  0.5031830000000  0.5000960000000  0.5056740000000 1.0
C      1  0.4896070000000  0.4996870000000  0.4814710000000 1.0
C      1  0.5053690000000  0.4942120000000  0.5322660000000 1.0
END
