TITL C-77353-1656-5 -0.234096406881375 125000 -655.446204536355 0 0 93 (C1) n - 1
REM
REM in /rds/project/t2_vol4/rds-t2-cs072/BORA/CARBON/from-Arr/AIRSS/Generating-Clusters/GAP-ML-2020/Only-C1/SD-CG/HFTN-CG
REM
REM
REM
REM
REM
REM ./C.cell (11c1c37f851c82e70ff6c80c92926a4b)
REM AIRSS Version 0.9.1 bugfix July 2018 build 013d7b7c2542+ Fri, 06 Jul 2018 19:26:36 +0100
REM compiler GCC version 9.3.0
REM options -cpp -mtune=generic -march=x86-64 -g -O0
REM seed 485170911 -2133787581 -352059742 -1552525574 -165583915 -1937386574 -875613211 1203428562 850116170 363184058 323760197 1251580408 -433911272 1332370868 -668251386 -520663306 -1145507331 369124184 -404212010 -1009484525 1544442922 -20794526 741322085 9468585 1483679092 845755172 -1373610754 1232946358 48723223 -999798631 -460467797 1166537018 -800458738
REM
CELL 1.54180   50.00000   50.00000   50.00000   90.00000   90.00000   90.00000
LATT -1
SFAC C  
C      1  0.5810730000000  0.5263240000000  0.5004720000000 1.0
C      1  0.4640560000000  0.5161660000000  0.5748350000000 1.0
C      1  0.5393860000000  0.4897840000000  0.5693260000000 1.0
C      1  0.5241560000000  0.4383390000000  0.4909780000000 1.0
C      1  0.4200420000000  0.5348770000000  0.4939780000000 1.0
C      1  0.5141860000000  0.5565680000000  0.5545880000000 1.0
C      1  0.5203970000000  0.5098930000000  0.4726480000000 1.0
C      1  0.5700910000000  0.4575990000000  0.5056990000000 1.0
C      1  0.4113900000000  0.4916570000000  0.4748000000000 1.0
C      1  0.4863850000000  0.5370780000000  0.4346130000000 1.0
C      1  0.4314920000000  0.4427880000000  0.4759750000000 1.0
C      1  0.5567260000000  0.5530150000000  0.4691510000000 1.0
C      1  0.4341720000000  0.5030360000000  0.5395860000000 1.0
C      1  0.5841230000000  0.4787330000000  0.4926160000000 1.0
C      1  0.4571980000000  0.5306680000000  0.4326470000000 1.0
C      1  0.4779500000000  0.4237740000000  0.4914430000000 1.0
C      1  0.4621510000000  0.5686330000000  0.4594930000000 1.0
C      1  0.4768510000000  0.4280080000000  0.5395790000000 1.0
C      1  0.5393130000000  0.4638220000000  0.5780020000000 1.0
C      1  0.5230170000000  0.4456860000000  0.4331270000000 1.0
C      1  0.5469870000000  0.5171340000000  0.5652440000000 1.0
C      1  0.4467240000000  0.4951580000000  0.5640690000000 1.0
C      1  0.5087660000000  0.5267130000000  0.4214750000000 1.0
C      1  0.4704710000000  0.4856850000000  0.4887020000000 1.0
C      1  0.5132990000000  0.4707200000000  0.4192580000000 1.0
C      1  0.5134840000000  0.5685910000000  0.4600910000000 1.0
C      1  0.5609510000000  0.4585820000000  0.4610740000000 1.0
C      1  0.5516700000000  0.5614330000000  0.5191650000000 1.0
C      1  0.4533020000000  0.5186490000000  0.5233330000000 1.0
C      1  0.5779760000000  0.4933280000000  0.5349540000000 1.0
C      1  0.4801470000000  0.5730870000000  0.5260840000000 1.0
C      1  0.4851040000000  0.4724140000000  0.5809930000000 1.0
C      1  0.4575140000000  0.5100560000000  0.4928670000000 1.0
C      1  0.5219390000000  0.5305740000000  0.5613720000000 1.0
C      1  0.5131650000000  0.4818290000000  0.4701540000000 1.0
C      1  0.5270150000000  0.5697600000000  0.5325890000000 1.0
C      1  0.5699700000000  0.5078690000000  0.4546890000000 1.0
C      1  0.5395720000000  0.4837220000000  0.4240110000000 1.0
C      1  0.4095840000000  0.5083120000000  0.4986550000000 1.0
C      1  0.5516310000000  0.4503790000000  0.5526570000000 1.0
C      1  0.4563500000000  0.4479250000000  0.5442680000000 1.0
C      1  0.5093740000000  0.4580980000000  0.5478340000000 1.0
C      1  0.4843400000000  0.4890120000000  0.4621890000000 1.0
C      1  0.4797750000000  0.5270510000000  0.4859530000000 1.0
C      1  0.4568100000000  0.5771580000000  0.4843940000000 1.0
C      1  0.4982490000000  0.4402690000000  0.4456570000000 1.0
C      1  0.4861620000000  0.4645850000000  0.4295620000000 1.0
C      1  0.4468490000000  0.5037340000000  0.4355810000000 1.0
C      1  0.5195550000000  0.4249270000000  0.5162030000000 1.0
C      1  0.5294330000000  0.4382180000000  0.5393870000000 1.0
C      1  0.5234570000000  0.5143230000000  0.5012440000000 1.0
C      1  0.5071910000000  0.5788840000000  0.5140860000000 1.0
C      1  0.5692380000000  0.5390230000000  0.5237570000000 1.0
C      1  0.4498040000000  0.4337420000000  0.4950920000000 1.0
C      1  0.4150510000000  0.4923940000000  0.5217700000000 1.0
C      1  0.4851110000000  0.4564030000000  0.5319100000000 1.0
C      1  0.4882230000000  0.5640790000000  0.4478600000000 1.0
C      1  0.4244840000000  0.5347690000000  0.4650430000000 1.0
C      1  0.4153890000000  0.4640740000000  0.4837990000000 1.0
C      1  0.4992080000000  0.4311860000000  0.4728640000000 1.0
C      1  0.5734160000000  0.5303070000000  0.4727470000000 1.0
C      1  0.5217260000000  0.4865980000000  0.5446130000000 1.0
C      1  0.4979210000000  0.5248230000000  0.5080070000000 1.0
C      1  0.4867410000000  0.4794140000000  0.5117410000000 1.0
C      1  0.5358450000000  0.5531670000000  0.4498870000000 1.0
C      1  0.4681910000000  0.4839510000000  0.4376320000000 1.0
C      1  0.4240540000000  0.5072980000000  0.4540800000000 1.0
C      1  0.4678350000000  0.5418800000000  0.5650330000000 1.0
C      1  0.5880290000000  0.5002210000000  0.5092710000000 1.0
C      1  0.4183470000000  0.4650930000000  0.5128380000000 1.0
C      1  0.5293880000000  0.4898750000000  0.5150340000000 1.0
C      1  0.4398970000000  0.5444860000000  0.5135020000000 1.0
C      1  0.5096360000000  0.4577220000000  0.5772460000000 1.0
C      1  0.4845680000000  0.5590170000000  0.5514330000000 1.0
C      1  0.4561790000000  0.5680900000000  0.5100460000000 1.0
C      1  0.5531580000000  0.4453780000000  0.4854540000000 1.0
C      1  0.5138760000000  0.4714900000000  0.4983260000000 1.0
C      1  0.5671560000000  0.5185110000000  0.5448590000000 1.0
C      1  0.5029290000000  0.5082220000000  0.5530270000000 1.0
C      1  0.4849730000000  0.5089880000000  0.5277140000000 1.0
C      1  0.5477470000000  0.4587160000000  0.4368540000000 1.0
C      1  0.4387600000000  0.4464460000000  0.5210620000000 1.0
C      1  0.5685110000000  0.4649240000000  0.5341190000000 1.0
C      1  0.4883960000000  0.5007090000000  0.5777190000000 1.0
C      1  0.4908130000000  0.4204430000000  0.5170340000000 1.0
C      1  0.5505430000000  0.5085520000000  0.4329330000000 1.0
C      1  0.5472420000000  0.5678170000000  0.4917190000000 1.0
C      1  0.5205140000000  0.5772570000000  0.4873910000000 1.0
C      1  0.4930970000000  0.5186110000000  0.4624650000000 1.0
C      1  0.4593510000000  0.4686180000000  0.5669210000000 1.0
C      1  0.5761250000000  0.4822190000000  0.4660110000000 1.0
C      1  0.4435710000000  0.5489410000000  0.4496480000000 1.0
C      1  0.5339820000000  0.5319190000000  0.4301910000000 1.0
END
