TITL C-77356-1701-3 37.9772933433169 125000 -326.594460054391 0 0 49 (C1) n - 1
REM
REM in /rds/project/t2_vol4/rds-t2-cs072/BORA/CARBON/from-Arr/AIRSS/Generating-Clusters/GAP-ML-2020/Only-C1/SD-CG/HFTN-CG
REM
REM
REM
REM
REM
REM ./C.cell (11c1c37f851c82e70ff6c80c92926a4b)
REM AIRSS Version 0.9.1 bugfix July 2018 build 013d7b7c2542+ Fri, 06 Jul 2018 19:26:36 +0100
REM compiler GCC version 9.3.0
REM options -cpp -mtune=generic -march=x86-64 -g -O0
REM seed -1416465425 -1662148858 1843362847 1318325883 851623847 367557864 -1338761941 -646615150 1142987651 1106807743 -1035262160 -1645659616 1599932307 -61197316 -331993360 1652012787 -1084792104 -1859059463 -1892455735 124464048 477230590 425998683 874106526 -1205451864 -1393941937 -414141939 -2086731261 619068645 1363896688 702283380 -106556686 -1840669296 1890280299
REM
CELL 1.54180   50.00000   50.00000   50.00000   90.00000   90.00000   90.00000
LATT -1
SFAC C  
C      1  0.4705720000000  0.5319420000000  0.4690890000000 1.0
C      1  0.5006900000000  0.5485250000000  0.5232410000000 1.0
C      1  0.4906210000000  0.4519620000000  0.4845260000000 1.0
C      1  0.5344760000000  0.5278910000000  0.4643370000000 1.0
C      1  0.4832690000000  0.5622750000000  0.5046230000000 1.0
C      1  0.4436200000000  0.4950160000000  0.5346950000000 1.0
C      1  0.5379740000000  0.4822050000000  0.5377070000000 1.0
C      1  0.4701660000000  0.4320670000000  0.5307420000000 1.0
C      1  0.5321660000000  0.4927270000000  0.4228460000000 1.0
C      1  0.4525600000000  0.4492330000000  0.5154370000000 1.0
C      1  0.5228590000000  0.4810430000000  0.4808510000000 1.0
C      1  0.4947250000000  0.5813960000000  0.4884250000000 1.0
C      1  0.4445840000000  0.4858700000000  0.4567190000000 1.0
C      1  0.4625060000000  0.5451630000000  0.4935350000000 1.0
C      1  0.4489810000000  0.5027550000000  0.5080030000000 1.0
C      1  0.4679900000000  0.4530690000000  0.5530150000000 1.0
C      1  0.4488870000000  0.5304510000000  0.5122460000000 1.0
C      1  0.5586540000000  0.4704870000000  0.5066790000000 1.0
C      1  0.5638340000000  0.4958200000000  0.4922060000000 1.0
C      1  0.4639310000000  0.4609280000000  0.4918290000000 1.0
C      1  0.4940430000000  0.5385800000000  0.5508420000000 1.0
C      1  0.5301790000000  0.5485690000000  0.4828760000000 1.0
C      1  0.4482660000000  0.4682420000000  0.5388490000000 1.0
C      1  0.4959060000000  0.4567380000000  0.5478680000000 1.0
C      1  0.5129050000000  0.5283880000000  0.4457750000000 1.0
C      1  0.5100570000000  0.4720830000000  0.5275160000000 1.0
C      1  0.4496020000000  0.5237390000000  0.5413490000000 1.0
C      1  0.4926010000000  0.5446270000000  0.4565550000000 1.0
C      1  0.4909270000000  0.4886260000000  0.4494730000000 1.0
C      1  0.5691230000000  0.5177430000000  0.5074240000000 1.0
C      1  0.5022280000000  0.4678780000000  0.4646870000000 1.0
C      1  0.5375610000000  0.5100420000000  0.5425680000000 1.0
C      1  0.5287280000000  0.5426690000000  0.5111060000000 1.0
C      1  0.5510550000000  0.5291790000000  0.5242650000000 1.0
C      1  0.5084860000000  0.5181790000000  0.5174570000000 1.0
C      1  0.5631780000000  0.4706510000000  0.5335650000000 1.0
C      1  0.4698920000000  0.5018720000000  0.4662810000000 1.0
C      1  0.5017590000000  0.4922240000000  0.5051430000000 1.0
C      1  0.5102320000000  0.4477330000000  0.5065160000000 1.0
C      1  0.5447840000000  0.4993700000000  0.4692510000000 1.0
C      1  0.4982090000000  0.4325180000000  0.5287690000000 1.0
C      1  0.5355620000000  0.4584420000000  0.4943490000000 1.0
C      1  0.4676230000000  0.5352110000000  0.5581830000000 1.0
C      1  0.5115980000000  0.5162250000000  0.5475830000000 1.0
C      1  0.4726370000000  0.4900680000000  0.4948890000000 1.0
C      1  0.5086090000000  0.5033830000000  0.4335090000000 1.0
C      1  0.4442100000000  0.4632050000000  0.4677860000000 1.0
C      1  0.5067670000000  0.5626610000000  0.4739240000000 1.0
C      1  0.5502040000000  0.4903290000000  0.4408900000000 1.0
END
