TITL C-77375-1706-1 -0.0542624564653045 125000 -276.629679878599 0 0 41 (C1) n - 1
REM
REM in /rds/project/t2_vol4/rds-t2-cs072/BORA/CARBON/from-Arr/AIRSS/Generating-Clusters/GAP-ML-2020/Only-C1/SD-CG/HFTN-CG
REM
REM
REM
REM
REM
REM ./C.cell (11c1c37f851c82e70ff6c80c92926a4b)
REM AIRSS Version 0.9.1 bugfix July 2018 build 013d7b7c2542+ Fri, 06 Jul 2018 19:26:36 +0100
REM compiler GCC version 9.3.0
REM options -cpp -mtune=generic -march=x86-64 -g -O0
REM seed -401153140 -2131154357 -183170809 1367650660 -701398741 1062864754 -773277248 -190131026 1878248558 -1713029041 -425013212 -1805755248 -978051433 1592240662 1218797690 -860544803 -995774958 922041036 1490297980 -343922146 -2000965323 111958323 33084269 682847088 1259722333 -1226141049 1576260008 -1605383963 -1181935550 -43475406 1024421344 -1996988207 -1214481442
REM
CELL 1.54180   50.00000   50.00000   50.00000   90.00000   90.00000   90.00000
LATT -1
SFAC C  
C      1  0.5031950000000  0.4561690000000  0.4753450000000 1.0
C      1  0.5239280000000  0.4965640000000  0.4422860000000 1.0
C      1  0.5132730000000  0.5392320000000  0.4577220000000 1.0
C      1  0.5406250000000  0.4845680000000  0.4629000000000 1.0
C      1  0.4928170000000  0.4775220000000  0.5538590000000 1.0
C      1  0.4887400000000  0.5265900000000  0.4491830000000 1.0
C      1  0.4558830000000  0.5403440000000  0.5545490000000 1.0
C      1  0.4933720000000  0.5602940000000  0.5253660000000 1.0
C      1  0.5228960000000  0.4768500000000  0.4852470000000 1.0
C      1  0.4896290000000  0.5571320000000  0.4958760000000 1.0
C      1  0.4934670000000  0.5101290000000  0.5096140000000 1.0
C      1  0.4545040000000  0.5173160000000  0.4874820000000 1.0
C      1  0.4715740000000  0.4537740000000  0.5167250000000 1.0
C      1  0.4974330000000  0.4423860000000  0.5139990000000 1.0
C      1  0.4683420000000  0.5462180000000  0.5310300000000 1.0
C      1  0.4969910000000  0.4996520000000  0.4392800000000 1.0
C      1  0.4548420000000  0.4941320000000  0.5325710000000 1.0
C      1  0.5320290000000  0.5446320000000  0.5037740000000 1.0
C      1  0.5142490000000  0.5165330000000  0.5346150000000 1.0
C      1  0.5335070000000  0.4756540000000  0.5135250000000 1.0
C      1  0.5142320000000  0.5532110000000  0.4825700000000 1.0
C      1  0.5131980000000  0.4603350000000  0.5569540000000 1.0
C      1  0.4594060000000  0.4678590000000  0.4939150000000 1.0
C      1  0.5379380000000  0.5023290000000  0.5226180000000 1.0
C      1  0.5069330000000  0.4047760000000  0.4794710000000 1.0
C      1  0.5038600000000  0.4298350000000  0.4878970000000 1.0
C      1  0.5543510000000  0.5100140000000  0.4692340000000 1.0
C      1  0.4690480000000  0.4707250000000  0.5391470000000 1.0
C      1  0.5170670000000  0.5446170000000  0.5285120000000 1.0
C      1  0.4671130000000  0.5153550000000  0.5491320000000 1.0
C      1  0.5351250000000  0.5221680000000  0.4512230000000 1.0
C      1  0.4743640000000  0.4880020000000  0.4522850000000 1.0
C      1  0.4496450000000  0.4933820000000  0.5035720000000 1.0
C      1  0.5189670000000  0.4568840000000  0.5298840000000 1.0
C      1  0.4762230000000  0.4669090000000  0.4703710000000 1.0
C      1  0.5495920000000  0.5215130000000  0.5045150000000 1.0
C      1  0.5068170000000  0.5038210000000  0.4867750000000 1.0
C      1  0.4651560000000  0.5145230000000  0.4619070000000 1.0
C      1  0.4728120000000  0.5336670000000  0.5034040000000 1.0
C      1  0.4946160000000  0.5062900000000  0.5538580000000 1.0
C      1  0.5722430000000  0.5180960000000  0.4878080000000 1.0
END
