TITL C-77358-1746-5 0.0217499920060359 125000 -511.627698446418 0 0 75 (C1) n - 1
REM
REM in /rds/project/t2_vol4/rds-t2-cs072/BORA/CARBON/from-Arr/AIRSS/Generating-Clusters/GAP-ML-2020/Only-C1/SD-CG/HFTN-CG
REM
REM
REM
REM
REM
REM ./C.cell (11c1c37f851c82e70ff6c80c92926a4b)
REM AIRSS Version 0.9.1 bugfix July 2018 build 013d7b7c2542+ Fri, 06 Jul 2018 19:26:36 +0100
REM compiler GCC version 9.3.0
REM options -cpp -mtune=generic -march=x86-64 -g -O0
REM seed -616576534 1415757214 261314815 2009488607 1759665238 1537870006 341979671 1971203156 648081061 1096016380 417288397 -1470946455 -1154003762 -579589523 -963120063 1810401997 934138372 -370844545 -1063502095 443493659 2103782285 1344090110 542123244 158004393 246047184 515416461 -1759806603 717440368 -574629718 1078442572 801888429 -1048251632 -1978660194
REM
CELL 1.54180   50.00000   50.00000   50.00000   90.00000   90.00000   90.00000
LATT -1
SFAC C  
C      1  0.4816030000000  0.4705360000000  0.4892420000000 1.0
C      1  0.4640470000000  0.4249940000000  0.5006870000000 1.0
C      1  0.4380280000000  0.5349920000000  0.5298880000000 1.0
C      1  0.4690340000000  0.5135900000000  0.4342410000000 1.0
C      1  0.5175420000000  0.5440850000000  0.5456790000000 1.0
C      1  0.5372000000000  0.4583080000000  0.5717930000000 1.0
C      1  0.4308800000000  0.4701690000000  0.4940040000000 1.0
C      1  0.5419880000000  0.5548880000000  0.4586050000000 1.0
C      1  0.4727370000000  0.4957670000000  0.4920340000000 1.0
C      1  0.4400850000000  0.4858160000000  0.5360210000000 1.0
C      1  0.5350160000000  0.4964300000000  0.5163960000000 1.0
C      1  0.5636040000000  0.5245040000000  0.4819210000000 1.0
C      1  0.4941570000000  0.5118160000000  0.4984340000000 1.0
C      1  0.5458970000000  0.4528110000000  0.4683560000000 1.0
C      1  0.4276040000000  0.4990920000000  0.4951890000000 1.0
C      1  0.4753670000000  0.5192810000000  0.5587730000000 1.0
C      1  0.5022600000000  0.5208900000000  0.5476010000000 1.0
C      1  0.4955320000000  0.4489960000000  0.4486870000000 1.0
C      1  0.5750960000000  0.5063070000000  0.5011620000000 1.0
C      1  0.5715150000000  0.4604400000000  0.4753850000000 1.0
C      1  0.5090010000000  0.4337750000000  0.5338380000000 1.0
C      1  0.5302440000000  0.4501380000000  0.4943230000000 1.0
C      1  0.4849520000000  0.4487490000000  0.5371450000000 1.0
C      1  0.5338230000000  0.5437670000000  0.5050940000000 1.0
C      1  0.5001610000000  0.5664070000000  0.5401930000000 1.0
C      1  0.4930890000000  0.5754880000000  0.5126880000000 1.0
C      1  0.4492110000000  0.5023170000000  0.4518240000000 1.0
C      1  0.4570450000000  0.5408480000000  0.4869380000000 1.0
C      1  0.4643930000000  0.5740070000000  0.5196730000000 1.0
C      1  0.4845260000000  0.5380900000000  0.5004120000000 1.0
C      1  0.4907740000000  0.4767990000000  0.5436230000000 1.0
C      1  0.5583820000000  0.5117250000000  0.5299420000000 1.0
C      1  0.5577720000000  0.5738280000000  0.4712180000000 1.0
C      1  0.4484370000000  0.5119150000000  0.4794080000000 1.0
C      1  0.5134430000000  0.4277190000000  0.5055590000000 1.0
C      1  0.5143310000000  0.5164600000000  0.4726460000000 1.0
C      1  0.4400370000000  0.4621890000000  0.5199090000000 1.0
C      1  0.4673480000000  0.5643000000000  0.4452550000000 1.0
C      1  0.4950950000000  0.5557090000000  0.4434300000000 1.0
C      1  0.5357480000000  0.5159700000000  0.4918540000000 1.0
C      1  0.5608120000000  0.4714850000000  0.5590570000000 1.0
C      1  0.5578300000000  0.5301510000000  0.4524950000000 1.0
C      1  0.4445670000000  0.5551430000000  0.5099080000000 1.0
C      1  0.4641710000000  0.4903970000000  0.5501950000000 1.0
C      1  0.5569870000000  0.5538750000000  0.4891620000000 1.0
C      1  0.4552330000000  0.5623660000000  0.4683450000000 1.0
C      1  0.4769090000000  0.4681800000000  0.4383290000000 1.0
C      1  0.5175590000000  0.4697370000000  0.5873490000000 1.0
C      1  0.4553130000000  0.4330250000000  0.4740380000000 1.0
C      1  0.5610210000000  0.5189180000000  0.4274810000000 1.0
C      1  0.5199310000000  0.4658770000000  0.4563250000000 1.0
C      1  0.5469110000000  0.4685040000000  0.5118750000000 1.0
C      1  0.5420340000000  0.5385840000000  0.5317590000000 1.0
C      1  0.5385660000000  0.5066740000000  0.4303560000000 1.0
C      1  0.4962360000000  0.4802010000000  0.5759650000000 1.0
C      1  0.4579820000000  0.5406230000000  0.5508060000000 1.0
C      1  0.5681610000000  0.4964270000000  0.5519540000000 1.0
C      1  0.5542260000000  0.4542980000000  0.5358960000000 1.0
C      1  0.5130850000000  0.5473740000000  0.4652240000000 1.0
C      1  0.4604120000000  0.4421640000000  0.5228130000000 1.0
C      1  0.4891720000000  0.4932040000000  0.4337850000000 1.0
C      1  0.4909260000000  0.4197600000000  0.4908870000000 1.0
C      1  0.5070400000000  0.4993240000000  0.5270760000000 1.0
C      1  0.4718310000000  0.5650910000000  0.5454480000000 1.0
C      1  0.4826940000000  0.4288960000000  0.4640430000000 1.0
C      1  0.5066870000000  0.5560580000000  0.4947580000000 1.0
C      1  0.5087460000000  0.4680310000000  0.4836750000000 1.0
C      1  0.5714350000000  0.4780350000000  0.4963520000000 1.0
C      1  0.4749030000000  0.5406350000000  0.4307480000000 1.0
C      1  0.5319700000000  0.4413050000000  0.5487050000000 1.0
C      1  0.4294170000000  0.5087080000000  0.5225010000000 1.0
C      1  0.5162000000000  0.4962620000000  0.4466330000000 1.0
C      1  0.4729470000000  0.4962910000000  0.5769220000000 1.0
C      1  0.4507360000000  0.4736510000000  0.4497290000000 1.0
C      1  0.4403460000000  0.4568380000000  0.4703380000000 1.0
END
