TITL C-77365-1664-1 126.387941130456 125000 -574.770828496757 0 0 83 (C1) n - 1
REM
REM in /rds/project/t2_vol4/rds-t2-cs072/BORA/CARBON/from-Arr/AIRSS/Generating-Clusters/GAP-ML-2020/Only-C1/SD-CG/HFTN-CG
REM
REM
REM
REM
REM
REM ./C.cell (11c1c37f851c82e70ff6c80c92926a4b)
REM AIRSS Version 0.9.1 bugfix July 2018 build 013d7b7c2542+ Fri, 06 Jul 2018 19:26:36 +0100
REM compiler GCC version 9.3.0
REM options -cpp -mtune=generic -march=x86-64 -g -O0
REM seed 388365837 902248689 -2047910955 -1622189449 1106526185 1645395814 -1185467168 112776422 -1167682223 2051221527 -1451957962 -501853682 -1411343036 -1054280785 -371398492 -1400643148 523091683 -643342326 -1108221388 -1620234678 2021919420 -2126435076 1352440246 -462364400 -1545474311 530473521 1875840072 -603063694 18093046 -125485554 -1112684490 125284312 1207947904
REM
CELL 1.54180   50.00000   50.00000   50.00000   90.00000   90.00000   90.00000
LATT -1
SFAC C  
C      1  0.5324430000000  0.5485970000000  0.4999780000000 1.0
C      1  0.4758830000000  0.5287600000000  0.5700820000000 1.0
C      1  0.5278570000000  0.4581090000000  0.4489310000000 1.0
C      1  0.5089000000000  0.5741820000000  0.4593190000000 1.0
C      1  0.5158810000000  0.5475940000000  0.5597360000000 1.0
C      1  0.4618700000000  0.4895820000000  0.4818420000000 1.0
C      1  0.5267600000000  0.5000500000000  0.4918090000000 1.0
C      1  0.5001140000000  0.5295440000000  0.4648580000000 1.0
C      1  0.4411690000000  0.5257870000000  0.5418860000000 1.0
C      1  0.5086970000000  0.5005700000000  0.5129160000000 1.0
C      1  0.5648690000000  0.5144700000000  0.4383210000000 1.0
C      1  0.4589660000000  0.4672520000000  0.5542390000000 1.0
C      1  0.4592570000000  0.4575540000000  0.4431360000000 1.0
C      1  0.4919770000000  0.5229180000000  0.5092430000000 1.0
C      1  0.4404520000000  0.4791290000000  0.4440520000000 1.0
C      1  0.5172730000000  0.4442830000000  0.4718220000000 1.0
C      1  0.5705820000000  0.4899800000000  0.4513330000000 1.0
C      1  0.5496090000000  0.5590180000000  0.4384220000000 1.0
C      1  0.5005390000000  0.4771370000000  0.5751910000000 1.0
C      1  0.4499610000000  0.5057070000000  0.5220400000000 1.0
C      1  0.4833960000000  0.4576190000000  0.5064140000000 1.0
C      1  0.5521200000000  0.4479600000000  0.5102000000000 1.0
C      1  0.5377640000000  0.5757050000000  0.4595440000000 1.0
C      1  0.5214800000000  0.4399330000000  0.5444650000000 1.0
C      1  0.5066020000000  0.5493630000000  0.4436900000000 1.0
C      1  0.4172110000000  0.4778390000000  0.4906540000000 1.0
C      1  0.4656010000000  0.5148570000000  0.4987390000000 1.0
C      1  0.5249340000000  0.4930080000000  0.4153520000000 1.0
C      1  0.5732200000000  0.5468240000000  0.4768350000000 1.0
C      1  0.4575850000000  0.5386990000000  0.4824140000000 1.0
C      1  0.5728800000000  0.5255880000000  0.4966770000000 1.0
C      1  0.5418920000000  0.5464170000000  0.5482230000000 1.0
C      1  0.4162320000000  0.4900270000000  0.5644540000000 1.0
C      1  0.5731720000000  0.4719640000000  0.4732960000000 1.0
C      1  0.5012370000000  0.4511130000000  0.5615140000000 1.0
C      1  0.4718410000000  0.5626380000000  0.4987970000000 1.0
C      1  0.4454570000000  0.4398930000000  0.4872130000000 1.0
C      1  0.4594310000000  0.5077610000000  0.5796170000000 1.0
C      1  0.4337990000000  0.4939470000000  0.4698830000000 1.0
C      1  0.5285380000000  0.4367480000000  0.4975150000000 1.0
C      1  0.5574650000000  0.5229600000000  0.5473370000000 1.0
C      1  0.5578100000000  0.4771700000000  0.5457850000000 1.0
C      1  0.4556790000000  0.4665490000000  0.5005300000000 1.0
C      1  0.4333450000000  0.4807880000000  0.5171620000000 1.0
C      1  0.5037440000000  0.5628160000000  0.5381260000000 1.0
C      1  0.4730630000000  0.5363150000000  0.4572020000000 1.0
C      1  0.4866500000000  0.4820690000000  0.4666550000000 1.0
C      1  0.5046930000000  0.5440320000000  0.4907580000000 1.0
C      1  0.4649230000000  0.4428920000000  0.4655380000000 1.0
C      1  0.5291060000000  0.5428260000000  0.4269110000000 1.0
C      1  0.4625820000000  0.5434270000000  0.5481460000000 1.0
C      1  0.4573410000000  0.4224150000000  0.5077160000000 1.0
C      1  0.4547180000000  0.5219350000000  0.4414670000000 1.0
C      1  0.5541860000000  0.4669710000000  0.4530520000000 1.0
C      1  0.5741730000000  0.4861720000000  0.5238420000000 1.0
C      1  0.5734070000000  0.5148600000000  0.5230530000000 1.0
C      1  0.4767740000000  0.5597180000000  0.5288320000000 1.0
C      1  0.5107410000000  0.4295640000000  0.5199640000000 1.0
C      1  0.5444980000000  0.5217660000000  0.4968100000000 1.0
C      1  0.4716310000000  0.4899290000000  0.5372120000000 1.0
C      1  0.5186500000000  0.4995710000000  0.5721650000000 1.0
C      1  0.4367580000000  0.5228830000000  0.4643210000000 1.0
C      1  0.4193500000000  0.4515320000000  0.4833010000000 1.0
C      1  0.4723270000000  0.4827580000000  0.5759900000000 1.0
C      1  0.5391040000000  0.5153740000000  0.4218350000000 1.0
C      1  0.4943070000000  0.5712280000000  0.4847590000000 1.0
C      1  0.4931030000000  0.4798230000000  0.5218870000000 1.0
C      1  0.5082710000000  0.5018650000000  0.4702760000000 1.0
C      1  0.4595750000000  0.4965590000000  0.4302950000000 1.0
C      1  0.5714760000000  0.4676250000000  0.5014350000000 1.0
C      1  0.4299470000000  0.4738970000000  0.5468440000000 1.0
C      1  0.5506630000000  0.5649570000000  0.4819680000000 1.0
C      1  0.4355630000000  0.5084440000000  0.5638190000000 1.0
C      1  0.4763230000000  0.4444560000000  0.5502460000000 1.0
C      1  0.5300580000000  0.5609110000000  0.5262120000000 1.0
C      1  0.4901800000000  0.4535960000000  0.4773930000000 1.0
C      1  0.5042820000000  0.5250010000000  0.5708270000000 1.0
C      1  0.4800550000000  0.4322140000000  0.5224860000000 1.0
C      1  0.5705710000000  0.5412440000000  0.4489560000000 1.0
C      1  0.5108960000000  0.4733900000000  0.4286910000000 1.0
C      1  0.4821690000000  0.4780020000000  0.4373960000000 1.0
C      1  0.5466090000000  0.4518450000000  0.5380540000000 1.0
C      1  0.5457860000000  0.4995240000000  0.5600920000000 1.0
END
