TITL C-77351-1622-1 -54.5675680966776 125000 -660.384762482335 0 0 95 (C1) n - 1
REM
REM in /rds/project/t2_vol4/rds-t2-cs072/BORA/CARBON/from-Arr/AIRSS/Generating-Clusters/GAP-ML-2020/Only-C1/SD-CG/HFTN-CG
REM
REM
REM
REM
REM
REM ./C.cell (11c1c37f851c82e70ff6c80c92926a4b)
REM AIRSS Version 0.9.1 bugfix July 2018 build 013d7b7c2542+ Fri, 06 Jul 2018 19:26:36 +0100
REM compiler GCC version 9.3.0
REM options -cpp -mtune=generic -march=x86-64 -g -O0
REM seed -168950141 1026519010 582636450 1793515356 -543321521 -1330568587 -77364598 -827700411 192527009 1507302122 553519813 2118519458 895646728 1128896424 -937344802 -1276221838 -1599467049 1451172011 1310765806 -787319208 -1792206998 392560131 -807419995 -1773843073 1143712830 1210313402 2122838321 339984208 577623973 -440751149 -1583239570 1557283838 -177266489
REM
CELL 1.54180   50.00000   50.00000   50.00000   90.00000   90.00000   90.00000
LATT -1
SFAC C  
C      1  0.4694590000000  0.4142750000000  0.4887160000000 1.0
C      1  0.4650080000000  0.5032710000000  0.4561140000000 1.0
C      1  0.5472150000000  0.5272520000000  0.5745110000000 1.0
C      1  0.5339730000000  0.4827350000000  0.5801930000000 1.0
C      1  0.5249250000000  0.4629670000000  0.4552050000000 1.0
C      1  0.4522890000000  0.5209010000000  0.5640340000000 1.0
C      1  0.5715210000000  0.4903590000000  0.5516650000000 1.0
C      1  0.5084460000000  0.4780430000000  0.5699950000000 1.0
C      1  0.4988510000000  0.4530780000000  0.5616730000000 1.0
C      1  0.5460530000000  0.5475960000000  0.5356150000000 1.0
C      1  0.4215730000000  0.5246240000000  0.5195690000000 1.0
C      1  0.4237130000000  0.4771490000000  0.4698410000000 1.0
C      1  0.4583520000000  0.5800160000000  0.4825670000000 1.0
C      1  0.5209040000000  0.5313510000000  0.5838910000000 1.0
C      1  0.4136940000000  0.5015570000000  0.5056460000000 1.0
C      1  0.5780340000000  0.4580260000000  0.5152220000000 1.0
C      1  0.5042650000000  0.5846030000000  0.5032420000000 1.0
C      1  0.4689060000000  0.4475200000000  0.5230830000000 1.0
C      1  0.5480650000000  0.4467350000000  0.5527660000000 1.0
C      1  0.4263960000000  0.4771760000000  0.5158540000000 1.0
C      1  0.4966060000000  0.4470350000000  0.5094120000000 1.0
C      1  0.4699890000000  0.5143100000000  0.4862730000000 1.0
C      1  0.4162800000000  0.5034430000000  0.4774110000000 1.0
C      1  0.4633560000000  0.4611320000000  0.4802220000000 1.0
C      1  0.5138820000000  0.5457240000000  0.5359620000000 1.0
C      1  0.5486210000000  0.5082370000000  0.4358460000000 1.0
C      1  0.5203650000000  0.4379580000000  0.5506350000000 1.0
C      1  0.5004040000000  0.5317350000000  0.5616760000000 1.0
C      1  0.5048430000000  0.4716130000000  0.4356050000000 1.0
C      1  0.5043140000000  0.5045320000000  0.3985210000000 1.0
C      1  0.5138510000000  0.5045730000000  0.4693610000000 1.0
C      1  0.5720940000000  0.5303090000000  0.4981790000000 1.0
C      1  0.5665520000000  0.5028500000000  0.5065380000000 1.0
C      1  0.4715740000000  0.5422750000000  0.5650740000000 1.0
C      1  0.4977750000000  0.4285420000000  0.4574690000000 1.0
C      1  0.4272560000000  0.4331470000000  0.4999610000000 1.0
C      1  0.5295360000000  0.5850950000000  0.4932470000000 1.0
C      1  0.4517100000000  0.4244090000000  0.5088030000000 1.0
C      1  0.5725940000000  0.4364450000000  0.4720010000000 1.0
C      1  0.5097160000000  0.4807150000000  0.4062490000000 1.0
C      1  0.4938250000000  0.5009240000000  0.5565880000000 1.0
C      1  0.5507750000000  0.5695700000000  0.4897210000000 1.0
C      1  0.5540170000000  0.5559860000000  0.4638130000000 1.0
C      1  0.4822110000000  0.4046230000000  0.4672880000000 1.0
C      1  0.5270330000000  0.4813560000000  0.4794950000000 1.0
C      1  0.4711710000000  0.4979860000000  0.5086060000000 1.0
C      1  0.4715220000000  0.4529790000000  0.5518690000000 1.0
C      1  0.4843850000000  0.4413230000000  0.4829580000000 1.0
C      1  0.5318790000000  0.5292750000000  0.4302870000000 1.0
C      1  0.4480860000000  0.5661850000000  0.5044550000000 1.0
C      1  0.4576820000000  0.4721500000000  0.5066400000000 1.0
C      1  0.4535960000000  0.4739520000000  0.5599710000000 1.0
C      1  0.5799120000000  0.4839240000000  0.5260950000000 1.0
C      1  0.5690350000000  0.5324940000000  0.4696220000000 1.0
C      1  0.4673300000000  0.5692390000000  0.5283210000000 1.0
C      1  0.4473640000000  0.5275900000000  0.4499610000000 1.0
C      1  0.5466960000000  0.4295370000000  0.4806260000000 1.0
C      1  0.4667590000000  0.4972270000000  0.5684560000000 1.0
C      1  0.4887810000000  0.5465800000000  0.4294780000000 1.0
C      1  0.5165230000000  0.4293180000000  0.5235190000000 1.0
C      1  0.5418250000000  0.4269110000000  0.5104060000000 1.0
C      1  0.5598590000000  0.4867990000000  0.4812760000000 1.0
C      1  0.5108520000000  0.5263040000000  0.4876040000000 1.0
C      1  0.5322630000000  0.4790730000000  0.5261010000000 1.0
C      1  0.5731910000000  0.4597790000000  0.4860980000000 1.0
C      1  0.5108520000000  0.4751500000000  0.5082120000000 1.0
C      1  0.4859680000000  0.5372850000000  0.4849470000000 1.0
C      1  0.5031680000000  0.5219260000000  0.4233580000000 1.0
C      1  0.4619500000000  0.5651130000000  0.5546460000000 1.0
C      1  0.5609360000000  0.4394270000000  0.5278580000000 1.0
C      1  0.4621380000000  0.5737400000000  0.4545580000000 1.0
C      1  0.4947560000000  0.5004240000000  0.4462860000000 1.0
C      1  0.4963920000000  0.5683830000000  0.5252300000000 1.0
C      1  0.4896940000000  0.5839380000000  0.4555580000000 1.0
C      1  0.5410260000000  0.5066440000000  0.5250340000000 1.0
C      1  0.4174220000000  0.4577080000000  0.4946910000000 1.0
C      1  0.5644760000000  0.5066020000000  0.4578220000000 1.0
C      1  0.5265290000000  0.4354620000000  0.4602720000000 1.0
C      1  0.5065520000000  0.5656530000000  0.4415620000000 1.0
C      1  0.4316730000000  0.4842950000000  0.5442520000000 1.0
C      1  0.5151770000000  0.5212670000000  0.5165520000000 1.0
C      1  0.4852680000000  0.5915610000000  0.4832680000000 1.0
C      1  0.4302920000000  0.5439070000000  0.4993920000000 1.0
C      1  0.5559240000000  0.5207180000000  0.5478610000000 1.0
C      1  0.5593950000000  0.5522760000000  0.5112490000000 1.0
C      1  0.4620890000000  0.5493880000000  0.4403620000000 1.0
C      1  0.4605410000000  0.4557670000000  0.4357380000000 1.0
C      1  0.4954760000000  0.4988440000000  0.5233330000000 1.0
C      1  0.4863470000000  0.4482080000000  0.4362480000000 1.0
C      1  0.5335300000000  0.5544150000000  0.4432160000000 1.0
C      1  0.5559000000000  0.4712060000000  0.5657120000000 1.0
C      1  0.5360480000000  0.5087160000000  0.5915190000000 1.0
C      1  0.4283020000000  0.5291290000000  0.4720930000000 1.0
C      1  0.4312720000000  0.5133950000000  0.5454420000000 1.0
C      1  0.4513770000000  0.4750560000000  0.4566300000000 1.0
END
