TITL C-77357-1811-7 -0.00474761092759635 125000 -351.780827924229 0 0 51 (C1) n - 1
REM
REM in /rds/project/t2_vol4/rds-t2-cs072/BORA/CARBON/from-Arr/AIRSS/Generating-Clusters/GAP-ML-2020/Only-C1/SD-CG/HFTN-CG
REM
REM
REM
REM
REM
REM ./C.cell (11c1c37f851c82e70ff6c80c92926a4b)
REM AIRSS Version 0.9.1 bugfix July 2018 build 013d7b7c2542+ Fri, 06 Jul 2018 19:26:36 +0100
REM compiler GCC version 9.3.0
REM options -cpp -mtune=generic -march=x86-64 -g -O0
REM seed -1677920954 1785308724 -1486202392 -856701257 496881642 1664647586 -780257089 -1309345056 1722391490 -1114820316 286966791 -1654633046 70939252 980212264 867421610 -203552671 8383723 1438476075 -680084732 1117485147 300387959 1937816348 -910525829 -700187358 295464519 2134356310 -1663829572 -1278964254 1857975152 -1962972684 1306724435 783414709 -1745343774
REM
CELL 1.54180   50.00000   50.00000   50.00000   90.00000   90.00000   90.00000
LATT -1
SFAC C  
C      1  0.5234650000000  0.4762030000000  0.5484320000000 1.0
C      1  0.5045210000000  0.4428200000000  0.4759210000000 1.0
C      1  0.5218400000000  0.4337400000000  0.4965740000000 1.0
C      1  0.5337860000000  0.5449620000000  0.5272290000000 1.0
C      1  0.5478750000000  0.4613080000000  0.4694500000000 1.0
C      1  0.5179350000000  0.5280410000000  0.5699450000000 1.0
C      1  0.5448220000000  0.5288410000000  0.4665770000000 1.0
C      1  0.4506780000000  0.4928700000000  0.5380880000000 1.0
C      1  0.5163830000000  0.4328630000000  0.5237870000000 1.0
C      1  0.4563610000000  0.5229650000000  0.4606080000000 1.0
C      1  0.5179390000000  0.5368160000000  0.4683740000000 1.0
C      1  0.4782160000000  0.5251450000000  0.4407050000000 1.0
C      1  0.4433670000000  0.5379750000000  0.4812610000000 1.0
C      1  0.5023000000000  0.5355400000000  0.4460670000000 1.0
C      1  0.4889720000000  0.4979490000000  0.4456410000000 1.0
C      1  0.4474960000000  0.4758270000000  0.5153750000000 1.0
C      1  0.5598950000000  0.4871630000000  0.5201920000000 1.0
C      1  0.5619080000000  0.4861750000000  0.4697310000000 1.0
C      1  0.5360520000000  0.5245880000000  0.5491460000000 1.0
C      1  0.4808790000000  0.5557990000000  0.5278790000000 1.0
C      1  0.4715250000000  0.4613000000000  0.5064100000000 1.0
C      1  0.5598720000000  0.5274240000000  0.4911970000000 1.0
C      1  0.5127690000000  0.4829170000000  0.4410220000000 1.0
C      1  0.4347510000000  0.4925980000000  0.4956040000000 1.0
C      1  0.4438820000000  0.4896580000000  0.4684400000000 1.0
C      1  0.4759950000000  0.4454790000000  0.4831520000000 1.0
C      1  0.4889660000000  0.5050460000000  0.4957520000000 1.0
C      1  0.4740890000000  0.4934510000000  0.5553310000000 1.0
C      1  0.4965290000000  0.5292230000000  0.5841690000000 1.0
C      1  0.4537390000000  0.4451730000000  0.4654490000000 1.0
C      1  0.5430080000000  0.4974340000000  0.5416200000000 1.0
C      1  0.5539090000000  0.4591580000000  0.5180250000000 1.0
C      1  0.5350640000000  0.4972700000000  0.4307870000000 1.0
C      1  0.5031370000000  0.5306700000000  0.4939400000000 1.0
C      1  0.4480300000000  0.5648390000000  0.4909360000000 1.0
C      1  0.5068520000000  0.5473630000000  0.5166990000000 1.0
C      1  0.4372470000000  0.5194880000000  0.5030320000000 1.0
C      1  0.5664590000000  0.4994710000000  0.4950410000000 1.0
C      1  0.5508370000000  0.5053270000000  0.4513990000000 1.0
C      1  0.4654910000000  0.5367200000000  0.5439190000000 1.0
C      1  0.4962770000000  0.4815550000000  0.5427360000000 1.0
C      1  0.5207150000000  0.4600270000000  0.4581910000000 1.0
C      1  0.5325800000000  0.4517760000000  0.5361370000000 1.0
C      1  0.4399860000000  0.4646520000000  0.4559960000000 1.0
C      1  0.4727620000000  0.4988270000000  0.4705670000000 1.0
C      1  0.5554110000000  0.5453780000000  0.5106230000000 1.0
C      1  0.5475730000000  0.4472200000000  0.4936490000000 1.0
C      1  0.4773700000000  0.5207950000000  0.5650150000000 1.0
C      1  0.4920020000000  0.4820860000000  0.5127760000000 1.0
C      1  0.4451140000000  0.5202750000000  0.5309690000000 1.0
C      1  0.4633670000000  0.5698120000000  0.5104320000000 1.0
END
