TITL C-77346-1702-2 -43.0119330875294 125000 -263.359582678048 0 0 40 (C1) n - 1
REM
REM in /rds/project/t2_vol4/rds-t2-cs072/BORA/CARBON/from-Arr/AIRSS/Generating-Clusters/GAP-ML-2020/Only-C1/SD-CG/HFTN-CG
REM
REM
REM
REM
REM
REM ./C.cell (11c1c37f851c82e70ff6c80c92926a4b)
REM AIRSS Version 0.9.1 bugfix July 2018 build 013d7b7c2542+ Fri, 06 Jul 2018 19:26:36 +0100
REM compiler GCC version 9.3.0
REM options -cpp -mtune=generic -march=x86-64 -g -O0
REM seed 470468415 314156263 2092476095 -1130818219 1526037575 -376742227 -2078888124 -644566756 -196805443 -631997245 -2015401271 -250089384 280742181 -1756737117 1593569925 -1569002390 824168636 -1593662295 1282252524 -2523520 491155844 -987735878 1082246243 -1621874322 -111671018 929056233 135099509 454490089 1969953328 469195501 1289105837 -1253486724 -1760251615
REM
CELL 1.54180   50.00000   50.00000   50.00000   90.00000   90.00000   90.00000
LATT -1
SFAC C  
C      1  0.4922170000000  0.4531780000000  0.5445010000000 1.0
C      1  0.4883510000000  0.5088750000000  0.5059350000000 1.0
C      1  0.5283320000000  0.4780500000000  0.4631500000000 1.0
C      1  0.5819490000000  0.4989290000000  0.5219670000000 1.0
C      1  0.4636780000000  0.4940790000000  0.5019960000000 1.0
C      1  0.5135160000000  0.4891780000000  0.5114900000000 1.0
C      1  0.4960680000000  0.5639660000000  0.5211750000000 1.0
C      1  0.4995530000000  0.5569450000000  0.4943890000000 1.0
C      1  0.5360880000000  0.5525060000000  0.5419340000000 1.0
C      1  0.4723110000000  0.5015040000000  0.5484110000000 1.0
C      1  0.5196330000000  0.5090290000000  0.5324300000000 1.0
C      1  0.4204250000000  0.5027200000000  0.5340960000000 1.0
C      1  0.5415790000000  0.5263010000000  0.5321870000000 1.0
C      1  0.4965120000000  0.4646660000000  0.5177390000000 1.0
C      1  0.5183860000000  0.5700020000000  0.5372940000000 1.0
C      1  0.4908170000000  0.5191190000000  0.5356570000000 1.0
C      1  0.4400030000000  0.4877050000000  0.4572750000000 1.0
C      1  0.4463840000000  0.5074860000000  0.5273730000000 1.0
C      1  0.5498710000000  0.5104880000000  0.4895170000000 1.0
C      1  0.5151360000000  0.5447580000000  0.4758850000000 1.0
C      1  0.4797070000000  0.4280830000000  0.4727990000000 1.0
C      1  0.4546200000000  0.5027870000000  0.4743110000000 1.0
C      1  0.5628490000000  0.5172760000000  0.5147100000000 1.0
C      1  0.4772320000000  0.5173800000000  0.4635400000000 1.0
C      1  0.5085310000000  0.4595400000000  0.4542360000000 1.0
C      1  0.4715360000000  0.4654980000000  0.5017140000000 1.0
C      1  0.4600900000000  0.4690980000000  0.4570400000000 1.0
C      1  0.4543780000000  0.5373150000000  0.5221050000000 1.0
C      1  0.5554390000000  0.4650690000000  0.5073620000000 1.0
C      1  0.4768500000000  0.5460870000000  0.5338860000000 1.0
C      1  0.4943860000000  0.5029160000000  0.4465780000000 1.0
C      1  0.4827390000000  0.4769890000000  0.5475250000000 1.0
C      1  0.5773480000000  0.4724380000000  0.5188230000000 1.0
C      1  0.4635690000000  0.4498070000000  0.4795170000000 1.0
C      1  0.5335070000000  0.5240780000000  0.4708750000000 1.0
C      1  0.4857880000000  0.4753510000000  0.4449840000000 1.0
C      1  0.5367000000000  0.4821860000000  0.4928270000000 1.0
C      1  0.5028700000000  0.4338410000000  0.4636620000000 1.0
C      1  0.5225800000000  0.5037320000000  0.4534990000000 1.0
C      1  0.4884720000000  0.5310480000000  0.4856060000000 1.0
END
