TITL C-77371-1639-8 231.178586144105 125000 -893.18589205466 0 0 129 (C1) n - 1
REM
REM in /rds/project/t2_vol4/rds-t2-cs072/BORA/CARBON/from-Arr/AIRSS/Generating-Clusters/GAP-ML-2020/Only-C1/SD-CG/HFTN-CG
REM
REM
REM
REM
REM
REM ./C.cell (11c1c37f851c82e70ff6c80c92926a4b)
REM AIRSS Version 0.9.1 bugfix July 2018 build 013d7b7c2542+ Fri, 06 Jul 2018 19:26:36 +0100
REM compiler GCC version 9.3.0
REM options -cpp -mtune=generic -march=x86-64 -g -O0
REM seed 427997571 -1953276903 1167145137 1277488089 -1528126854 1333177906 -155511978 -493012593 -2099397169 -385858516 -615218512 -2087784685 1225811692 404376510 -1856392039 -1291258639 -1125825356 1991837573 -1738882382 -1350251353 -550991068 -87976001 2117065977 -646047833 -169892391 -585514741 -842116421 -1852809617 1650890289 -1885950109 -1190703634 128437622 -897560295
REM
CELL 1.54180   50.00000   50.00000   50.00000   90.00000   90.00000   90.00000
LATT -1
SFAC C  
C      1  0.5723870000000  0.4493280000000  0.5341750000000 1.0
C      1  0.5479660000000  0.4111540000000  0.5268110000000 1.0
C      1  0.5536980000000  0.4286770000000  0.4622380000000 1.0
C      1  0.5731220000000  0.5515500000000  0.5604250000000 1.0
C      1  0.5044220000000  0.4908950000000  0.5925200000000 1.0
C      1  0.4577340000000  0.4963600000000  0.5721220000000 1.0
C      1  0.4449700000000  0.4260270000000  0.5147410000000 1.0
C      1  0.4423910000000  0.5737800000000  0.4717190000000 1.0
C      1  0.4428810000000  0.5728550000000  0.5215460000000 1.0
C      1  0.4565330000000  0.5649910000000  0.4479580000000 1.0
C      1  0.5731670000000  0.5693900000000  0.4651060000000 1.0
C      1  0.5830030000000  0.5207020000000  0.5024700000000 1.0
C      1  0.5216580000000  0.5077400000000  0.5754330000000 1.0
C      1  0.4923020000000  0.4782270000000  0.5330780000000 1.0
C      1  0.4662080000000  0.4314610000000  0.5376770000000 1.0
C      1  0.4968920000000  0.4867320000000  0.4733940000000 1.0
C      1  0.5004990000000  0.5854580000000  0.4558470000000 1.0
C      1  0.4507750000000  0.5376490000000  0.4378200000000 1.0
C      1  0.4518690000000  0.4847150000000  0.4235850000000 1.0
C      1  0.4976220000000  0.5933710000000  0.5215380000000 1.0
C      1  0.4893900000000  0.6011000000000  0.4747760000000 1.0
C      1  0.4617650000000  0.5243140000000  0.5634880000000 1.0
C      1  0.4440800000000  0.4743400000000  0.5240340000000 1.0
C      1  0.5548870000000  0.4460450000000  0.4382120000000 1.0
C      1  0.4913940000000  0.5483500000000  0.4205940000000 1.0
C      1  0.4751110000000  0.4515560000000  0.4931060000000 1.0
C      1  0.4785800000000  0.5974380000000  0.4992540000000 1.0
C      1  0.4779920000000  0.4534080000000  0.5785750000000 1.0
C      1  0.5255950000000  0.4581820000000  0.5915940000000 1.0
C      1  0.5634960000000  0.5192160000000  0.4432990000000 1.0
C      1  0.4581280000000  0.4572210000000  0.4275730000000 1.0
C      1  0.4023250000000  0.4584090000000  0.5112270000000 1.0
C      1  0.5396360000000  0.5104720000000  0.4626170000000 1.0
C      1  0.4783970000000  0.4191930000000  0.4465260000000 1.0
C      1  0.5062010000000  0.4459360000000  0.5723880000000 1.0
C      1  0.5149690000000  0.4977860000000  0.4982040000000 1.0
C      1  0.4592580000000  0.4418060000000  0.5633980000000 1.0
C      1  0.4808520000000  0.4383450000000  0.4247720000000 1.0
C      1  0.5519510000000  0.4937880000000  0.5308930000000 1.0
C      1  0.4906180000000  0.4136070000000  0.5400630000000 1.0
C      1  0.5981130000000  0.5345510000000  0.5205000000000 1.0
C      1  0.4210280000000  0.5226450000000  0.5095700000000 1.0
C      1  0.5004010000000  0.4157530000000  0.4658100000000 1.0
C      1  0.4722450000000  0.5027990000000  0.4131550000000 1.0
C      1  0.4864810000000  0.5749580000000  0.5429280000000 1.0
C      1  0.4833170000000  0.5697470000000  0.4388290000000 1.0
C      1  0.5078830000000  0.4429110000000  0.4171440000000 1.0
C      1  0.4035570000000  0.5072550000000  0.5284620000000 1.0
C      1  0.4930580000000  0.5084640000000  0.4543590000000 1.0
C      1  0.4189180000000  0.5582020000000  0.4735500000000 1.0
C      1  0.5107560000000  0.5314940000000  0.5347520000000 1.0
C      1  0.3978360000000  0.4825150000000  0.5189950000000 1.0
C      1  0.4717930000000  0.5315050000000  0.4883930000000 1.0
C      1  0.5363210000000  0.4879270000000  0.5576660000000 1.0
C      1  0.5804830000000  0.4978220000000  0.4537600000000 1.0
C      1  0.5137840000000  0.4662530000000  0.4611650000000 1.0
C      1  0.4649810000000  0.4707660000000  0.4729180000000 1.0
C      1  0.4357210000000  0.5438730000000  0.5268560000000 1.0
C      1  0.5030030000000  0.4434610000000  0.4808770000000 1.0
C      1  0.5257400000000  0.5734000000000  0.4670140000000 1.0
C      1  0.5372000000000  0.5879140000000  0.4899120000000 1.0
C      1  0.5154230000000  0.5269090000000  0.4542480000000 1.0
C      1  0.5174110000000  0.4747140000000  0.6111400000000 1.0
C      1  0.4504880000000  0.4505750000000  0.4538590000000 1.0
C      1  0.4649090000000  0.5320640000000  0.5325180000000 1.0
C      1  0.5812170000000  0.4796970000000  0.4980000000000 1.0
C      1  0.5421530000000  0.4792990000000  0.4626420000000 1.0
C      1  0.4986070000000  0.4943190000000  0.4232170000000 1.0
C      1  0.5770640000000  0.4760740000000  0.5267600000000 1.0
C      1  0.5058050000000  0.4672720000000  0.4311470000000 1.0
C      1  0.5645560000000  0.5789590000000  0.4915370000000 1.0
C      1  0.5392740000000  0.5417760000000  0.5298470000000 1.0
C      1  0.4285840000000  0.4497280000000  0.5159980000000 1.0
C      1  0.5335900000000  0.5210170000000  0.4907190000000 1.0
C      1  0.4078890000000  0.5355160000000  0.4866730000000 1.0
C      1  0.4471720000000  0.5609040000000  0.5673590000000 1.0
C      1  0.5570830000000  0.4433170000000  0.5582940000000 1.0
C      1  0.4565080000000  0.5774550000000  0.5464900000000 1.0
C      1  0.5552400000000  0.4683640000000  0.4878040000000 1.0
C      1  0.5135360000000  0.4672110000000  0.5477070000000 1.0
C      1  0.4915010000000  0.5494610000000  0.4954710000000 1.0
C      1  0.4709460000000  0.5490500000000  0.5777480000000 1.0
C      1  0.5618010000000  0.4386870000000  0.4875180000000 1.0
C      1  0.4340960000000  0.4952330000000  0.4438500000000 1.0
C      1  0.4715470000000  0.4611770000000  0.5223810000000 1.0
C      1  0.5501710000000  0.5694580000000  0.4498080000000 1.0
C      1  0.4691500000000  0.5311680000000  0.4164000000000 1.0
C      1  0.5162860000000  0.5448610000000  0.4798650000000 1.0
C      1  0.4554750000000  0.4242570000000  0.4620380000000 1.0
C      1  0.4192850000000  0.5100390000000  0.5527010000000 1.0
C      1  0.5675370000000  0.5484580000000  0.4448300000000 1.0
C      1  0.5241330000000  0.4563460000000  0.5231210000000 1.0
C      1  0.4848770000000  0.4039110000000  0.4907640000000 1.0
C      1  0.5602530000000  0.4766880000000  0.4395680000000 1.0
C      1  0.4431700000000  0.4987650000000  0.5026850000000 1.0
C      1  0.5466840000000  0.5459240000000  0.5580480000000 1.0
C      1  0.5185460000000  0.5359470000000  0.5661090000000 1.0
C      1  0.4316910000000  0.5368990000000  0.5560000000000 1.0
C      1  0.4990120000000  0.4011950000000  0.5149750000000 1.0
C      1  0.5118730000000  0.4210720000000  0.5586570000000 1.0
C      1  0.4666160000000  0.5192230000000  0.4633630000000 1.0
C      1  0.4970820000000  0.5042050000000  0.5207660000000 1.0
C      1  0.5429130000000  0.5714830000000  0.5283710000000 1.0
C      1  0.5161730000000  0.5355130000000  0.4250870000000 1.0
C      1  0.5483000000000  0.4645050000000  0.5741980000000 1.0
C      1  0.4960710000000  0.5581060000000  0.5690280000000 1.0
C      1  0.5404600000000  0.4202490000000  0.5522540000000 1.0
C      1  0.4609050000000  0.4208230000000  0.4905330000000 1.0
C      1  0.5245750000000  0.5899630000000  0.5151630000000 1.0
C      1  0.4522730000000  0.5843230000000  0.4973600000000 1.0
C      1  0.5498390000000  0.5014220000000  0.4234740000000 1.0
C      1  0.5354130000000  0.4780190000000  0.5089400000000 1.0
C      1  0.4255510000000  0.5226640000000  0.4401250000000 1.0
C      1  0.5699020000000  0.5731890000000  0.5185970000000 1.0
C      1  0.4773720000000  0.4812330000000  0.5855880000000 1.0
C      1  0.4691550000000  0.5131620000000  0.5111420000000 1.0
C      1  0.5849490000000  0.5541590000000  0.5348030000000 1.0
C      1  0.5667410000000  0.4291510000000  0.5144390000000 1.0
C      1  0.4889660000000  0.5494690000000  0.5265880000000 1.0
C      1  0.5233760000000  0.5090380000000  0.4154580000000 1.0
C      1  0.5310330000000  0.4309070000000  0.4281740000000 1.0
C      1  0.4378190000000  0.4874690000000  0.5529720000000 1.0
C      1  0.5173120000000  0.4364440000000  0.5046630000000 1.0
C      1  0.4480600000000  0.4944240000000  0.4721260000000 1.0
C      1  0.5284840000000  0.4156870000000  0.4527750000000 1.0
C      1  0.5541560000000  0.5212520000000  0.5137110000000 1.0
C      1  0.4100560000000  0.5353480000000  0.4591830000000 1.0
C      1  0.5888040000000  0.5002620000000  0.4815290000000 1.0
C      1  0.5257560000000  0.4087530000000  0.5096850000000 1.0
END
