TITL C-77360-1976-6 0.0865777717190947 125000 -94.8582104320492 0 0 15 (C1) n - 1
REM
REM in /rds/project/t2_vol4/rds-t2-cs072/BORA/CARBON/from-Arr/AIRSS/Generating-Clusters/GAP-ML-2020/Only-C1/SD-CG/HFTN-CG
REM
REM
REM
REM
REM
REM ./C.cell (11c1c37f851c82e70ff6c80c92926a4b)
REM AIRSS Version 0.9.1 bugfix July 2018 build 013d7b7c2542+ Fri, 06 Jul 2018 19:26:36 +0100
REM compiler GCC version 9.3.0
REM options -cpp -mtune=generic -march=x86-64 -g -O0
REM seed -781860939 -1636309160 -1487358020 -553953099 -280030437 -1244753279 157227146 133116489 1306074184 1114735381 -361435390 -991970991 -2007568576 -412359342 -1355309014 1604694861 -1028256465 -1014788532 755138488 96082763 2123528076 130213111 1376417617 1226015881 -1468637104 861170922 1782996626 -1574299091 -1013383475 909957599 1331211473 1274491471 -998948168
REM
CELL 1.54180   50.00000   50.00000   50.00000   90.00000   90.00000   90.00000
LATT -1
SFAC C  
C      1  0.5023210000000  0.4977780000000  0.5413460000000 1.0
C      1  0.4545000000000  0.4690500000000  0.5068170000000 1.0
C      1  0.5251070000000  0.5145530000000  0.5367150000000 1.0
C      1  0.5008240000000  0.4718900000000  0.5276390000000 1.0
C      1  0.5111410000000  0.5458570000000  0.4725210000000 1.0
C      1  0.5185920000000  0.5433450000000  0.4970460000000 1.0
C      1  0.4572280000000  0.5166070000000  0.5290310000000 1.0
C      1  0.5253450000000  0.5339540000000  0.5201670000000 1.0
C      1  0.4787350000000  0.5117290000000  0.5416470000000 1.0
C      1  0.5035700000000  0.5323640000000  0.4512510000000 1.0
C      1  0.4789600000000  0.4660880000000  0.5151480000000 1.0
C      1  0.5024580000000  0.5060830000000  0.4481310000000 1.0
C      1  0.5130870000000  0.4620730000000  0.4700050000000 1.0
C      1  0.5046820000000  0.4817990000000  0.4549150000000 1.0
C      1  0.5234500000000  0.4468300000000  0.4876200000000 1.0
END
