TITL C-77368-1633-9 2.47522316745855 125000 -363.053553969327 0 0 54 (C1) n - 1
REM
REM in /rds/project/t2_vol4/rds-t2-cs072/BORA/CARBON/from-Arr/AIRSS/Generating-Clusters/GAP-ML-2020/Only-C1/SD-CG/HFTN-CG
REM
REM
REM
REM
REM
REM ./C.cell (11c1c37f851c82e70ff6c80c92926a4b)
REM AIRSS Version 0.9.1 bugfix July 2018 build 013d7b7c2542+ Fri, 06 Jul 2018 19:26:36 +0100
REM compiler GCC version 9.3.0
REM options -cpp -mtune=generic -march=x86-64 -g -O0
REM seed -1547664126 1934744990 1912939211 -674700862 -780829281 -521408577 -187892199 364909517 -1579344160 1874315213 1938687320 -397559481 2068802370 -1129923935 -1373145108 853087663 2064563266 660662237 108417444 2132062628 1004607318 1932700286 -1055691543 929947016 -607513656 -1864916770 56107612 -146080216 -1756530864 342304858 1570317349 -1627955406 2081820774
REM
CELL 1.54180   50.00000   50.00000   50.00000   90.00000   90.00000   90.00000
LATT -1
SFAC C  
C      1  0.4666650000000  0.5358280000000  0.4669320000000 1.0
C      1  0.5505550000000  0.4795580000000  0.4981150000000 1.0
C      1  0.4496380000000  0.5458050000000  0.5372810000000 1.0
C      1  0.4519360000000  0.4866820000000  0.5137900000000 1.0
C      1  0.4670440000000  0.4523760000000  0.5538340000000 1.0
C      1  0.5069660000000  0.5051950000000  0.4456870000000 1.0
C      1  0.4775490000000  0.5503050000000  0.4464560000000 1.0
C      1  0.5472870000000  0.5241060000000  0.4399810000000 1.0
C      1  0.5256200000000  0.5480120000000  0.5175670000000 1.0
C      1  0.5193830000000  0.5227030000000  0.4285830000000 1.0
C      1  0.5255380000000  0.4651300000000  0.4641830000000 1.0
C      1  0.4564030000000  0.4502750000000  0.4627220000000 1.0
C      1  0.4607880000000  0.5071710000000  0.4646770000000 1.0
C      1  0.5354070000000  0.4575140000000  0.5079640000000 1.0
C      1  0.5348190000000  0.5577650000000  0.4932530000000 1.0
C      1  0.4776090000000  0.5359450000000  0.4945670000000 1.0
C      1  0.5581790000000  0.5055030000000  0.4599630000000 1.0
C      1  0.4379520000000  0.4669550000000  0.4733160000000 1.0
C      1  0.5038610000000  0.5486720000000  0.4403180000000 1.0
C      1  0.4951160000000  0.4778010000000  0.5252830000000 1.0
C      1  0.5224980000000  0.4467220000000  0.4856150000000 1.0
C      1  0.4831910000000  0.4906260000000  0.4790330000000 1.0
C      1  0.4939780000000  0.4933330000000  0.5704160000000 1.0
C      1  0.4903650000000  0.5206980000000  0.5648640000000 1.0
C      1  0.4364970000000  0.4947580000000  0.4688900000000 1.0
C      1  0.4746910000000  0.4344570000000  0.5369570000000 1.0
C      1  0.4963490000000  0.5135930000000  0.4925590000000 1.0
C      1  0.5634100000000  0.5204390000000  0.4849500000000 1.0
C      1  0.5592720000000  0.5476870000000  0.4811420000000 1.0
C      1  0.4827320000000  0.5184600000000  0.5359370000000 1.0
C      1  0.5490050000000  0.5478160000000  0.4541480000000 1.0
C      1  0.5216500000000  0.5509460000000  0.4644650000000 1.0
C      1  0.4755410000000  0.5458110000000  0.5231530000000 1.0
C      1  0.4754780000000  0.4747440000000  0.5035680000000 1.0
C      1  0.5215280000000  0.4907380000000  0.5653150000000 1.0
C      1  0.5043290000000  0.5053220000000  0.5201790000000 1.0
C      1  0.5485530000000  0.4807420000000  0.4696870000000 1.0
C      1  0.4399240000000  0.5235390000000  0.5458170000000 1.0
C      1  0.5011170000000  0.4781440000000  0.4559740000000 1.0
C      1  0.4760050000000  0.4791170000000  0.5515490000000 1.0
C      1  0.4319010000000  0.4833510000000  0.4952260000000 1.0
C      1  0.4989420000000  0.4330730000000  0.4921670000000 1.0
C      1  0.5035750000000  0.5530220000000  0.5347000000000 1.0
C      1  0.4969010000000  0.4336630000000  0.5213570000000 1.0
C      1  0.5168760000000  0.4558360000000  0.5305700000000 1.0
C      1  0.5541410000000  0.5061350000000  0.5078030000000 1.0
C      1  0.4804210000000  0.4372590000000  0.4713900000000 1.0
C      1  0.5113060000000  0.5383370000000  0.5602550000000 1.0
C      1  0.5246580000000  0.4652180000000  0.5563390000000 1.0
C      1  0.4810390000000  0.4571080000000  0.4510010000000 1.0
C      1  0.5310540000000  0.5176670000000  0.5556050000000 1.0
C      1  0.5146850000000  0.5201470000000  0.4712020000000 1.0
C      1  0.5330080000000  0.5180220000000  0.5257310000000 1.0
C      1  0.4570590000000  0.5001650000000  0.5379680000000 1.0
END
