TITL C-77367-1686-6 -105.722500977083 125000 -283.16655031575 0 0 43 (C1) n - 1
REM
REM in /rds/project/t2_vol4/rds-t2-cs072/BORA/CARBON/from-Arr/AIRSS/Generating-Clusters/GAP-ML-2020/Only-C1/SD-CG/HFTN-CG
REM
REM
REM
REM
REM
REM ./C.cell (11c1c37f851c82e70ff6c80c92926a4b)
REM AIRSS Version 0.9.1 bugfix July 2018 build 013d7b7c2542+ Fri, 06 Jul 2018 19:26:36 +0100
REM compiler GCC version 9.3.0
REM options -cpp -mtune=generic -march=x86-64 -g -O0
REM seed -1783092741 -783641614 -1791127942 1485183286 -97566723 518436688 404539363 154438279 1733776479 154631792 404618399 894840421 1167020772 1804246808 -1212273529 -36539224 -1111753537 -296061044 1726733816 -1104063944 -1490158318 -1925831531 98391947 -1433542474 1202937946 -760072577 742900505 1215032530 -1351999534 1041600507 764768306 1031581541 -1578478573
REM
CELL 1.54180   50.00000   50.00000   50.00000   90.00000   90.00000   90.00000
LATT -1
SFAC C  
C      1  0.4441410000000  0.5290300000000  0.4999440000000 1.0
C      1  0.4705910000000  0.5365260000000  0.4844620000000 1.0
C      1  0.4883800000000  0.5075200000000  0.5220130000000 1.0
C      1  0.5239530000000  0.5224630000000  0.4429820000000 1.0
C      1  0.5344980000000  0.4752900000000  0.5677310000000 1.0
C      1  0.4630900000000  0.4667960000000  0.5065990000000 1.0
C      1  0.4967600000000  0.4374610000000  0.4849940000000 1.0
C      1  0.5151940000000  0.5631530000000  0.5019720000000 1.0
C      1  0.5148210000000  0.5085270000000  0.4864200000000 1.0
C      1  0.4727840000000  0.4312920000000  0.4743220000000 1.0
C      1  0.4460540000000  0.4815700000000  0.5242460000000 1.0
C      1  0.4650210000000  0.4585040000000  0.4779640000000 1.0
C      1  0.4871840000000  0.5439690000000  0.4621670000000 1.0
C      1  0.4628240000000  0.4850750000000  0.5490390000000 1.0
C      1  0.5119280000000  0.4883370000000  0.5565470000000 1.0
C      1  0.5149420000000  0.5107070000000  0.5356520000000 1.0
C      1  0.4942970000000  0.5218560000000  0.4456420000000 1.0
C      1  0.4801900000000  0.4792450000000  0.4623500000000 1.0
C      1  0.4430370000000  0.5101760000000  0.5194640000000 1.0
C      1  0.4716540000000  0.5594800000000  0.5262990000000 1.0
C      1  0.4926080000000  0.5233590000000  0.4988460000000 1.0
C      1  0.4873570000000  0.4718400000000  0.5505960000000 1.0
C      1  0.5446220000000  0.4693810000000  0.5447350000000 1.0
C      1  0.5365530000000  0.4618730000000  0.4557050000000 1.0
C      1  0.5118780000000  0.5536930000000  0.4752220000000 1.0
C      1  0.5360480000000  0.5470520000000  0.5143930000000 1.0
C      1  0.5066300000000  0.4385870000000  0.5120990000000 1.0
C      1  0.5027150000000  0.4825500000000  0.4826000000000 1.0
C      1  0.4658980000000  0.5120360000000  0.5396830000000 1.0
C      1  0.5339430000000  0.5024980000000  0.5102840000000 1.0
C      1  0.4893830000000  0.4567150000000  0.5258210000000 1.0
C      1  0.5435940000000  0.4741450000000  0.5172810000000 1.0
C      1  0.4805420000000  0.4982280000000  0.4432670000000 1.0
C      1  0.5466270000000  0.5265550000000  0.4984740000000 1.0
C      1  0.4980830000000  0.5586650000000  0.5270530000000 1.0
C      1  0.4896090000000  0.4814270000000  0.5088340000000 1.0
C      1  0.5388540000000  0.5051100000000  0.4273480000000 1.0
C      1  0.5191170000000  0.5402420000000  0.5371490000000 1.0
C      1  0.5358870000000  0.4838340000000  0.4423940000000 1.0
C      1  0.5306700000000  0.5309110000000  0.4708570000000 1.0
C      1  0.4571060000000  0.5531990000000  0.5038250000000 1.0
C      1  0.5197940000000  0.4582180000000  0.4780530000000 1.0
C      1  0.5311370000000  0.4529070000000  0.5046770000000 1.0
END
