TITL C-77371-1639-1 -1.05236018710818 125000 -1009.37409150788 0 0 145 (C1) n - 1
REM
REM in /rds/project/t2_vol4/rds-t2-cs072/BORA/CARBON/from-Arr/AIRSS/Generating-Clusters/GAP-ML-2020/Only-C1/SD-CG/HFTN-CG
REM
REM
REM
REM
REM
REM ./C.cell (11c1c37f851c82e70ff6c80c92926a4b)
REM AIRSS Version 0.9.1 bugfix July 2018 build 013d7b7c2542+ Fri, 06 Jul 2018 19:26:36 +0100
REM compiler GCC version 9.3.0
REM options -cpp -mtune=generic -march=x86-64 -g -O0
REM seed -1592295286 1225256849 -815397177 576210997 -1498695717 260956814 1103152422 1977425543 -275418880 680085515 -1186874253 1949808037 -1464556710 288935514 787937799 2116098234 -173025653 -507567400 916569522 -1728216710 -1685112529 -1280643589 -193613844 -1091148560 387532082 -223072766 2001835397 -1178406565 -1058425111 -374055831 794325573 -190211132 -1144157924
REM
CELL 1.54180   50.00000   50.00000   50.00000   90.00000   90.00000   90.00000
LATT -1
SFAC C  
C      1  0.4949890000000  0.5682210000000  0.4567490000000 1.0
C      1  0.5336320000000  0.4923750000000  0.5912630000000 1.0
C      1  0.4977050000000  0.4612010000000  0.5330360000000 1.0
C      1  0.4534890000000  0.5153840000000  0.4358610000000 1.0
C      1  0.4791850000000  0.5021630000000  0.5583890000000 1.0
C      1  0.4677670000000  0.4077740000000  0.5300750000000 1.0
C      1  0.4789290000000  0.4452960000000  0.4933530000000 1.0
C      1  0.4939050000000  0.4674090000000  0.4017780000000 1.0
C      1  0.5932500000000  0.4374420000000  0.5009110000000 1.0
C      1  0.5051500000000  0.5142050000000  0.5611810000000 1.0
C      1  0.4421330000000  0.5084570000000  0.5000740000000 1.0
C      1  0.4454780000000  0.4744650000000  0.4066150000000 1.0
C      1  0.4717470000000  0.4941680000000  0.5868220000000 1.0
C      1  0.4787000000000  0.4645630000000  0.5884300000000 1.0
C      1  0.4917920000000  0.4035840000000  0.4924960000000 1.0
C      1  0.5603470000000  0.5291990000000  0.5787140000000 1.0
C      1  0.5402150000000  0.5823700000000  0.4706460000000 1.0
C      1  0.5198460000000  0.5933010000000  0.5384720000000 1.0
C      1  0.4087770000000  0.5434480000000  0.4675690000000 1.0
C      1  0.4137200000000  0.5011060000000  0.5124850000000 1.0
C      1  0.4953250000000  0.4357710000000  0.5525760000000 1.0
C      1  0.5218930000000  0.4738860000000  0.4071400000000 1.0
C      1  0.4787290000000  0.5031130000000  0.4227690000000 1.0
C      1  0.5619460000000  0.4114440000000  0.5183440000000 1.0
C      1  0.5862210000000  0.4105210000000  0.5103540000000 1.0
C      1  0.3958300000000  0.5010640000000  0.4878480000000 1.0
C      1  0.5901330000000  0.4556590000000  0.5229910000000 1.0
C      1  0.5258710000000  0.5642370000000  0.5778050000000 1.0
C      1  0.5519880000000  0.5192760000000  0.4232120000000 1.0
C      1  0.5161400000000  0.4132030000000  0.4813130000000 1.0
C      1  0.5535730000000  0.5625280000000  0.4548990000000 1.0
C      1  0.5389360000000  0.4330670000000  0.4411340000000 1.0
C      1  0.4262210000000  0.4956810000000  0.5597430000000 1.0
C      1  0.5645060000000  0.5696080000000  0.5126650000000 1.0
C      1  0.5014360000000  0.5439830000000  0.5231110000000 1.0
C      1  0.4175790000000  0.4813820000000  0.5363580000000 1.0
C      1  0.5016950000000  0.4517170000000  0.5784950000000 1.0
C      1  0.5108380000000  0.5435900000000  0.4246820000000 1.0
C      1  0.4759380000000  0.4814270000000  0.5365560000000 1.0
C      1  0.5556660000000  0.5052790000000  0.5404790000000 1.0
C      1  0.5136580000000  0.4797510000000  0.4893800000000 1.0
C      1  0.5371410000000  0.5757710000000  0.5537290000000 1.0
C      1  0.5851390000000  0.5254900000000  0.4564050000000 1.0
C      1  0.5118420000000  0.5877650000000  0.4693080000000 1.0
C      1  0.5958920000000  0.4764690000000  0.5445190000000 1.0
C      1  0.4230880000000  0.4339310000000  0.4644440000000 1.0
C      1  0.4583630000000  0.4772880000000  0.4639800000000 1.0
C      1  0.4428620000000  0.4509430000000  0.4235040000000 1.0
C      1  0.4268160000000  0.5520670000000  0.5232220000000 1.0
C      1  0.4066000000000  0.5316200000000  0.5149950000000 1.0
C      1  0.5582200000000  0.5616670000000  0.5397330000000 1.0
C      1  0.5169400000000  0.4188510000000  0.4538940000000 1.0
C      1  0.4545580000000  0.5066330000000  0.4694280000000 1.0
C      1  0.4830710000000  0.4785930000000  0.4457960000000 1.0
C      1  0.4084830000000  0.5039760000000  0.4394950000000 1.0
C      1  0.5627930000000  0.4643040000000  0.5168080000000 1.0
C      1  0.4712040000000  0.4838180000000  0.4005570000000 1.0
C      1  0.4351050000000  0.5586690000000  0.4670590000000 1.0
C      1  0.4825540000000  0.5159480000000  0.4759580000000 1.0
C      1  0.5246270000000  0.4507460000000  0.4243400000000 1.0
C      1  0.5048950000000  0.5171800000000  0.4173380000000 1.0
C      1  0.5268740000000  0.5016610000000  0.5343810000000 1.0
C      1  0.5266350000000  0.5994810000000  0.5117380000000 1.0
C      1  0.5969600000000  0.4998700000000  0.5297730000000 1.0
C      1  0.5677660000000  0.4939680000000  0.5166000000000 1.0
C      1  0.5042460000000  0.4543840000000  0.5029510000000 1.0
C      1  0.4875330000000  0.5468520000000  0.4769880000000 1.0
C      1  0.5685360000000  0.5346640000000  0.5499280000000 1.0
C      1  0.4976970000000  0.5661910000000  0.5813000000000 1.0
C      1  0.5269510000000  0.4674710000000  0.5765770000000 1.0
C      1  0.4862130000000  0.5193180000000  0.5989360000000 1.0
C      1  0.4285420000000  0.5780630000000  0.5090770000000 1.0
C      1  0.5124910000000  0.5469050000000  0.4973860000000 1.0
C      1  0.4921890000000  0.4259220000000  0.4413240000000 1.0
C      1  0.5769510000000  0.5113710000000  0.4330130000000 1.0
C      1  0.4590700000000  0.4654910000000  0.4931120000000 1.0
C      1  0.4425600000000  0.4287680000000  0.4415820000000 1.0
C      1  0.4747650000000  0.5321730000000  0.5226370000000 1.0
C      1  0.4347060000000  0.5224820000000  0.5568030000000 1.0
C      1  0.4804630000000  0.5778470000000  0.5615250000000 1.0
C      1  0.3990200000000  0.4867180000000  0.4633840000000 1.0
C      1  0.4126790000000  0.5317410000000  0.4425480000000 1.0
C      1  0.5038570000000  0.5993510000000  0.4946000000000 1.0
C      1  0.4115650000000  0.4607350000000  0.4588010000000 1.0
C      1  0.5286980000000  0.4352520000000  0.4978790000000 1.0
C      1  0.4946170000000  0.4530040000000  0.4294630000000 1.0
C      1  0.4448870000000  0.4434040000000  0.5553630000000 1.0
C      1  0.4499950000000  0.5374470000000  0.5071460000000 1.0
C      1  0.5156430000000  0.5162880000000  0.5903070000000 1.0
C      1  0.4640340000000  0.5262340000000  0.5502580000000 1.0
C      1  0.5007310000000  0.4927250000000  0.4644010000000 1.0
C      1  0.5822570000000  0.5542600000000  0.4955630000000 1.0
C      1  0.4927510000000  0.4019940000000  0.5205870000000 1.0
C      1  0.4329830000000  0.4945400000000  0.4268930000000 1.0
C      1  0.4600900000000  0.5552900000000  0.4862430000000 1.0
C      1  0.5848080000000  0.4831070000000  0.4383340000000 1.0
C      1  0.4671230000000  0.4188210000000  0.4521860000000 1.0
C      1  0.5414420000000  0.4803360000000  0.4778120000000 1.0
C      1  0.4309050000000  0.5851970000000  0.4834430000000 1.0
C      1  0.4431550000000  0.4850380000000  0.5798480000000 1.0
C      1  0.5483640000000  0.5876640000000  0.4981980000000 1.0
C      1  0.5373320000000  0.4254300000000  0.5253720000000 1.0
C      1  0.5844120000000  0.5043880000000  0.4758280000000 1.0
C      1  0.5956200000000  0.5275430000000  0.5356170000000 1.0
C      1  0.5313680000000  0.5246270000000  0.4904000000000 1.0
C      1  0.5985220000000  0.5391360000000  0.5113740000000 1.0
C      1  0.5585330000000  0.5032800000000  0.4909030000000 1.0
C      1  0.4906350000000  0.5929670000000  0.5394100000000 1.0
C      1  0.5523350000000  0.4549730000000  0.4897420000000 1.0
C      1  0.5376420000000  0.5417390000000  0.4388500000000 1.0
C      1  0.5450130000000  0.4527350000000  0.5376420000000 1.0
C      1  0.5697520000000  0.4828290000000  0.5624140000000 1.0
C      1  0.5770150000000  0.5507110000000  0.4665640000000 1.0
C      1  0.5356930000000  0.5395660000000  0.5877230000000 1.0
C      1  0.5221980000000  0.4726790000000  0.5436090000000 1.0
C      1  0.5891620000000  0.4778060000000  0.4654030000000 1.0
C      1  0.4667440000000  0.4257380000000  0.5500100000000 1.0
C      1  0.5600410000000  0.5004710000000  0.5841610000000 1.0
C      1  0.4804890000000  0.5959280000000  0.5111400000000 1.0
C      1  0.4608210000000  0.5551770000000  0.5651410000000 1.0
C      1  0.4516270000000  0.4583100000000  0.5784860000000 1.0
C      1  0.4674390000000  0.4184970000000  0.4813480000000 1.0
C      1  0.5152410000000  0.5031420000000  0.5066600000000 1.0
C      1  0.4359530000000  0.4479610000000  0.5064000000000 1.0
C      1  0.5737970000000  0.4596750000000  0.4296160000000 1.0
C      1  0.5662830000000  0.4403070000000  0.4474640000000 1.0
C      1  0.5782750000000  0.4499670000000  0.4750640000000 1.0
C      1  0.5281840000000  0.4957730000000  0.4533080000000 1.0
C      1  0.4324380000000  0.5503340000000  0.5525830000000 1.0
C      1  0.4640640000000  0.4891980000000  0.5112460000000 1.0
C      1  0.4286340000000  0.4548380000000  0.5335470000000 1.0
C      1  0.4881550000000  0.5603560000000  0.4303000000000 1.0
C      1  0.5529160000000  0.4595590000000  0.5649240000000 1.0
C      1  0.4405910000000  0.5439090000000  0.4375670000000 1.0
C      1  0.4622170000000  0.5542030000000  0.4238710000000 1.0
C      1  0.5283910000000  0.4999130000000  0.4197710000000 1.0
C      1  0.4358300000000  0.4698040000000  0.4453780000000 1.0
C      1  0.4852410000000  0.5092580000000  0.5062400000000 1.0
C      1  0.4569110000000  0.5833130000000  0.4991140000000 1.0
C      1  0.4362330000000  0.4260440000000  0.4878610000000 1.0
C      1  0.5163930000000  0.5284170000000  0.5413730000000 1.0
C      1  0.4784720000000  0.5452960000000  0.5888940000000 1.0
C      1  0.5301110000000  0.5225540000000  0.4615420000000 1.0
C      1  0.5115630000000  0.4154330000000  0.5374850000000 1.0
C      1  0.3958850000000  0.5301420000000  0.4884830000000 1.0
END
