TITL C-77345-1681-1 -0.0855115112582714 125000 -685.13961424099 0 0 98 (C1) n - 1
REM
REM in /rds/project/t2_vol4/rds-t2-cs072/BORA/CARBON/from-Arr/AIRSS/Generating-Clusters/GAP-ML-2020/Only-C1/SD-CG/HFTN-CG
REM
REM
REM
REM
REM
REM ./C.cell (11c1c37f851c82e70ff6c80c92926a4b)
REM AIRSS Version 0.9.1 bugfix July 2018 build 013d7b7c2542+ Fri, 06 Jul 2018 19:26:36 +0100
REM compiler GCC version 9.3.0
REM options -cpp -mtune=generic -march=x86-64 -g -O0
REM seed 1113703807 1354270603 -478927320 200553503 1589852061 2103803217 -1188690534 -117719833 -1344563858 864252387 1975930978 -1026687412 271715648 -1177749116 939288148 -565280156 1364538072 -383780114 -1270095506 -1076486159 1183836106 -1113937187 172925704 303237951 -1271686738 -967643964 1509800141 661026096 -353845953 -1673966801 -813304266 -942425356 -1403894650
REM
CELL 1.54180   50.00000   50.00000   50.00000   90.00000   90.00000   90.00000
LATT -1
SFAC C  
C      1  0.5347030000000  0.4605930000000  0.4211580000000 1.0
C      1  0.4438890000000  0.4732390000000  0.4697430000000 1.0
C      1  0.5527410000000  0.5413850000000  0.4566010000000 1.0
C      1  0.5129080000000  0.5450220000000  0.5608820000000 1.0
C      1  0.4854500000000  0.5022800000000  0.5709580000000 1.0
C      1  0.5039040000000  0.5856880000000  0.4277930000000 1.0
C      1  0.5001670000000  0.5821020000000  0.4916500000000 1.0
C      1  0.4759730000000  0.4233200000000  0.4827830000000 1.0
C      1  0.4652160000000  0.5200380000000  0.5780370000000 1.0
C      1  0.5070950000000  0.4603630000000  0.5764630000000 1.0
C      1  0.4581560000000  0.5290490000000  0.4408150000000 1.0
C      1  0.4991620000000  0.4340970000000  0.5676970000000 1.0
C      1  0.5216600000000  0.5664430000000  0.4353620000000 1.0
C      1  0.4872740000000  0.5874510000000  0.5179040000000 1.0
C      1  0.4633000000000  0.5701950000000  0.5144970000000 1.0
C      1  0.4691070000000  0.4693450000000  0.5274140000000 1.0
C      1  0.5190500000000  0.4744340000000  0.5092550000000 1.0
C      1  0.4373030000000  0.5445830000000  0.4857200000000 1.0
C      1  0.4821310000000  0.5009690000000  0.4931360000000 1.0
C      1  0.4373610000000  0.4816050000000  0.5590090000000 1.0
C      1  0.5366320000000  0.5013780000000  0.5123420000000 1.0
C      1  0.4260050000000  0.5280510000000  0.5591310000000 1.0
C      1  0.4318260000000  0.5371490000000  0.5139980000000 1.0
C      1  0.5603970000000  0.5506320000000  0.5267880000000 1.0
C      1  0.5841590000000  0.4686070000000  0.5178780000000 1.0
C      1  0.5286830000000  0.5576350000000  0.4624370000000 1.0
C      1  0.5648120000000  0.5451590000000  0.5005860000000 1.0
C      1  0.4573820000000  0.5001220000000  0.4723600000000 1.0
C      1  0.5031970000000  0.4174630000000  0.4892790000000 1.0
C      1  0.4842210000000  0.5702090000000  0.4402860000000 1.0
C      1  0.5046020000000  0.4819040000000  0.4841360000000 1.0
C      1  0.5481860000000  0.5030420000000  0.4838620000000 1.0
C      1  0.4416410000000  0.5523430000000  0.5569380000000 1.0
C      1  0.4663290000000  0.5484150000000  0.5703700000000 1.0
C      1  0.4577200000000  0.5646240000000  0.4869430000000 1.0
C      1  0.4726380000000  0.4978940000000  0.5213800000000 1.0
C      1  0.5006870000000  0.4343490000000  0.4456540000000 1.0
C      1  0.4836660000000  0.4747180000000  0.5752010000000 1.0
C      1  0.5548320000000  0.5016710000000  0.4280930000000 1.0
C      1  0.5527840000000  0.4563370000000  0.4420630000000 1.0
C      1  0.5459470000000  0.4384690000000  0.4637460000000 1.0
C      1  0.5373740000000  0.4998940000000  0.5642460000000 1.0
C      1  0.4407660000000  0.5611800000000  0.5301090000000 1.0
C      1  0.5033820000000  0.4146560000000  0.5185730000000 1.0
C      1  0.5034510000000  0.5254650000000  0.4209010000000 1.0
C      1  0.5020710000000  0.5153920000000  0.4505400000000 1.0
C      1  0.5582330000000  0.4457460000000  0.4879500000000 1.0
C      1  0.5538810000000  0.5023490000000  0.5385190000000 1.0
C      1  0.5661050000000  0.4817830000000  0.4464900000000 1.0
C      1  0.5162150000000  0.4132710000000  0.5652540000000 1.0
C      1  0.5438070000000  0.4379030000000  0.5350200000000 1.0
C      1  0.5699680000000  0.4766630000000  0.5393590000000 1.0
C      1  0.4587160000000  0.5234690000000  0.5233390000000 1.0
C      1  0.4992480000000  0.4637810000000  0.5272260000000 1.0
C      1  0.4398170000000  0.5076320000000  0.5730670000000 1.0
C      1  0.5194560000000  0.4262450000000  0.4658590000000 1.0
C      1  0.4622370000000  0.4626210000000  0.5575170000000 1.0
C      1  0.4430750000000  0.5269850000000  0.4647990000000 1.0
C      1  0.4734260000000  0.4335870000000  0.5547430000000 1.0
C      1  0.5573530000000  0.5320480000000  0.5470900000000 1.0
C      1  0.5236860000000  0.4185640000000  0.5393480000000 1.0
C      1  0.5367790000000  0.5531530000000  0.5082470000000 1.0
C      1  0.5710790000000  0.4871280000000  0.4737150000000 1.0
C      1  0.4176630000000  0.4719600000000  0.5140350000000 1.0
C      1  0.4922160000000  0.5061680000000  0.5422210000000 1.0
C      1  0.5327850000000  0.4723530000000  0.5704420000000 1.0
C      1  0.5407650000000  0.4496900000000  0.5093570000000 1.0
C      1  0.4912350000000  0.5849680000000  0.5450870000000 1.0
C      1  0.4704990000000  0.4783150000000  0.4332700000000 1.0
C      1  0.5634710000000  0.5283660000000  0.4786580000000 1.0
C      1  0.4729850000000  0.5036360000000  0.4466760000000 1.0
C      1  0.5085190000000  0.4977870000000  0.4092920000000 1.0
C      1  0.4960720000000  0.5277260000000  0.4945100000000 1.0
C      1  0.5792630000000  0.4654900000000  0.4911560000000 1.0
C      1  0.4495480000000  0.4518540000000  0.5115470000000 1.0
C      1  0.4910770000000  0.5638350000000  0.5638120000000 1.0
C      1  0.4185220000000  0.5182090000000  0.5335630000000 1.0
C      1  0.5022070000000  0.5321170000000  0.5360950000000 1.0
C      1  0.5201090000000  0.5272080000000  0.5128860000000 1.0
C      1  0.5081580000000  0.4515530000000  0.4241610000000 1.0
C      1  0.4610070000000  0.4269050000000  0.5068050000000 1.0
C      1  0.5269740000000  0.5421800000000  0.4198060000000 1.0
C      1  0.4590080000000  0.4583330000000  0.4509690000000 1.0
C      1  0.4818060000000  0.5687110000000  0.4711110000000 1.0
C      1  0.5496750000000  0.5291580000000  0.4316550000000 1.0
C      1  0.4795220000000  0.5421570000000  0.5165060000000 1.0
C      1  0.5207770000000  0.4961400000000  0.4660560000000 1.0
C      1  0.4771360000000  0.4204750000000  0.5289450000000 1.0
C      1  0.4774110000000  0.5445070000000  0.4277760000000 1.0
C      1  0.5015100000000  0.5392370000000  0.4682110000000 1.0
C      1  0.4311110000000  0.4628260000000  0.4926870000000 1.0
C      1  0.4924540000000  0.4743810000000  0.4166170000000 1.0
C      1  0.5349960000000  0.4883230000000  0.4124550000000 1.0
C      1  0.5517850000000  0.4580540000000  0.5535580000000 1.0
C      1  0.4202100000000  0.4886470000000  0.5353560000000 1.0
C      1  0.4743540000000  0.4352790000000  0.4568590000000 1.0
C      1  0.5361630000000  0.5296170000000  0.5671930000000 1.0
C      1  0.5259870000000  0.5719530000000  0.4884140000000 1.0
END
