TITL C-82680-7743-2 -0.0347944727754443 125000 -448.814401154341 0 0 64 (C1) n - 1
REM
REM in /rds/project/t2_vol4/rds-t2-cs072/BORA/CARBON/from-Arr/AIRSS/Generating-Clusters/GAP-ML-2020/Only-C1/SD-CG/HFTN-CG
REM
REM
REM
REM
REM
REM ./C.cell (11c1c37f851c82e70ff6c80c92926a4b)
REM AIRSS Version 0.9.1 bugfix July 2018 build 013d7b7c2542+ Fri, 06 Jul 2018 19:26:36 +0100
REM compiler GCC version 9.3.0
REM options -cpp -mtune=generic -march=x86-64 -g -O0
REM seed 674763585 -338051836 1811585593 -2086736477 -1504404114 -661051955 -335212845 -381430442 1212708980 -1028406288 -1950269567 -1384814253 -1137341944 -1768738292 -1860120719 663190130 1813074512 -2040839179 -1685534047 24022808 -1602080728 674828510 -697994338 -1671893026 233596617 1411329680 1801999140 -460499334 -1233825521 -1476902574 -1056246184 -1121476345 -759757747
REM
CELL 1.54180   50.00000   50.00000   50.00000   90.00000   90.00000   90.00000
LATT -1
SFAC C  
C      1  0.5486340000000  0.5434750000000  0.5395600000000 1.0
C      1  0.4293720000000  0.4920010000000  0.4822770000000 1.0
C      1  0.4572570000000  0.5543000000000  0.4723660000000 1.0
C      1  0.4723950000000  0.5314340000000  0.5598030000000 1.0
C      1  0.4827720000000  0.4454770000000  0.4644310000000 1.0
C      1  0.4363630000000  0.5404740000000  0.4859060000000 1.0
C      1  0.5252760000000  0.5551750000000  0.4990920000000 1.0
C      1  0.5621100000000  0.4982470000000  0.5339410000000 1.0
C      1  0.5269410000000  0.5367230000000  0.5574350000000 1.0
C      1  0.5538750000000  0.4571200000000  0.5032160000000 1.0
C      1  0.5650140000000  0.5255680000000  0.5266910000000 1.0
C      1  0.4649390000000  0.5568360000000  0.5181700000000 1.0
C      1  0.5443800000000  0.4896900000000  0.5544820000000 1.0
C      1  0.5280030000000  0.5094180000000  0.4426140000000 1.0
C      1  0.4897440000000  0.5091400000000  0.5665860000000 1.0
C      1  0.4677710000000  0.4915410000000  0.5583930000000 1.0
C      1  0.4565520000000  0.4901610000000  0.4419390000000 1.0
C      1  0.4413700000000  0.5404920000000  0.5134970000000 1.0
C      1  0.5443750000000  0.4866660000000  0.4494940000000 1.0
C      1  0.4304380000000  0.5176630000000  0.4709220000000 1.0
C      1  0.4756760000000  0.5635000000000  0.4916700000000 1.0
C      1  0.4985780000000  0.4713290000000  0.5306410000000 1.0
C      1  0.4551280000000  0.4520520000000  0.4705210000000 1.0
C      1  0.4768750000000  0.5121180000000  0.4939690000000 1.0
C      1  0.5084820000000  0.5481670000000  0.4579230000000 1.0
C      1  0.4700970000000  0.4721120000000  0.5389790000000 1.0
C      1  0.5407430000000  0.4625830000000  0.5509320000000 1.0
C      1  0.4638130000000  0.5392140000000  0.4486080000000 1.0
C      1  0.5108690000000  0.5008040000000  0.5270790000000 1.0
C      1  0.4805610000000  0.5532460000000  0.5428160000000 1.0
C      1  0.4849580000000  0.4846050000000  0.4357720000000 1.0
C      1  0.5481210000000  0.4446190000000  0.5282650000000 1.0
C      1  0.4901150000000  0.5346790000000  0.4410580000000 1.0
C      1  0.5086450000000  0.5566560000000  0.5458830000000 1.0
C      1  0.4370800000000  0.5149780000000  0.5263580000000 1.0
C      1  0.4509590000000  0.5134390000000  0.5506730000000 1.0
C      1  0.5228700000000  0.4303470000000  0.5290090000000 1.0
C      1  0.4504390000000  0.4676100000000  0.5182900000000 1.0
C      1  0.4886370000000  0.5160410000000  0.5177580000000 1.0
C      1  0.4586810000000  0.4484260000000  0.4988410000000 1.0
C      1  0.5731640000000  0.5011680000000  0.4870280000000 1.0
C      1  0.5294130000000  0.4217500000000  0.4839240000000 1.0
C      1  0.5030010000000  0.5617160000000  0.4826930000000 1.0
C      1  0.5144930000000  0.4516230000000  0.5465650000000 1.0
C      1  0.4472630000000  0.5164630000000  0.4474530000000 1.0
C      1  0.4868460000000  0.4925160000000  0.4806780000000 1.0
C      1  0.5293840000000  0.5009240000000  0.5031480000000 1.0
C      1  0.5310830000000  0.5315040000000  0.4603040000000 1.0
C      1  0.4875480000000  0.4401310000000  0.4943520000000 1.0
C      1  0.5671400000000  0.5274160000000  0.4980180000000 1.0
C      1  0.5021270000000  0.4634450000000  0.5034790000000 1.0
C      1  0.5680670000000  0.4928950000000  0.4619770000000 1.0
C      1  0.5101480000000  0.4231850000000  0.5047580000000 1.0
C      1  0.5388840000000  0.5304600000000  0.4891980000000 1.0
C      1  0.5009690000000  0.5085420000000  0.4338600000000 1.0
C      1  0.5133040000000  0.4832300000000  0.4855120000000 1.0
C      1  0.5295380000000  0.5614910000000  0.5261150000000 1.0
C      1  0.5404380000000  0.4464290000000  0.4790340000000 1.0
C      1  0.4986760000000  0.4614980000000  0.4482130000000 1.0
C      1  0.5586780000000  0.4850140000000  0.5070550000000 1.0
C      1  0.5184060000000  0.5088660000000  0.5567580000000 1.0
C      1  0.5262340000000  0.4665650000000  0.4615300000000 1.0
C      1  0.4422100000000  0.4747270000000  0.4620530000000 1.0
C      1  0.4340770000000  0.4903190000000  0.5104370000000 1.0
END
