TITL C-82685-6945-6 0.154530673221838 125000 -87.147457796572 0 0 14 (C1) n - 1
REM
REM in /rds/project/t2_vol4/rds-t2-cs072/BORA/CARBON/from-Arr/AIRSS/Generating-Clusters/GAP-ML-2020/Only-C1/SD-CG/HFTN-CG
REM
REM
REM
REM
REM
REM ./C.cell (11c1c37f851c82e70ff6c80c92926a4b)
REM AIRSS Version 0.9.1 bugfix July 2018 build 013d7b7c2542+ Fri, 06 Jul 2018 19:26:36 +0100
REM compiler GCC version 9.3.0
REM options -cpp -mtune=generic -march=x86-64 -g -O0
REM seed -1179474144 1510277613 -517153597 -1354354836 -973763260 1367686043 -261743026 702651815 547451854 -606523045 1706539783 1357832657 418278621 893336684 -955328413 708865815 272982568 -1889714934 -1709735628 -1568288995 103844239 154743513 -629865526 1732643276 1975115612 -1484173759 146410252 1444646532 1877139078 748468292 -1855094885 1193962297 -1148548929
REM
CELL 1.54180   50.00000   50.00000   50.00000   90.00000   90.00000   90.00000
LATT -1
SFAC C  
C      1  0.4655390000000  0.4569190000000  0.4919040000000 1.0
C      1  0.5208280000000  0.4881470000000  0.4947210000000 1.0
C      1  0.4662500000000  0.4844890000000  0.4940840000000 1.0
C      1  0.4875930000000  0.5217440000000  0.4808990000000 1.0
C      1  0.5127640000000  0.4992130000000  0.5423820000000 1.0
C      1  0.5161110000000  0.4868020000000  0.5194200000000 1.0
C      1  0.5223040000000  0.5435830000000  0.5008950000000 1.0
C      1  0.5301560000000  0.5433280000000  0.5257010000000 1.0
C      1  0.4658630000000  0.5082280000000  0.4814920000000 1.0
C      1  0.5071400000000  0.5392850000000  0.4803920000000 1.0
C      1  0.5029390000000  0.4605120000000  0.4560010000000 1.0
C      1  0.5119080000000  0.4765480000000  0.4733970000000 1.0
C      1  0.4696740000000  0.4669950000000  0.5174780000000 1.0
C      1  0.5209300000000  0.5242090000000  0.5412350000000 1.0
END
