TITL C-82692-8281-7 142.591697509963 125000 -818.475978275683 0 0 116 (C1) n - 1
REM
REM in /rds/project/t2_vol4/rds-t2-cs072/BORA/CARBON/from-Arr/AIRSS/Generating-Clusters/GAP-ML-2020/Only-C1/SD-CG/HFTN-CG
REM
REM
REM
REM
REM
REM ./C.cell (11c1c37f851c82e70ff6c80c92926a4b)
REM AIRSS Version 0.9.1 bugfix July 2018 build 013d7b7c2542+ Fri, 06 Jul 2018 19:26:36 +0100
REM compiler GCC version 9.3.0
REM options -cpp -mtune=generic -march=x86-64 -g -O0
REM seed -475235723 1795226693 1706867874 -1628647197 -772989424 1610978650 -475485836 874259058 451102301 392472339 1052242690 -964013423 1715290518 -827926603 -99269276 -1256736656 -403362242 898128949 -101564908 654045578 1007572257 -1482678599 555737942 1717419265 1235985676 -1932503523 451487447 980312908 2130737601 726122184 640302535 -1886627916 1763616657
REM
CELL 1.54180   50.00000   50.00000   50.00000   90.00000   90.00000   90.00000
LATT -1
SFAC C  
C      1  0.4240800000000  0.4726430000000  0.5313230000000 1.0
C      1  0.5263080000000  0.4550380000000  0.5021680000000 1.0
C      1  0.5808810000000  0.5470160000000  0.4720600000000 1.0
C      1  0.5627500000000  0.5645780000000  0.4577630000000 1.0
C      1  0.4641300000000  0.4249950000000  0.5274750000000 1.0
C      1  0.5369530000000  0.5099700000000  0.5131050000000 1.0
C      1  0.4548370000000  0.4767760000000  0.4988940000000 1.0
C      1  0.4999430000000  0.4048810000000  0.5044900000000 1.0
C      1  0.4067760000000  0.4899190000000  0.5099020000000 1.0
C      1  0.5318420000000  0.4792940000000  0.4859170000000 1.0
C      1  0.5270060000000  0.4322050000000  0.4495560000000 1.0
C      1  0.4830380000000  0.5189470000000  0.5224930000000 1.0
C      1  0.5363530000000  0.5288620000000  0.4349550000000 1.0
C      1  0.5817310000000  0.4814770000000  0.4939050000000 1.0
C      1  0.4159450000000  0.5181200000000  0.5036730000000 1.0
C      1  0.4805180000000  0.4664690000000  0.5141640000000 1.0
C      1  0.5853660000000  0.5198520000000  0.4704690000000 1.0
C      1  0.5276410000000  0.4632880000000  0.5312110000000 1.0
C      1  0.5778130000000  0.4749770000000  0.4643750000000 1.0
C      1  0.4550860000000  0.4361420000000  0.4540000000000 1.0
C      1  0.4844170000000  0.5345890000000  0.4263880000000 1.0
C      1  0.4944180000000  0.5617200000000  0.4335900000000 1.0
C      1  0.4319940000000  0.5423120000000  0.5480200000000 1.0
C      1  0.4744340000000  0.5738460000000  0.4511020000000 1.0
C      1  0.5913480000000  0.5091150000000  0.4969860000000 1.0
C      1  0.4986190000000  0.5531040000000  0.5687220000000 1.0
C      1  0.5845890000000  0.5225330000000  0.5224940000000 1.0
C      1  0.5743820000000  0.4757180000000  0.5401900000000 1.0
C      1  0.4971360000000  0.4507840000000  0.4936210000000 1.0
C      1  0.5532840000000  0.4304840000000  0.5473440000000 1.0
C      1  0.5447130000000  0.4303690000000  0.4971710000000 1.0
C      1  0.4710910000000  0.5748640000000  0.5411170000000 1.0
C      1  0.4802380000000  0.4033880000000  0.5238730000000 1.0
C      1  0.5200640000000  0.5730780000000  0.4401420000000 1.0
C      1  0.5491120000000  0.4305620000000  0.4681820000000 1.0
C      1  0.4758850000000  0.5245250000000  0.4772500000000 1.0
C      1  0.5089200000000  0.5283560000000  0.4455240000000 1.0
C      1  0.4184730000000  0.5275960000000  0.4755710000000 1.0
C      1  0.4338780000000  0.5517420000000  0.4752420000000 1.0
C      1  0.5492770000000  0.5035090000000  0.4347560000000 1.0
C      1  0.5385000000000  0.4973760000000  0.5748680000000 1.0
C      1  0.4466430000000  0.4310120000000  0.5046540000000 1.0
C      1  0.5396860000000  0.4560210000000  0.4372700000000 1.0
C      1  0.4296600000000  0.5150130000000  0.5582310000000 1.0
C      1  0.5624200000000  0.4533300000000  0.4555650000000 1.0
C      1  0.5160400000000  0.5896190000000  0.4627810000000 1.0
C      1  0.4683450000000  0.5159420000000  0.5814440000000 1.0
C      1  0.4825280000000  0.4598720000000  0.4233330000000 1.0
C      1  0.4797660000000  0.4357320000000  0.4387790000000 1.0
C      1  0.5054460000000  0.5369200000000  0.5239190000000 1.0
C      1  0.4872460000000  0.5883550000000  0.4998260000000 1.0
C      1  0.5234010000000  0.5782670000000  0.5344880000000 1.0
C      1  0.4952290000000  0.4922650000000  0.5152920000000 1.0
C      1  0.5068440000000  0.4920530000000  0.4814740000000 1.0
C      1  0.4887760000000  0.5881520000000  0.4711560000000 1.0
C      1  0.5513490000000  0.4598270000000  0.5523900000000 1.0
C      1  0.4480470000000  0.4748930000000  0.5759810000000 1.0
C      1  0.5308150000000  0.4811610000000  0.4276540000000 1.0
C      1  0.5727410000000  0.5502370000000  0.5223440000000 1.0
C      1  0.5143380000000  0.5052270000000  0.5607520000000 1.0
C      1  0.4989160000000  0.5750670000000  0.5506430000000 1.0
C      1  0.5699390000000  0.4355600000000  0.5131540000000 1.0
C      1  0.4125230000000  0.4714580000000  0.4887580000000 1.0
C      1  0.5323460000000  0.5912710000000  0.4860580000000 1.0
C      1  0.5023160000000  0.4825000000000  0.4202880000000 1.0
C      1  0.5743610000000  0.4193040000000  0.5349750000000 1.0
C      1  0.5810360000000  0.4626320000000  0.5156120000000 1.0
C      1  0.4453170000000  0.5550550000000  0.5031040000000 1.0
C      1  0.4435510000000  0.4628520000000  0.4499280000000 1.0
C      1  0.4863110000000  0.4964690000000  0.5673810000000 1.0
C      1  0.4439190000000  0.5044940000000  0.5079370000000 1.0
C      1  0.5449330000000  0.5397750000000  0.5572240000000 1.0
C      1  0.5515520000000  0.4959150000000  0.4942780000000 1.0
C      1  0.4729410000000  0.5433910000000  0.5754250000000 1.0
C      1  0.4546520000000  0.5392290000000  0.4328990000000 1.0
C      1  0.4549760000000  0.5569330000000  0.5572870000000 1.0
C      1  0.4433030000000  0.5135470000000  0.4367000000000 1.0
C      1  0.5004190000000  0.4238820000000  0.4535950000000 1.0
C      1  0.4216860000000  0.5067510000000  0.4556070000000 1.0
C      1  0.4562100000000  0.4703660000000  0.4240900000000 1.0
C      1  0.5268530000000  0.4209820000000  0.5406470000000 1.0
C      1  0.5047000000000  0.5218350000000  0.4757340000000 1.0
C      1  0.5752630000000  0.5614850000000  0.4969180000000 1.0
C      1  0.4325250000000  0.4572240000000  0.5060620000000 1.0
C      1  0.5501110000000  0.5605310000000  0.5392890000000 1.0
C      1  0.5199380000000  0.4920250000000  0.5311310000000 1.0
C      1  0.5212160000000  0.5315200000000  0.5000650000000 1.0
C      1  0.5731390000000  0.5000080000000  0.4517770000000 1.0
C      1  0.4849480000000  0.5059480000000  0.4161200000000 1.0
C      1  0.4797680000000  0.4491990000000  0.5400080000000 1.0
C      1  0.4632940000000  0.4784360000000  0.4700620000000 1.0
C      1  0.4911320000000  0.4705560000000  0.4710600000000 1.0
C      1  0.4622440000000  0.5054740000000  0.4613150000000 1.0
C      1  0.4792850000000  0.4675640000000  0.5691570000000 1.0
C      1  0.4496200000000  0.5592910000000  0.4520860000000 1.0
C      1  0.5165240000000  0.5340970000000  0.5561230000000 1.0
C      1  0.4428290000000  0.4976900000000  0.5368740000000 1.0
C      1  0.5576580000000  0.5797740000000  0.4821900000000 1.0
C      1  0.4600610000000  0.4254860000000  0.4799220000000 1.0
C      1  0.4645430000000  0.5774020000000  0.5138500000000 1.0
C      1  0.4633440000000  0.5268190000000  0.5028440000000 1.0
C      1  0.5433610000000  0.5564430000000  0.4392110000000 1.0
C      1  0.5152820000000  0.5895190000000  0.5094580000000 1.0
C      1  0.5771160000000  0.5040130000000  0.5437730000000 1.0
C      1  0.5086550000000  0.4435300000000  0.5474450000000 1.0
C      1  0.4573790000000  0.4970620000000  0.4177220000000 1.0
C      1  0.5582800000000  0.5147130000000  0.5626350000000 1.0
C      1  0.4432880000000  0.5034100000000  0.5814930000000 1.0
C      1  0.4897230000000  0.4215920000000  0.4817450000000 1.0
C      1  0.4246710000000  0.5435780000000  0.5209110000000 1.0
C      1  0.4199190000000  0.4786410000000  0.4621420000000 1.0
C      1  0.4288830000000  0.4663980000000  0.5583070000000 1.0
C      1  0.5258010000000  0.4119740000000  0.5134540000000 1.0
C      1  0.5081190000000  0.4570810000000  0.5732680000000 1.0
C      1  0.4712740000000  0.5039210000000  0.5433000000000 1.0
C      1  0.5349540000000  0.4694120000000  0.5755660000000 1.0
END
