TITL C-82693-5337-6 -85.9218989283769 125000 -578.265534266112 0 0 85 (C1) n - 1
REM
REM in /rds/project/t2_vol4/rds-t2-cs072/BORA/CARBON/from-Arr/AIRSS/Generating-Clusters/GAP-ML-2020/Only-C1/SD-CG/HFTN-CG
REM
REM
REM
REM
REM
REM ./C.cell (11c1c37f851c82e70ff6c80c92926a4b)
REM AIRSS Version 0.9.1 bugfix July 2018 build 013d7b7c2542+ Fri, 06 Jul 2018 19:26:36 +0100
REM compiler GCC version 9.3.0
REM options -cpp -mtune=generic -march=x86-64 -g -O0
REM seed 12640264 1527758965 -956441208 -348334323 -1916400513 -270046719 -455906537 -744878361 -586954721 -725877576 804806896 136664111 1712361240 -760670728 1938966488 1862066500 166407116 -1205126094 -197827216 -737682642 2052787242 1191982231 2143951518 94936320 1157357922 1396814576 1273225492 -646356660 1508026587 -558025391 -304394933 -276802741 -1921852313
REM
CELL 1.54180   50.00000   50.00000   50.00000   90.00000   90.00000   90.00000
LATT -1
SFAC C  
C      1  0.4636100000000  0.4414510000000  0.4555240000000 1.0
C      1  0.5071980000000  0.4819060000000  0.4539590000000 1.0
C      1  0.5374660000000  0.4821820000000  0.4910590000000 1.0
C      1  0.5283910000000  0.5637130000000  0.5462170000000 1.0
C      1  0.5308120000000  0.4836270000000  0.4315880000000 1.0
C      1  0.5249820000000  0.4220390000000  0.5100370000000 1.0
C      1  0.4700350000000  0.5271490000000  0.5334410000000 1.0
C      1  0.4863620000000  0.4405760000000  0.4375110000000 1.0
C      1  0.4954530000000  0.4840900000000  0.5817340000000 1.0
C      1  0.5558830000000  0.4581340000000  0.4995250000000 1.0
C      1  0.4637400000000  0.5449990000000  0.4528950000000 1.0
C      1  0.4566450000000  0.4959170000000  0.4511410000000 1.0
C      1  0.4947610000000  0.5849850000000  0.4761720000000 1.0
C      1  0.5575230000000  0.5268830000000  0.4932770000000 1.0
C      1  0.4761040000000  0.5742910000000  0.4933330000000 1.0
C      1  0.5231160000000  0.5121230000000  0.4256720000000 1.0
C      1  0.4732030000000  0.5565600000000  0.5405720000000 1.0
C      1  0.5514560000000  0.4965970000000  0.4674260000000 1.0
C      1  0.5051580000000  0.4489820000000  0.5455090000000 1.0
C      1  0.4927420000000  0.4983880000000  0.4891830000000 1.0
C      1  0.4622110000000  0.5150340000000  0.5821810000000 1.0
C      1  0.4180410000000  0.4944630000000  0.4757540000000 1.0
C      1  0.5482870000000  0.4774200000000  0.5506880000000 1.0
C      1  0.4937820000000  0.4908000000000  0.5175080000000 1.0
C      1  0.4153830000000  0.4881090000000  0.5292610000000 1.0
C      1  0.4706210000000  0.4460310000000  0.4826770000000 1.0
C      1  0.4304560000000  0.4598810000000  0.5085290000000 1.0
C      1  0.5419300000000  0.5053070000000  0.5107560000000 1.0
C      1  0.4713260000000  0.4742840000000  0.5225300000000 1.0
C      1  0.5154250000000  0.4382780000000  0.4383920000000 1.0
C      1  0.5569160000000  0.4811630000000  0.4441240000000 1.0
C      1  0.4316270000000  0.5102800000000  0.5337210000000 1.0
C      1  0.5422280000000  0.5006570000000  0.5667320000000 1.0
C      1  0.5181450000000  0.4254650000000  0.4826420000000 1.0
C      1  0.5886490000000  0.4835090000000  0.4827760000000 1.0
C      1  0.5332040000000  0.5332320000000  0.4423960000000 1.0
C      1  0.5442220000000  0.4404790000000  0.5199710000000 1.0
C      1  0.4742610000000  0.4941070000000  0.5962660000000 1.0
C      1  0.5619080000000  0.4942850000000  0.5299460000000 1.0
C      1  0.4627910000000  0.4957510000000  0.4859450000000 1.0
C      1  0.4538180000000  0.5080670000000  0.5541400000000 1.0
C      1  0.4890920000000  0.5420090000000  0.4394190000000 1.0
C      1  0.5011020000000  0.4348380000000  0.5204210000000 1.0
C      1  0.4827740000000  0.4906200000000  0.4368250000000 1.0
C      1  0.4854170000000  0.5736780000000  0.5210700000000 1.0
C      1  0.5779450000000  0.4772070000000  0.5077140000000 1.0
C      1  0.5182720000000  0.5048130000000  0.5816190000000 1.0
C      1  0.4384960000000  0.5378820000000  0.4906420000000 1.0
C      1  0.4257020000000  0.5219310000000  0.4709390000000 1.0
C      1  0.4579980000000  0.5560670000000  0.4791590000000 1.0
C      1  0.5212410000000  0.5239810000000  0.5234800000000 1.0
C      1  0.5463170000000  0.5430550000000  0.5358200000000 1.0
C      1  0.5111610000000  0.5401690000000  0.5023290000000 1.0
C      1  0.5178750000000  0.5718460000000  0.4713180000000 1.0
C      1  0.4127740000000  0.4818380000000  0.5001090000000 1.0
C      1  0.5292500000000  0.5647980000000  0.4987830000000 1.0
C      1  0.5094740000000  0.4749040000000  0.4828630000000 1.0
C      1  0.5343090000000  0.4331820000000  0.4609450000000 1.0
C      1  0.5139550000000  0.5538640000000  0.4480700000000 1.0
C      1  0.5170220000000  0.4611990000000  0.4197060000000 1.0
C      1  0.4865010000000  0.4654470000000  0.5608560000000 1.0
C      1  0.4313340000000  0.4652080000000  0.5369590000000 1.0
C      1  0.4966240000000  0.5131620000000  0.5336670000000 1.0
C      1  0.5542880000000  0.5509110000000  0.5084200000000 1.0
C      1  0.4837120000000  0.5585120000000  0.5667430000000 1.0
C      1  0.4951380000000  0.5159130000000  0.4270250000000 1.0
C      1  0.4597430000000  0.4757690000000  0.5485510000000 1.0
C      1  0.4887130000000  0.4653490000000  0.4215620000000 1.0
C      1  0.4453650000000  0.5227590000000  0.4502440000000 1.0
C      1  0.4370420000000  0.4521960000000  0.4506600000000 1.0
C      1  0.5130120000000  0.5566500000000  0.5685950000000 1.0
C      1  0.5760270000000  0.5071700000000  0.4815360000000 1.0
C      1  0.4802460000000  0.5365650000000  0.5851850000000 1.0
C      1  0.5754040000000  0.4649970000000  0.4584970000000 1.0
C      1  0.5343700000000  0.4536290000000  0.5435010000000 1.0
C      1  0.5091770000000  0.5320670000000  0.5849680000000 1.0
C      1  0.5377780000000  0.5223220000000  0.4686500000000 1.0
C      1  0.4325630000000  0.4781740000000  0.4554100000000 1.0
C      1  0.5575100000000  0.5185140000000  0.5490030000000 1.0
C      1  0.4976130000000  0.4457390000000  0.4908280000000 1.0
C      1  0.5087340000000  0.5222950000000  0.4813880000000 1.0
C      1  0.5148930000000  0.5759690000000  0.5232480000000 1.0
C      1  0.5584230000000  0.4463130000000  0.4710980000000 1.0
C      1  0.4570950000000  0.4661350000000  0.4982320000000 1.0
C      1  0.4486510000000  0.5191640000000  0.5112340000000 1.0
END
