TITL C-82693-5337-8 -3237.45403795468 125000 -432.570472191013 0 0 64 (C1) n - 1
REM
REM in /rds/project/t2_vol4/rds-t2-cs072/BORA/CARBON/from-Arr/AIRSS/Generating-Clusters/GAP-ML-2020/Only-C1/SD-CG/HFTN-CG
REM
REM
REM
REM
REM
REM ./C.cell (11c1c37f851c82e70ff6c80c92926a4b)
REM AIRSS Version 0.9.1 bugfix July 2018 build 013d7b7c2542+ Fri, 06 Jul 2018 19:26:36 +0100
REM compiler GCC version 9.3.0
REM options -cpp -mtune=generic -march=x86-64 -g -O0
REM seed 1051490084 -1291958950 -928315770 -1353753910 90306369 878368514 -1138767927 1393939737 -1655428297 -800623845 961711662 1709440994 -1896136859 -645987215 -815361495 1959526700 1373414864 -1240339328 -981473102 1970677620 -833395733 -1320260119 730324256 529971016 -1489339995 -793407281 488600432 -1661517773 1500721378 1924809806 1563595486 1869849495 495884655
REM
CELL 1.54180   50.00000   50.00000   50.00000   90.00000   90.00000   90.00000
LATT -1
SFAC C  
C      1  0.5181590000000  0.5597810000000  0.5205590000000 1.0
C      1  0.5189150000000  0.4790760000000  0.4314820000000 1.0
C      1  0.4285700000000  0.5296770000000  0.5046490000000 1.0
C      1  0.4909200000000  0.4673360000000  0.4950330000000 1.0
C      1  0.4354860000000  0.4848630000000  0.5119010000000 1.0
C      1  0.4289680000000  0.4878760000000  0.4828760000000 1.0
C      1  0.4443610000000  0.5591210000000  0.4731870000000 1.0
C      1  0.5316000000000  0.4742370000000  0.5274820000000 1.0
C      1  0.4283610000000  0.5162550000000  0.4785260000000 1.0
C      1  0.5143190000000  0.5185080000000  0.5278850000000 1.0
C      1  0.5286280000000  0.4490190000000  0.4588010000000 1.0
C      1  0.5582720000000  0.5302460000000  0.5043230000000 1.0
C      1  0.5242260000000  0.4263020000000  0.5035560000000 1.0
C      1  0.4612750000000  0.5639870000000  0.5176760000000 1.0
C      1  0.5347440000000  0.5014740000000  0.5395540000000 1.0
C      1  0.4386310000000  0.5558980000000  0.5019780000000 1.0
C      1  0.5026920000000  0.5076570000000  0.4766300000000 1.0
C      1  0.5048540000000  0.4593680000000  0.5651080000000 1.0
C      1  0.5852910000000  0.4984710000000  0.4874890000000 1.0
C      1  0.4718350000000  0.5463950000000  0.5386780000000 1.0
C      1  0.4622260000000  0.4431290000000  0.5345230000000 1.0
C      1  0.4702890000000  0.5698870000000  0.4693260000000 1.0
C      1  0.5031080000000  0.5451040000000  0.5417800000000 1.0
C      1  0.4793360000000  0.5763070000000  0.4965270000000 1.0
C      1  0.5389120000000  0.4751490000000  0.4509400000000 1.0
C      1  0.4577830000000  0.5211010000000  0.5428310000000 1.0
C      1  0.5139150000000  0.5474350000000  0.4552170000000 1.0
C      1  0.4877110000000  0.5075440000000  0.4495250000000 1.0
C      1  0.5685530000000  0.5170850000000  0.5278030000000 1.0
C      1  0.4744230000000  0.4274370000000  0.5129330000000 1.0
C      1  0.5433380000000  0.4717260000000  0.4980720000000 1.0
C      1  0.4677300000000  0.4503000000000  0.4940700000000 1.0
C      1  0.4758520000000  0.4997420000000  0.5492330000000 1.0
C      1  0.5280140000000  0.4514920000000  0.5474820000000 1.0
C      1  0.5129030000000  0.5409330000000  0.4833130000000 1.0
C      1  0.5003530000000  0.4189780000000  0.5161830000000 1.0
C      1  0.5480800000000  0.5127870000000  0.4600640000000 1.0
C      1  0.5846800000000  0.4960950000000  0.5169890000000 1.0
C      1  0.4434660000000  0.5330640000000  0.4605210000000 1.0
C      1  0.5288230000000  0.5255230000000  0.4427720000000 1.0
C      1  0.5043620000000  0.5662790000000  0.4979080000000 1.0
C      1  0.5320680000000  0.4919120000000  0.4747040000000 1.0
C      1  0.4348990000000  0.4683240000000  0.4643460000000 1.0
C      1  0.4854180000000  0.5536100000000  0.4501810000000 1.0
C      1  0.4842280000000  0.4563410000000  0.5451030000000 1.0
C      1  0.5043340000000  0.4545410000000  0.4415330000000 1.0
C      1  0.4692720000000  0.5293050000000  0.4465570000000 1.0
C      1  0.5337410000000  0.4455960000000  0.4860320000000 1.0
C      1  0.4853180000000  0.4788180000000  0.5665960000000 1.0
C      1  0.5016330000000  0.4708860000000  0.5223830000000 1.0
C      1  0.4370700000000  0.5118200000000  0.5245600000000 1.0
C      1  0.4492840000000  0.4618470000000  0.5165970000000 1.0
C      1  0.5674720000000  0.5193460000000  0.4790440000000 1.0
C      1  0.5732790000000  0.4766480000000  0.4993360000000 1.0
C      1  0.5104420000000  0.5057330000000  0.4320820000000 1.0
C      1  0.5224910000000  0.4284310000000  0.5312000000000 1.0
C      1  0.5305600000000  0.5363610000000  0.5071380000000 1.0
C      1  0.5210190000000  0.5457220000000  0.5647350000000 1.0
C      1  0.5545610000000  0.5172290000000  0.5524000000000 1.0
C      1  0.5444880000000  0.5361670000000  0.5704090000000 1.0
C      1  0.4920860000000  0.4995610000000  0.5240560000000 1.0
C      1  0.4856770000000  0.4951930000000  0.4948710000000 1.0
C      1  0.4583810000000  0.4534260000000  0.4649620000000 1.0
C      1  0.4783150000000  0.4505420000000  0.4457870000000 1.0
END
