TITL C-82662-7771-9 42.2740643945662 125000 -661.096422096044 0 0 95 (C1) n - 1
REM
REM in /rds/project/t2_vol4/rds-t2-cs072/BORA/CARBON/from-Arr/AIRSS/Generating-Clusters/GAP-ML-2020/Only-C1/SD-CG/HFTN-CG
REM
REM
REM
REM
REM
REM ./C.cell (11c1c37f851c82e70ff6c80c92926a4b)
REM AIRSS Version 0.9.1 bugfix July 2018 build 013d7b7c2542+ Fri, 06 Jul 2018 19:26:36 +0100
REM compiler GCC version 9.3.0
REM options -cpp -mtune=generic -march=x86-64 -g -O0
REM seed -1602137983 561935435 1961763789 -256724310 146758013 -552110000 -511284645 1957075790 2017367814 654178309 1725069636 909254289 1154590643 327560989 -1581105378 -286690468 1455579434 -303043161 4459266 376386170 1538288033 -1088152342 207181526 1236179420 -1520225723 -326743593 -1159983093 -1541655754 -24144129 -1479226618 -1095475796 -789478924 -270608490
REM
CELL 1.54180   50.00000   50.00000   50.00000   90.00000   90.00000   90.00000
LATT -1
SFAC C  
C      1  0.5104120000000  0.4121450000000  0.4775100000000 1.0
C      1  0.5135240000000  0.5641930000000  0.4527600000000 1.0
C      1  0.4135780000000  0.5170320000000  0.5030740000000 1.0
C      1  0.4966120000000  0.5716770000000  0.5054110000000 1.0
C      1  0.5404320000000  0.4550510000000  0.4426370000000 1.0
C      1  0.5022570000000  0.5048710000000  0.5439590000000 1.0
C      1  0.4302440000000  0.5590290000000  0.4959280000000 1.0
C      1  0.5939550000000  0.4905300000000  0.4972490000000 1.0
C      1  0.4722900000000  0.5056730000000  0.5800270000000 1.0
C      1  0.5617130000000  0.5751040000000  0.4856500000000 1.0
C      1  0.4877450000000  0.5271790000000  0.5324130000000 1.0
C      1  0.4952190000000  0.5183130000000  0.5917190000000 1.0
C      1  0.4564750000000  0.5629450000000  0.5352710000000 1.0
C      1  0.5285940000000  0.5390130000000  0.5049130000000 1.0
C      1  0.5378860000000  0.4813520000000  0.4283700000000 1.0
C      1  0.4297090000000  0.5231700000000  0.4573130000000 1.0
C      1  0.4204380000000  0.4657670000000  0.5032820000000 1.0
C      1  0.5288700000000  0.5099300000000  0.5046210000000 1.0
C      1  0.4719580000000  0.5107760000000  0.5133470000000 1.0
C      1  0.5422020000000  0.4655860000000  0.4921200000000 1.0
C      1  0.5615660000000  0.4596080000000  0.5140420000000 1.0
C      1  0.5138720000000  0.4659760000000  0.5106260000000 1.0
C      1  0.5716470000000  0.5284950000000  0.4825470000000 1.0
C      1  0.4541550000000  0.5228160000000  0.5663130000000 1.0
C      1  0.5019140000000  0.4193460000000  0.4508580000000 1.0
C      1  0.5691820000000  0.5375390000000  0.5121520000000 1.0
C      1  0.5452780000000  0.4463500000000  0.4704200000000 1.0
C      1  0.4242400000000  0.4955140000000  0.4636290000000 1.0
C      1  0.4205900000000  0.5278080000000  0.5296280000000 1.0
C      1  0.5213750000000  0.5509900000000  0.5512990000000 1.0
C      1  0.5734670000000  0.4989790000000  0.5431670000000 1.0
C      1  0.4719350000000  0.4561450000000  0.4367490000000 1.0
C      1  0.4318650000000  0.5533220000000  0.5244770000000 1.0
C      1  0.4578950000000  0.4339230000000  0.5078720000000 1.0
C      1  0.5574150000000  0.4907610000000  0.5657480000000 1.0
C      1  0.4722010000000  0.4822320000000  0.5148410000000 1.0
C      1  0.5095920000000  0.5497620000000  0.5230240000000 1.0
C      1  0.4696030000000  0.5704290000000  0.4655740000000 1.0
C      1  0.5518790000000  0.5101310000000  0.4681200000000 1.0
C      1  0.5744360000000  0.5005990000000  0.4506040000000 1.0
C      1  0.4559790000000  0.4805600000000  0.4284810000000 1.0
C      1  0.4516590000000  0.5296350000000  0.4383350000000 1.0
C      1  0.5661650000000  0.5261920000000  0.5380440000000 1.0
C      1  0.5375400000000  0.4221590000000  0.4827240000000 1.0
C      1  0.5096510000000  0.5316830000000  0.4201090000000 1.0
C      1  0.5146280000000  0.4432050000000  0.4388000000000 1.0
C      1  0.5332230000000  0.4211670000000  0.5115880000000 1.0
C      1  0.4709500000000  0.4665240000000  0.5444090000000 1.0
C      1  0.4897020000000  0.4683710000000  0.4935340000000 1.0
C      1  0.4853880000000  0.4851390000000  0.5631450000000 1.0
C      1  0.4692800000000  0.5753470000000  0.5124850000000 1.0
C      1  0.4379550000000  0.4752600000000  0.4502260000000 1.0
C      1  0.5447210000000  0.5348860000000  0.5569450000000 1.0
C      1  0.4754940000000  0.5203650000000  0.4886450000000 1.0
C      1  0.5529620000000  0.5058010000000  0.4324970000000 1.0
C      1  0.4355530000000  0.4487970000000  0.5189200000000 1.0
C      1  0.5621690000000  0.5543910000000  0.4676770000000 1.0
C      1  0.5398750000000  0.5523260000000  0.4489020000000 1.0
C      1  0.4681950000000  0.5533900000000  0.4416860000000 1.0
C      1  0.4991600000000  0.5454010000000  0.5954640000000 1.0
C      1  0.4956890000000  0.5530110000000  0.4329880000000 1.0
C      1  0.5487970000000  0.4376110000000  0.5289260000000 1.0
C      1  0.4162490000000  0.4899020000000  0.4915600000000 1.0
C      1  0.5115000000000  0.4724030000000  0.5774900000000 1.0
C      1  0.4968210000000  0.5729210000000  0.4750590000000 1.0
C      1  0.4262680000000  0.4854440000000  0.5508830000000 1.0
C      1  0.4715630000000  0.5441670000000  0.5529820000000 1.0
C      1  0.5371600000000  0.4435170000000  0.5544500000000 1.0
C      1  0.4661460000000  0.5070040000000  0.4247010000000 1.0
C      1  0.5370320000000  0.5311360000000  0.4297510000000 1.0
C      1  0.4531160000000  0.4532790000000  0.4607810000000 1.0
C      1  0.4407400000000  0.4636230000000  0.5440310000000 1.0
C      1  0.5414360000000  0.4676270000000  0.5697710000000 1.0
C      1  0.4863480000000  0.4407080000000  0.5450410000000 1.0
C      1  0.5046900000000  0.4142080000000  0.5068770000000 1.0
C      1  0.5102180000000  0.4852080000000  0.4213450000000 1.0
C      1  0.4531370000000  0.5735820000000  0.4885960000000 1.0
C      1  0.4987480000000  0.4689050000000  0.4430230000000 1.0
C      1  0.5091260000000  0.4441440000000  0.5615960000000 1.0
C      1  0.5803780000000  0.4812510000000  0.5200390000000 1.0
C      1  0.4899010000000  0.5098890000000  0.4700740000000 1.0
C      1  0.4673370000000  0.4471140000000  0.4843630000000 1.0
C      1  0.5183460000000  0.5021680000000  0.5881390000000 1.0
C      1  0.4205000000000  0.5361310000000  0.4821800000000 1.0
C      1  0.4980010000000  0.5506300000000  0.5687870000000 1.0
C      1  0.5025990000000  0.4852990000000  0.4710860000000 1.0
C      1  0.5418960000000  0.5127040000000  0.5759250000000 1.0
C      1  0.5173770000000  0.4927550000000  0.5239970000000 1.0
C      1  0.4944060000000  0.5082680000000  0.4161420000000 1.0
C      1  0.5331920000000  0.4928260000000  0.4816700000000 1.0
C      1  0.4310820000000  0.5126770000000  0.5525840000000 1.0
C      1  0.5916570000000  0.5058730000000  0.4744500000000 1.0
C      1  0.4818710000000  0.4241130000000  0.5219760000000 1.0
C      1  0.4867220000000  0.4303630000000  0.4310430000000 1.0
C      1  0.5514770000000  0.5588760000000  0.5058100000000 1.0
END
