TITL C-82666-6669-3 10.8959680114068 125000 -718.749499568613 0 0 105 (C1) n - 1
REM
REM in /rds/project/t2_vol4/rds-t2-cs072/BORA/CARBON/from-Arr/AIRSS/Generating-Clusters/GAP-ML-2020/Only-C1/SD-CG/HFTN-CG
REM
REM
REM
REM
REM
REM ./C.cell (11c1c37f851c82e70ff6c80c92926a4b)
REM AIRSS Version 0.9.1 bugfix July 2018 build 013d7b7c2542+ Fri, 06 Jul 2018 19:26:36 +0100
REM compiler GCC version 9.3.0
REM options -cpp -mtune=generic -march=x86-64 -g -O0
REM seed -313472920 -760674067 1551878299 1551104281 1968529830 990694709 -1781047390 -1008502610 642295564 142345865 -209572109 -390130570 1044724684 690477355 1696853892 1821972886 581982188 -390669691 -873176338 1783148599 1871294931 -177519761 1488960665 1161375129 -1021877576 -174840273 1819658386 1670415680 1462176679 -525042247 -247587790 -1267908548 -1858531680
REM
CELL 1.54180   50.00000   50.00000   50.00000   90.00000   90.00000   90.00000
LATT -1
SFAC C  
C      1  0.4390120000000  0.4297420000000  0.5083260000000 1.0
C      1  0.5600800000000  0.5447420000000  0.5477680000000 1.0
C      1  0.4531510000000  0.5412800000000  0.4355170000000 1.0
C      1  0.5313740000000  0.5377070000000  0.4257340000000 1.0
C      1  0.5504520000000  0.4676310000000  0.4307580000000 1.0
C      1  0.4689100000000  0.5377950000000  0.5808740000000 1.0
C      1  0.4473570000000  0.5839600000000  0.4932610000000 1.0
C      1  0.4244640000000  0.4648040000000  0.4857190000000 1.0
C      1  0.5329460000000  0.4422830000000  0.5486050000000 1.0
C      1  0.5435250000000  0.5422590000000  0.4507790000000 1.0
C      1  0.4627300000000  0.5588810000000  0.5610090000000 1.0
C      1  0.5219690000000  0.5833380000000  0.5200920000000 1.0
C      1  0.5087770000000  0.4767750000000  0.5130430000000 1.0
C      1  0.4652980000000  0.5164380000000  0.5028100000000 1.0
C      1  0.5128770000000  0.5636010000000  0.5410340000000 1.0
C      1  0.4355630000000  0.5588180000000  0.4831570000000 1.0
C      1  0.4794150000000  0.4723120000000  0.4795650000000 1.0
C      1  0.4210830000000  0.4915590000000  0.4966730000000 1.0
C      1  0.4593400000000  0.5395570000000  0.4855610000000 1.0
C      1  0.5772840000000  0.4563360000000  0.5172960000000 1.0
C      1  0.5707840000000  0.5117060000000  0.4860740000000 1.0
C      1  0.4830460000000  0.5251160000000  0.5244260000000 1.0
C      1  0.4689170000000  0.4640380000000  0.5756450000000 1.0
C      1  0.4554710000000  0.4427270000000  0.5274320000000 1.0
C      1  0.5138010000000  0.4541860000000  0.5672600000000 1.0
C      1  0.4604490000000  0.4901080000000  0.4333010000000 1.0
C      1  0.5340480000000  0.5502960000000  0.5584900000000 1.0
C      1  0.5253240000000  0.4506930000000  0.4800110000000 1.0
C      1  0.5297960000000  0.4913590000000  0.4705150000000 1.0
C      1  0.5859060000000  0.4946770000000  0.5420390000000 1.0
C      1  0.5379050000000  0.4747360000000  0.5154080000000 1.0
C      1  0.5430180000000  0.5132430000000  0.4158930000000 1.0
C      1  0.5253800000000  0.4748410000000  0.4191210000000 1.0
C      1  0.5445230000000  0.4695960000000  0.4870970000000 1.0
C      1  0.5340950000000  0.5683550000000  0.4617830000000 1.0
C      1  0.4283320000000  0.5403470000000  0.5290380000000 1.0
C      1  0.4482090000000  0.4749080000000  0.5599720000000 1.0
C      1  0.5229310000000  0.4986070000000  0.4028340000000 1.0
C      1  0.4199800000000  0.5404970000000  0.5013660000000 1.0
C      1  0.5575080000000  0.5240720000000  0.5109210000000 1.0
C      1  0.5436630000000  0.4167600000000  0.5081700000000 1.0
C      1  0.4998280000000  0.4557310000000  0.4921980000000 1.0
C      1  0.4884730000000  0.4268460000000  0.4920210000000 1.0
C      1  0.4912950000000  0.5664310000000  0.5619760000000 1.0
C      1  0.4155330000000  0.5170170000000  0.4847840000000 1.0
C      1  0.4225560000000  0.5226120000000  0.4570450000000 1.0
C      1  0.4992200000000  0.5135570000000  0.4113530000000 1.0
C      1  0.4805190000000  0.5491820000000  0.4390250000000 1.0
C      1  0.4554910000000  0.4725380000000  0.5315580000000 1.0
C      1  0.5729330000000  0.4605280000000  0.4869500000000 1.0
C      1  0.4887030000000  0.5010850000000  0.4364270000000 1.0
C      1  0.5047850000000  0.5419210000000  0.5174620000000 1.0
C      1  0.4636940000000  0.5101970000000  0.5829580000000 1.0
C      1  0.4607820000000  0.4607130000000  0.4435570000000 1.0
C      1  0.5611040000000  0.5525830000000  0.5207240000000 1.0
C      1  0.4892360000000  0.5061500000000  0.5424320000000 1.0
C      1  0.5519400000000  0.4998170000000  0.5653650000000 1.0
C      1  0.5548090000000  0.4593490000000  0.5377320000000 1.0
C      1  0.5186590000000  0.5900710000000  0.4710200000000 1.0
C      1  0.4825020000000  0.4864640000000  0.5864190000000 1.0
C      1  0.5271920000000  0.5255240000000  0.5041110000000 1.0
C      1  0.4424970000000  0.5022320000000  0.5645030000000 1.0
C      1  0.4784470000000  0.4309560000000  0.5396850000000 1.0
C      1  0.5650970000000  0.5157490000000  0.5424040000000 1.0
C      1  0.4525030000000  0.4567960000000  0.4740300000000 1.0
C      1  0.5025200000000  0.5397550000000  0.4205900000000 1.0
C      1  0.4867470000000  0.4448690000000  0.5635330000000 1.0
C      1  0.5100620000000  0.4819300000000  0.4441400000000 1.0
C      1  0.4416940000000  0.4963970000000  0.5173380000000 1.0
C      1  0.4330600000000  0.5493240000000  0.4551030000000 1.0
C      1  0.4727750000000  0.5928840000000  0.5011780000000 1.0
C      1  0.5528620000000  0.4441530000000  0.4457630000000 1.0
C      1  0.5501490000000  0.4198170000000  0.4820930000000 1.0
C      1  0.4871380000000  0.4813350000000  0.5318610000000 1.0
C      1  0.4835990000000  0.5453540000000  0.4694890000000 1.0
C      1  0.5023230000000  0.5868590000000  0.4960170000000 1.0
C      1  0.5700110000000  0.4380710000000  0.4686080000000 1.0
C      1  0.4535570000000  0.5829580000000  0.5204060000000 1.0
C      1  0.4424060000000  0.5124270000000  0.4367130000000 1.0
C      1  0.5106840000000  0.4814650000000  0.5811730000000 1.0
C      1  0.4908510000000  0.5179050000000  0.4622210000000 1.0
C      1  0.4967170000000  0.4201030000000  0.5208660000000 1.0
C      1  0.5671440000000  0.4776050000000  0.5570890000000 1.0
C      1  0.4899500000000  0.4651760000000  0.4535140000000 1.0
C      1  0.5016260000000  0.5570280000000  0.4906600000000 1.0
C      1  0.5567690000000  0.4982270000000  0.4354530000000 1.0
C      1  0.5246620000000  0.4231140000000  0.5274170000000 1.0
C      1  0.5315050000000  0.5524270000000  0.4860200000000 1.0
C      1  0.4330880000000  0.5141600000000  0.5399430000000 1.0
C      1  0.4452710000000  0.5620280000000  0.5385130000000 1.0
C      1  0.4998760000000  0.4174740000000  0.4645490000000 1.0
C      1  0.5432210000000  0.5691540000000  0.5086280000000 1.0
C      1  0.5915010000000  0.4812580000000  0.5185190000000 1.0
C      1  0.4159030000000  0.4421830000000  0.4983970000000 1.0
C      1  0.4595760000000  0.4321960000000  0.4889010000000 1.0
C      1  0.5528450000000  0.5129590000000  0.4611390000000 1.0
C      1  0.4639700000000  0.4336490000000  0.4318070000000 1.0
C      1  0.4837020000000  0.5018000000000  0.4843980000000 1.0
C      1  0.4817530000000  0.4179000000000  0.4434720000000 1.0
C      1  0.5281800000000  0.5041560000000  0.5789200000000 1.0
C      1  0.5212790000000  0.5327190000000  0.5772540000000 1.0
C      1  0.5859280000000  0.4882880000000  0.4919420000000 1.0
C      1  0.5292920000000  0.4285850000000  0.4621280000000 1.0
C      1  0.4967850000000  0.5459770000000  0.5816900000000 1.0
C      1  0.5125230000000  0.5015970000000  0.4924420000000 1.0
END
