TITL C-82677-6691-9 -0.00912557309086897 125000 -759.159626295 0 0 110 (C1) n - 1
REM
REM in /rds/project/t2_vol4/rds-t2-cs072/BORA/CARBON/from-Arr/AIRSS/Generating-Clusters/GAP-ML-2020/Only-C1/SD-CG/HFTN-CG
REM
REM
REM
REM
REM
REM ./C.cell (11c1c37f851c82e70ff6c80c92926a4b)
REM AIRSS Version 0.9.1 bugfix July 2018 build 013d7b7c2542+ Fri, 06 Jul 2018 19:26:36 +0100
REM compiler GCC version 9.3.0
REM options -cpp -mtune=generic -march=x86-64 -g -O0
REM seed 280475847 -1391865624 215054089 1646998108 -2090862661 -964440739 329160708 -1171953622 1620576404 -201894802 292219535 -441845009 1671956596 -1336169748 -1328665389 619495415 -229888713 -288472359 1285515462 1683688256 -272579687 -15259170 1926706812 -1571757544 740042505 -896789454 -187756915 1480244954 -677944565 -1145092805 -2083236860 1973691525 -1652091447
REM
CELL 1.54180   50.00000   50.00000   50.00000   90.00000   90.00000   90.00000
LATT -1
SFAC C  
C      1  0.4652070000000  0.4442660000000  0.4857070000000 1.0
C      1  0.5517200000000  0.4690680000000  0.4652920000000 1.0
C      1  0.5267920000000  0.5647850000000  0.4488980000000 1.0
C      1  0.5318180000000  0.4883760000000  0.5355300000000 1.0
C      1  0.4137840000000  0.4914780000000  0.5085700000000 1.0
C      1  0.5116860000000  0.5498430000000  0.5731960000000 1.0
C      1  0.4611460000000  0.5100480000000  0.4928300000000 1.0
C      1  0.4634830000000  0.4597350000000  0.4293750000000 1.0
C      1  0.5903000000000  0.5137660000000  0.5026130000000 1.0
C      1  0.5222310000000  0.4588320000000  0.5446380000000 1.0
C      1  0.5167300000000  0.5332590000000  0.5317110000000 1.0
C      1  0.4332260000000  0.5542520000000  0.4917660000000 1.0
C      1  0.5242820000000  0.5217900000000  0.5783470000000 1.0
C      1  0.4846530000000  0.4939910000000  0.5891600000000 1.0
C      1  0.4199780000000  0.5371920000000  0.5104210000000 1.0
C      1  0.5489340000000  0.4803020000000  0.5761180000000 1.0
C      1  0.5374130000000  0.4502660000000  0.4503920000000 1.0
C      1  0.5429270000000  0.5645710000000  0.4729840000000 1.0
C      1  0.5121370000000  0.4142890000000  0.4678120000000 1.0
C      1  0.4532430000000  0.4579670000000  0.5605750000000 1.0
C      1  0.5493670000000  0.5179500000000  0.4628720000000 1.0
C      1  0.5235240000000  0.4664460000000  0.5739680000000 1.0
C      1  0.5649650000000  0.4507090000000  0.5383740000000 1.0
C      1  0.5145260000000  0.4614910000000  0.4323310000000 1.0
C      1  0.5155230000000  0.5190430000000  0.4642620000000 1.0
C      1  0.4708100000000  0.5884380000000  0.4921180000000 1.0
C      1  0.4691220000000  0.5586120000000  0.5299960000000 1.0
C      1  0.5096110000000  0.5988290000000  0.4872310000000 1.0
C      1  0.5743630000000  0.5359140000000  0.5076510000000 1.0
C      1  0.4790720000000  0.5476270000000  0.4346080000000 1.0
C      1  0.4079490000000  0.5153660000000  0.4961050000000 1.0
C      1  0.4983920000000  0.4551520000000  0.5263240000000 1.0
C      1  0.4478590000000  0.4096040000000  0.4826750000000 1.0
C      1  0.5529250000000  0.5388010000000  0.4860060000000 1.0
C      1  0.4473560000000  0.4629450000000  0.5000630000000 1.0
C      1  0.5295670000000  0.5262640000000  0.5045350000000 1.0
C      1  0.4155790000000  0.4969890000000  0.4496000000000 1.0
C      1  0.4451500000000  0.5084590000000  0.4256590000000 1.0
C      1  0.4340240000000  0.4972940000000  0.5318210000000 1.0
C      1  0.5470750000000  0.5823740000000  0.5183150000000 1.0
C      1  0.4319470000000  0.5279590000000  0.5343010000000 1.0
C      1  0.4926730000000  0.5297750000000  0.4162900000000 1.0
C      1  0.4934570000000  0.4271800000000  0.4522440000000 1.0
C      1  0.5414230000000  0.4681720000000  0.4937400000000 1.0
C      1  0.4620800000000  0.5321130000000  0.5721270000000 1.0
C      1  0.5067460000000  0.5351470000000  0.4879620000000 1.0
C      1  0.5657560000000  0.4536150000000  0.5077880000000 1.0
C      1  0.5355600000000  0.4195820000000  0.5185670000000 1.0
C      1  0.4960850000000  0.5742400000000  0.5283620000000 1.0
C      1  0.4463840000000  0.4304410000000  0.4652600000000 1.0
C      1  0.4854250000000  0.5303860000000  0.5276530000000 1.0
C      1  0.4505610000000  0.5443520000000  0.5488180000000 1.0
C      1  0.4982940000000  0.4068700000000  0.4922550000000 1.0
C      1  0.5307350000000  0.4946680000000  0.5078360000000 1.0
C      1  0.4926460000000  0.4494880000000  0.4745050000000 1.0
C      1  0.4971820000000  0.4688690000000  0.5836910000000 1.0
C      1  0.5200340000000  0.5335600000000  0.4121550000000 1.0
C      1  0.4687300000000  0.4341620000000  0.5524110000000 1.0
C      1  0.5326060000000  0.5819180000000  0.4939000000000 1.0
C      1  0.4993690000000  0.4710260000000  0.4566090000000 1.0
C      1  0.5368060000000  0.5486630000000  0.4288470000000 1.0
C      1  0.4869550000000  0.5400270000000  0.5832740000000 1.0
C      1  0.5164250000000  0.5091300000000  0.5498090000000 1.0
C      1  0.5032260000000  0.4864340000000  0.4988430000000 1.0
C      1  0.4184190000000  0.5039880000000  0.4221300000000 1.0
C      1  0.5478060000000  0.5644160000000  0.5384410000000 1.0
C      1  0.4137340000000  0.5193320000000  0.4682490000000 1.0
C      1  0.5691360000000  0.5190760000000  0.5555920000000 1.0
C      1  0.5664720000000  0.5410520000000  0.5363350000000 1.0
C      1  0.5877270000000  0.4721650000000  0.5023780000000 1.0
C      1  0.4327810000000  0.5403320000000  0.4654970000000 1.0
C      1  0.4842400000000  0.4274780000000  0.5277400000000 1.0
C      1  0.4646880000000  0.4872070000000  0.4193650000000 1.0
C      1  0.4220930000000  0.4706100000000  0.4900620000000 1.0
C      1  0.4689360000000  0.5068110000000  0.4664410000000 1.0
C      1  0.4919420000000  0.5970260000000  0.5104830000000 1.0
C      1  0.4543470000000  0.5694220000000  0.5045280000000 1.0
C      1  0.5937800000000  0.4925360000000  0.5224230000000 1.0
C      1  0.5502480000000  0.4286510000000  0.4954840000000 1.0
C      1  0.4815710000000  0.5280350000000  0.4996850000000 1.0
C      1  0.5411760000000  0.4371220000000  0.5398320000000 1.0
C      1  0.4957750000000  0.5689840000000  0.4476610000000 1.0
C      1  0.5507710000000  0.5097110000000  0.5763160000000 1.0
C      1  0.4896900000000  0.5878440000000  0.4685890000000 1.0
C      1  0.4221410000000  0.4712930000000  0.4612230000000 1.0
C      1  0.4891130000000  0.5003950000000  0.4146160000000 1.0
C      1  0.5340000000000  0.5087130000000  0.4165480000000 1.0
C      1  0.4644720000000  0.5026350000000  0.5694480000000 1.0
C      1  0.5104100000000  0.5622790000000  0.5024200000000 1.0
C      1  0.4975140000000  0.4965810000000  0.4686060000000 1.0
C      1  0.4415840000000  0.4530930000000  0.4480930000000 1.0
C      1  0.4847400000000  0.4829840000000  0.5232960000000 1.0
C      1  0.4576690000000  0.4870610000000  0.5122660000000 1.0
C      1  0.4436210000000  0.4845240000000  0.5573060000000 1.0
C      1  0.5007440000000  0.5160170000000  0.5942500000000 1.0
C      1  0.5862440000000  0.4934740000000  0.4824130000000 1.0
C      1  0.4709880000000  0.4170000000000  0.4994150000000 1.0
C      1  0.5090750000000  0.4109760000000  0.5173270000000 1.0
C      1  0.5110140000000  0.4573820000000  0.4975190000000 1.0
C      1  0.4873130000000  0.5041170000000  0.5435770000000 1.0
C      1  0.4893270000000  0.4443590000000  0.4295710000000 1.0
C      1  0.5659020000000  0.4935390000000  0.4633080000000 1.0
C      1  0.5834230000000  0.4949360000000  0.5479420000000 1.0
C      1  0.5692930000000  0.4714880000000  0.5577440000000 1.0
C      1  0.5153520000000  0.4874660000000  0.4169630000000 1.0
C      1  0.5185000000000  0.5608550000000  0.5466940000000 1.0
C      1  0.4570800000000  0.5304940000000  0.4471690000000 1.0
C      1  0.5515390000000  0.5239570000000  0.4347100000000 1.0
C      1  0.5371450000000  0.4275190000000  0.4691250000000 1.0
C      1  0.4769120000000  0.4509070000000  0.5735190000000 1.0
END
