TITL C-82674-7925-3 0.196124797893038 125000 -44.6718563590422 0 0 8 (Cs) n - 1
REM
REM in /rds/project/t2_vol4/rds-t2-cs072/BORA/CARBON/from-Arr/AIRSS/Generating-Clusters/GAP-ML-2020/Only-C1/SD-CG/HFTN-CG
REM
REM
REM
REM
REM
REM ./C.cell (11c1c37f851c82e70ff6c80c92926a4b)
REM AIRSS Version 0.9.1 bugfix July 2018 build 013d7b7c2542+ Fri, 06 Jul 2018 19:26:36 +0100
REM compiler GCC version 9.3.0
REM options -cpp -mtune=generic -march=x86-64 -g -O0
REM seed 909279911 183195015 -1006503552 1080801423 -1654539240 382078961 -1394299512 1775562260 -1981412328 -1186522415 1042551916 399976760 1873668469 -287992514 -935844715 192419907 870667078 223664222 -1636059716 1381980646 -1922643231 -1781883696 -350131644 2128106438 -1592780459 166440228 2070566314 1978418567 102071504 -1122817191 -212327022 878842856 82763306
REM
CELL 1.54180   50.00000   50.00000   50.00000   90.00000   90.00000   90.00000
LATT -1
SFAC C  
C      1  0.4965190000000  0.4979400000000  0.4453030000000 1.0
C      1  0.4979480000000  0.4992080000000  0.4703670000000 1.0
C      1  0.4897470000000  0.5228220000000  0.5172600000000 1.0
C      1  0.4770330000000  0.5472980000000  0.5150430000000 1.0
C      1  0.5136230000000  0.4743050000000  0.5056540000000 1.0
C      1  0.4988530000000  0.5085960000000  0.5392340000000 1.0
C      1  0.5011140000000  0.4974600000000  0.4977510000000 1.0
C      1  0.5251620000000  0.4523700000000  0.5093870000000 1.0
END
