TITL C-82678-8371-2 94.6080834997938 125000 -279.119919140739 0 0 42 (C1) n - 1
REM
REM in /rds/project/t2_vol4/rds-t2-cs072/BORA/CARBON/from-Arr/AIRSS/Generating-Clusters/GAP-ML-2020/Only-C1/SD-CG/HFTN-CG
REM
REM
REM
REM
REM
REM ./C.cell (11c1c37f851c82e70ff6c80c92926a4b)
REM AIRSS Version 0.9.1 bugfix July 2018 build 013d7b7c2542+ Fri, 06 Jul 2018 19:26:36 +0100
REM compiler GCC version 9.3.0
REM options -cpp -mtune=generic -march=x86-64 -g -O0
REM seed 684146605 -2036559936 -1001628805 1117203216 -1818662673 1540578774 1706042836 1095439519 -919536678 -841141922 1766794689 1224576298 892785026 527796956 -518345723 -329093597 1088644034 -1004527590 1815484822 76016731 -2120278873 -1617736386 1781106676 -1989598945 -594449472 875968881 -159598578 -1889969673 97744601 -376239664 -393235089 -1582077452 822313282
REM
CELL 1.54180   50.00000   50.00000   50.00000   90.00000   90.00000   90.00000
LATT -1
SFAC C  
C      1  0.4638720000000  0.4657130000000  0.4854870000000 1.0
C      1  0.5068400000000  0.4537690000000  0.4782990000000 1.0
C      1  0.4927670000000  0.4669720000000  0.5022110000000 1.0
C      1  0.4565880000000  0.5126700000000  0.4768730000000 1.0
C      1  0.5164040000000  0.5093190000000  0.5472150000000 1.0
C      1  0.5140000000000  0.5612220000000  0.4981010000000 1.0
C      1  0.4901650000000  0.5660600000000  0.4836940000000 1.0
C      1  0.4563980000000  0.4716890000000  0.5356680000000 1.0
C      1  0.4500540000000  0.4477530000000  0.5255150000000 1.0
C      1  0.4701770000000  0.5155500000000  0.5309340000000 1.0
C      1  0.5270540000000  0.4644340000000  0.5290860000000 1.0
C      1  0.4827820000000  0.4738750000000  0.5467960000000 1.0
C      1  0.5244680000000  0.5349290000000  0.5383690000000 1.0
C      1  0.4588140000000  0.4417340000000  0.5006600000000 1.0
C      1  0.4674110000000  0.5541060000000  0.4978840000000 1.0
C      1  0.5014610000000  0.4948930000000  0.4986230000000 1.0
C      1  0.5342970000000  0.4898050000000  0.5382510000000 1.0
C      1  0.4828280000000  0.4642000000000  0.4617110000000 1.0
C      1  0.5320870000000  0.4683550000000  0.4815880000000 1.0
C      1  0.5665260000000  0.5174870000000  0.5161950000000 1.0
C      1  0.4787740000000  0.4228170000000  0.4945960000000 1.0
C      1  0.5059230000000  0.5051520000000  0.4395190000000 1.0
C      1  0.5005720000000  0.4578580000000  0.5304030000000 1.0
C      1  0.4561940000000  0.5402450000000  0.4756220000000 1.0
C      1  0.4891440000000  0.5012100000000  0.5473080000000 1.0
C      1  0.5445110000000  0.4660580000000  0.5063130000000 1.0
C      1  0.4527560000000  0.4958380000000  0.5203090000000 1.0
C      1  0.5056650000000  0.5490080000000  0.5229310000000 1.0
C      1  0.4836560000000  0.5501300000000  0.4610040000000 1.0
C      1  0.4497690000000  0.4910540000000  0.4926210000000 1.0
C      1  0.5281010000000  0.4980080000000  0.4893210000000 1.0
C      1  0.4781950000000  0.5403790000000  0.5203810000000 1.0
C      1  0.5519510000000  0.5387500000000  0.5316160000000 1.0
C      1  0.5292250000000  0.5230330000000  0.4713420000000 1.0
C      1  0.5319150000000  0.5121830000000  0.4435280000000 1.0
C      1  0.5579240000000  0.5429870000000  0.5054450000000 1.0
C      1  0.4853440000000  0.5060650000000  0.4767850000000 1.0
C      1  0.5375990000000  0.5472600000000  0.4861580000000 1.0
C      1  0.5491570000000  0.4957280000000  0.5120090000000 1.0
C      1  0.5015390000000  0.4261160000000  0.4841740000000 1.0
C      1  0.4869330000000  0.4887070000000  0.4519650000000 1.0
C      1  0.5001600000000  0.5268800000000  0.4634920000000 1.0
END
