TITL C-82669-8262-2 41.1908123691 125000 -513.483466272235 0 0 74 (C1) n - 1
REM
REM in /rds/project/t2_vol4/rds-t2-cs072/BORA/CARBON/from-Arr/AIRSS/Generating-Clusters/GAP-ML-2020/Only-C1/SD-CG/HFTN-CG
REM
REM
REM
REM
REM
REM ./C.cell (11c1c37f851c82e70ff6c80c92926a4b)
REM AIRSS Version 0.9.1 bugfix July 2018 build 013d7b7c2542+ Fri, 06 Jul 2018 19:26:36 +0100
REM compiler GCC version 9.3.0
REM options -cpp -mtune=generic -march=x86-64 -g -O0
REM seed -207421837 -1198387656 -237662128 1031560002 667525746 1490138032 -1509038347 1594821088 797494396 1945055484 -1678437564 1499565446 -1395836386 -260884665 -1152365722 -319340751 805255195 -2107132582 404181542 1322316418 -559109226 -1166352870 -1126553941 -1061110239 -1996727181 -2054311531 -1750430347 90529743 423375235 1247441794 -581065716 1488520052 -1164901225
REM
CELL 1.54180   50.00000   50.00000   50.00000   90.00000   90.00000   90.00000
LATT -1
SFAC C  
C      1  0.4344480000000  0.4804990000000  0.5234140000000 1.0
C      1  0.5611830000000  0.4950050000000  0.5204150000000 1.0
C      1  0.5714900000000  0.4851780000000  0.4777970000000 1.0
C      1  0.5511480000000  0.5286720000000  0.5611210000000 1.0
C      1  0.4692350000000  0.5066790000000  0.4210710000000 1.0
C      1  0.5538440000000  0.5342740000000  0.4780810000000 1.0
C      1  0.5751260000000  0.4744260000000  0.5046370000000 1.0
C      1  0.5268910000000  0.5190970000000  0.5735450000000 1.0
C      1  0.4933740000000  0.5467010000000  0.4359400000000 1.0
C      1  0.4735220000000  0.5656500000000  0.4797490000000 1.0
C      1  0.4471720000000  0.5110370000000  0.4381230000000 1.0
C      1  0.5300700000000  0.5160820000000  0.4325930000000 1.0
C      1  0.5233740000000  0.5668110000000  0.4912930000000 1.0
C      1  0.5574380000000  0.4687160000000  0.4600640000000 1.0
C      1  0.4518080000000  0.5553840000000  0.4947990000000 1.0
C      1  0.4956330000000  0.4297440000000  0.4853430000000 1.0
C      1  0.4837210000000  0.4346830000000  0.4601320000000 1.0
C      1  0.4369060000000  0.5366730000000  0.4794740000000 1.0
C      1  0.4514810000000  0.4468660000000  0.4909650000000 1.0
C      1  0.5141450000000  0.4675350000000  0.5585360000000 1.0
C      1  0.5616830000000  0.4487910000000  0.5061460000000 1.0
C      1  0.4564120000000  0.4439940000000  0.4630260000000 1.0
C      1  0.4595890000000  0.5511790000000  0.5215820000000 1.0
C      1  0.5671820000000  0.5129690000000  0.5436430000000 1.0
C      1  0.5119960000000  0.5132870000000  0.5102340000000 1.0
C      1  0.5103480000000  0.5097040000000  0.4126200000000 1.0
C      1  0.4788560000000  0.4881670000000  0.4920560000000 1.0
C      1  0.5063060000000  0.4797480000000  0.4484530000000 1.0
C      1  0.4978340000000  0.5073910000000  0.5343920000000 1.0
C      1  0.4869220000000  0.5614130000000  0.5254510000000 1.0
C      1  0.4955840000000  0.5699890000000  0.4982760000000 1.0
C      1  0.4482510000000  0.5355990000000  0.4533130000000 1.0
C      1  0.5338610000000  0.5519390000000  0.4677260000000 1.0
C      1  0.5412610000000  0.5620100000000  0.5130190000000 1.0
C      1  0.5330420000000  0.5614950000000  0.5405460000000 1.0
C      1  0.4475480000000  0.4628170000000  0.4452860000000 1.0
C      1  0.5724350000000  0.5227800000000  0.5186650000000 1.0
C      1  0.4702580000000  0.5161200000000  0.5482990000000 1.0
C      1  0.5604550000000  0.5427740000000  0.5040310000000 1.0
C      1  0.4493240000000  0.5273070000000  0.5333190000000 1.0
C      1  0.4265700000000  0.4882370000000  0.4778520000000 1.0
C      1  0.4899510000000  0.4927810000000  0.5829090000000 1.0
C      1  0.5503970000000  0.4456350000000  0.4771960000000 1.0
C      1  0.4855490000000  0.4668750000000  0.5697530000000 1.0
C      1  0.5274110000000  0.4414680000000  0.5471260000000 1.0
C      1  0.5490630000000  0.5051250000000  0.4763510000000 1.0
C      1  0.4876610000000  0.5277440000000  0.4153520000000 1.0
C      1  0.5035760000000  0.5364080000000  0.5691690000000 1.0
C      1  0.5368850000000  0.4921100000000  0.4509430000000 1.0
C      1  0.4795370000000  0.4328760000000  0.5356720000000 1.0
C      1  0.4807360000000  0.5186110000000  0.5741210000000 1.0
C      1  0.4362620000000  0.4871600000000  0.4509950000000 1.0
C      1  0.4332660000000  0.4678950000000  0.4972900000000 1.0
C      1  0.5478150000000  0.4415680000000  0.5287410000000 1.0
C      1  0.4467610000000  0.4680250000000  0.5433640000000 1.0
C      1  0.4997500000000  0.4796170000000  0.5359150000000 1.0
C      1  0.4660170000000  0.4528640000000  0.5539740000000 1.0
C      1  0.4929800000000  0.5124900000000  0.4895410000000 1.0
C      1  0.4322930000000  0.5094430000000  0.5190680000000 1.0
C      1  0.5214560000000  0.5421850000000  0.4442120000000 1.0
C      1  0.4901210000000  0.4955160000000  0.4680440000000 1.0
C      1  0.5041620000000  0.4247410000000  0.5441770000000 1.0
C      1  0.4265840000000  0.5133990000000  0.4915290000000 1.0
C      1  0.5198330000000  0.4692220000000  0.4989260000000 1.0
C      1  0.5182430000000  0.4923320000000  0.5775170000000 1.0
C      1  0.4935830000000  0.4887250000000  0.4221110000000 1.0
C      1  0.5217960000000  0.4449080000000  0.4783720000000 1.0
C      1  0.5062090000000  0.4507180000000  0.4538810000000 1.0
C      1  0.5051490000000  0.5566570000000  0.5471550000000 1.0
C      1  0.5343360000000  0.4949980000000  0.5026000000000 1.0
C      1  0.4715530000000  0.5535770000000  0.4533740000000 1.0
C      1  0.5528780000000  0.5565150000000  0.5593950000000 1.0
C      1  0.4926160000000  0.4687760000000  0.5099330000000 1.0
C      1  0.4778480000000  0.4416120000000  0.5062690000000 1.0
END
