TITL C-82688-7458-4 -0.0465905965514279 125000 -233.100747934856 0 0 36 (C1) n - 1
REM
REM in /rds/project/t2_vol4/rds-t2-cs072/BORA/CARBON/from-Arr/AIRSS/Generating-Clusters/GAP-ML-2020/Only-C1/SD-CG/HFTN-CG
REM
REM
REM
REM
REM
REM ./C.cell (11c1c37f851c82e70ff6c80c92926a4b)
REM AIRSS Version 0.9.1 bugfix July 2018 build 013d7b7c2542+ Fri, 06 Jul 2018 19:26:36 +0100
REM compiler GCC version 9.3.0
REM options -cpp -mtune=generic -march=x86-64 -g -O0
REM seed -970494025 1598108316 1356189913 -1613522657 -466092460 -1905710539 -987132898 823920001 -1125049730 -326441916 -1578372538 -1565821062 -843371590 1704792689 -1345979795 -1889319088 -509034813 -2134709737 -1405436391 1842866770 -1210552781 -596068107 -1836557386 1246110279 -1023226081 1342334926 -1935438205 -17829694 -1093808327 -399862118 -1075252437 -1720694754 1854201877
REM
CELL 1.54180   50.00000   50.00000   50.00000   90.00000   90.00000   90.00000
LATT -1
SFAC C  
C      1  0.5590820000000  0.4764960000000  0.5157470000000 1.0
C      1  0.4432940000000  0.4900850000000  0.4600160000000 1.0
C      1  0.4793630000000  0.5597260000000  0.5420130000000 1.0
C      1  0.4969170000000  0.5387570000000  0.4758700000000 1.0
C      1  0.4476950000000  0.4844650000000  0.4860040000000 1.0
C      1  0.5653210000000  0.5114680000000  0.4775390000000 1.0
C      1  0.5331440000000  0.4500530000000  0.4963700000000 1.0
C      1  0.5179040000000  0.5003850000000  0.4627030000000 1.0
C      1  0.5112820000000  0.4468670000000  0.4790390000000 1.0
C      1  0.4545740000000  0.5281900000000  0.5108660000000 1.0
C      1  0.4530730000000  0.5044360000000  0.4399740000000 1.0
C      1  0.5055180000000  0.4909790000000  0.4888490000000 1.0
C      1  0.5588660000000  0.4589080000000  0.4868310000000 1.0
C      1  0.5393460000000  0.5199150000000  0.4756700000000 1.0
C      1  0.5245880000000  0.4771130000000  0.4462610000000 1.0
C      1  0.4757060000000  0.5281090000000  0.4911080000000 1.0
C      1  0.4922680000000  0.4652340000000  0.4893100000000 1.0
C      1  0.4631110000000  0.5369720000000  0.5360990000000 1.0
C      1  0.5022860000000  0.5453610000000  0.5396760000000 1.0
C      1  0.4467510000000  0.4997050000000  0.5114920000000 1.0
C      1  0.5621420000000  0.4869390000000  0.4895260000000 1.0
C      1  0.4754680000000  0.5179820000000  0.4364200000000 1.0
C      1  0.4946270000000  0.5115260000000  0.5050130000000 1.0
C      1  0.5150220000000  0.5290770000000  0.5182490000000 1.0
C      1  0.5176560000000  0.4536470000000  0.4521830000000 1.0
C      1  0.4971870000000  0.5215850000000  0.4531020000000 1.0
C      1  0.4640790000000  0.4790420000000  0.5252410000000 1.0
C      1  0.5247320000000  0.5091610000000  0.5401800000000 1.0
C      1  0.5079320000000  0.5225920000000  0.5587020000000 1.0
C      1  0.4845310000000  0.5057950000000  0.5591310000000 1.0
C      1  0.5338900000000  0.4648710000000  0.5226230000000 1.0
C      1  0.5220910000000  0.5368170000000  0.4905340000000 1.0
C      1  0.4612190000000  0.5196310000000  0.5583130000000 1.0
C      1  0.4662390000000  0.4657660000000  0.4992060000000 1.0
C      1  0.4870490000000  0.4815160000000  0.5435070000000 1.0
C      1  0.5160460000000  0.4808300000000  0.5366320000000 1.0
END
