TITL C-82692-8281-1 0.0799718147415141 125000 -383.852081529306 0 0 55 (C1) n - 1
REM
REM in /rds/project/t2_vol4/rds-t2-cs072/BORA/CARBON/from-Arr/AIRSS/Generating-Clusters/GAP-ML-2020/Only-C1/SD-CG/HFTN-CG
REM
REM
REM
REM
REM
REM ./C.cell (11c1c37f851c82e70ff6c80c92926a4b)
REM AIRSS Version 0.9.1 bugfix July 2018 build 013d7b7c2542+ Fri, 06 Jul 2018 19:26:36 +0100
REM compiler GCC version 9.3.0
REM options -cpp -mtune=generic -march=x86-64 -g -O0
REM seed 1917480438 931914055 -752834974 256267193 -1538506567 1601214066 -1642883770 -842121556 -571327506 458514963 1918580355 -1204824747 1651302773 1335942474 168497450 2108942302 -1426749800 -576795540 310292783 687403982 1109704172 2015141560 508961955 1850334592 710548550 972016056 712644294 2103217894 48101295 -1565629423 2142924241 -783198965 1161844606
REM
CELL 1.54180   50.00000   50.00000   50.00000   90.00000   90.00000   90.00000
LATT -1
SFAC C  
C      1  0.4396690000000  0.4927530000000  0.4920780000000 1.0
C      1  0.5457130000000  0.4736700000000  0.4664630000000 1.0
C      1  0.5282720000000  0.4967640000000  0.5058660000000 1.0
C      1  0.5401490000000  0.5068210000000  0.5360900000000 1.0
C      1  0.5515520000000  0.5314520000000  0.5230510000000 1.0
C      1  0.4846420000000  0.4999890000000  0.4955790000000 1.0
C      1  0.5094750000000  0.5422440000000  0.5423360000000 1.0
C      1  0.4775870000000  0.4533190000000  0.4510650000000 1.0
C      1  0.5110450000000  0.4383320000000  0.4791780000000 1.0
C      1  0.5394810000000  0.5462430000000  0.4811130000000 1.0
C      1  0.4728100000000  0.4625070000000  0.5405610000000 1.0
C      1  0.5221210000000  0.5188300000000  0.4873310000000 1.0
C      1  0.4460080000000  0.4659740000000  0.4824110000000 1.0
C      1  0.4566650000000  0.5388110000000  0.4763050000000 1.0
C      1  0.4601060000000  0.5362190000000  0.5470270000000 1.0
C      1  0.5302370000000  0.5509850000000  0.5247280000000 1.0
C      1  0.5232640000000  0.5624560000000  0.4994920000000 1.0
C      1  0.5608350000000  0.5313420000000  0.4952460000000 1.0
C      1  0.4993360000000  0.4700740000000  0.5524680000000 1.0
C      1  0.4758980000000  0.5618770000000  0.5125550000000 1.0
C      1  0.5351950000000  0.4461050000000  0.5234850000000 1.0
C      1  0.4857110000000  0.5472200000000  0.4697660000000 1.0
C      1  0.4687840000000  0.5032110000000  0.5603990000000 1.0
C      1  0.4943880000000  0.4241070000000  0.5217290000000 1.0
C      1  0.4482550000000  0.5122040000000  0.4702350000000 1.0
C      1  0.5085150000000  0.5175010000000  0.4354310000000 1.0
C      1  0.4554710000000  0.4698510000000  0.4556040000000 1.0
C      1  0.4724730000000  0.4409160000000  0.5211920000000 1.0
C      1  0.4556310000000  0.5247170000000  0.5717250000000 1.0
C      1  0.5258700000000  0.4614160000000  0.5466190000000 1.0
C      1  0.5662620000000  0.5064500000000  0.4833060000000 1.0
C      1  0.4527850000000  0.5469480000000  0.5028490000000 1.0
C      1  0.5532630000000  0.5001300000000  0.4573350000000 1.0
C      1  0.4554860000000  0.4852860000000  0.5414500000000 1.0
C      1  0.5571430000000  0.4644070000000  0.5185650000000 1.0
C      1  0.4826550000000  0.5515500000000  0.5380410000000 1.0
C      1  0.5024270000000  0.4834180000000  0.5055610000000 1.0
C      1  0.5004450000000  0.4684670000000  0.4442460000000 1.0
C      1  0.4972210000000  0.4973690000000  0.5602380000000 1.0
C      1  0.5328410000000  0.5453050000000  0.4536750000000 1.0
C      1  0.4439160000000  0.5293200000000  0.5234290000000 1.0
C      1  0.4954320000000  0.5242440000000  0.4879960000000 1.0
C      1  0.4621370000000  0.4436130000000  0.4938210000000 1.0
C      1  0.4955860000000  0.5646110000000  0.4922760000000 1.0
C      1  0.4907190000000  0.4960900000000  0.4389520000000 1.0
C      1  0.5540870000000  0.4816370000000  0.4952150000000 1.0
C      1  0.4826070000000  0.4370070000000  0.4738390000000 1.0
C      1  0.4413380000000  0.5008450000000  0.5199040000000 1.0
C      1  0.5161550000000  0.5163910000000  0.5513990000000 1.0
C      1  0.4624130000000  0.4968280000000  0.4497690000000 1.0
C      1  0.5373370000000  0.5183620000000  0.4426050000000 1.0
C      1  0.5484500000000  0.4798860000000  0.5428280000000 1.0
C      1  0.5168780000000  0.4323840000000  0.5072020000000 1.0
C      1  0.5041180000000  0.5437510000000  0.4477510000000 1.0
C      1  0.5231380000000  0.4577960000000  0.4606220000000 1.0
END
