TITL C-82662-7771-1 0.00742980975963706 125000 -29.7959809811857 0 0 5 (D(inf)h) n - 1
REM
REM in /rds/project/t2_vol4/rds-t2-cs072/BORA/CARBON/from-Arr/AIRSS/Generating-Clusters/GAP-ML-2020/Only-C1/SD-CG/HFTN-CG
REM
REM
REM
REM
REM
REM ./C.cell (11c1c37f851c82e70ff6c80c92926a4b)
REM AIRSS Version 0.9.1 bugfix July 2018 build 013d7b7c2542+ Fri, 06 Jul 2018 19:26:36 +0100
REM compiler GCC version 9.3.0
REM options -cpp -mtune=generic -march=x86-64 -g -O0
REM seed 1888033214 1664044568 -1913495814 -1622941311 787988073 -958426809 854898606 156793896 1614003126 -1769894023 1761475596 45039111 -1327337910 337706818 1416397 -699246210 -592547583 -527020429 9063049 1919610315 -1639349030 -52142609 243794738 355579130 1830766128 2035731390 1032765005 -266995561 -14090900 -1155345286 -273260865 -1973005511 1434072014
REM
CELL 1.54180   50.00000   50.00000   50.00000   90.00000   90.00000   90.00000
LATT -1
SFAC C  
C      1  0.5000000000000  0.5000000000000  0.5000000000000 1.0
C      1  0.4991820000000  0.4791780000000  0.4847100000000 1.0
C      1  0.5008180000000  0.5208220000000  0.5152900000000 1.0
C      1  0.4983630000000  0.4583440000000  0.4694110000000 1.0
C      1  0.5016370000000  0.5416560000000  0.5305890000000 1.0
END
