TITL C-82684-7043-7 0.0310675155055522 125000 -363.538768537338 0 0 54 (C1) n - 1
REM
REM in /rds/project/t2_vol4/rds-t2-cs072/BORA/CARBON/from-Arr/AIRSS/Generating-Clusters/GAP-ML-2020/Only-C1/SD-CG/HFTN-CG
REM
REM
REM
REM
REM
REM ./C.cell (11c1c37f851c82e70ff6c80c92926a4b)
REM AIRSS Version 0.9.1 bugfix July 2018 build 013d7b7c2542+ Fri, 06 Jul 2018 19:26:36 +0100
REM compiler GCC version 9.3.0
REM options -cpp -mtune=generic -march=x86-64 -g -O0
REM seed -955617707 -1406245463 1958696295 758080590 2109792554 -1247043343 -1015152067 80009372 1442164571 708720027 623066148 1368408906 704754795 -1933934136 398612910 -1296246581 1893876240 113448210 1439358291 -411314009 -153136914 1803788958 -1285913441 1162051778 -46292731 1762273843 1659936716 -2067963812 1784486429 -479866965 1889063040 -12245861 -654322302
REM
CELL 1.54180   50.00000   50.00000   50.00000   90.00000   90.00000   90.00000
LATT -1
SFAC C  
C      1  0.4813670000000  0.4971740000000  0.4697880000000 1.0
C      1  0.4459090000000  0.5203000000000  0.5197320000000 1.0
C      1  0.4596730000000  0.4574050000000  0.4875650000000 1.0
C      1  0.5100380000000  0.4397600000000  0.4798130000000 1.0
C      1  0.5501030000000  0.4705310000000  0.4609080000000 1.0
C      1  0.4994030000000  0.5661740000000  0.5184730000000 1.0
C      1  0.5226700000000  0.5087550000000  0.4556240000000 1.0
C      1  0.4621590000000  0.4716350000000  0.5356900000000 1.0
C      1  0.5027190000000  0.4361800000000  0.5325430000000 1.0
C      1  0.5038590000000  0.5138400000000  0.5650910000000 1.0
C      1  0.5037520000000  0.5536260000000  0.4640530000000 1.0
C      1  0.5513780000000  0.4975770000000  0.4539780000000 1.0
C      1  0.5204190000000  0.5191620000000  0.4841180000000 1.0
C      1  0.4901670000000  0.5033840000000  0.5175620000000 1.0
C      1  0.4371710000000  0.5253580000000  0.4698470000000 1.0
C      1  0.5249310000000  0.5575470000000  0.5095310000000 1.0
C      1  0.4611650000000  0.4749380000000  0.4377990000000 1.0
C      1  0.5016360000000  0.4306520000000  0.5049430000000 1.0
C      1  0.4969810000000  0.5565990000000  0.5453980000000 1.0
C      1  0.5362660000000  0.5052230000000  0.5025890000000 1.0
C      1  0.4516530000000  0.4608710000000  0.5133860000000 1.0
C      1  0.4881480000000  0.4772400000000  0.4304160000000 1.0
C      1  0.5507970000000  0.4457320000000  0.5341160000000 1.0
C      1  0.4898890000000  0.4620320000000  0.5399780000000 1.0
C      1  0.4910880000000  0.5135680000000  0.4918270000000 1.0
C      1  0.5688110000000  0.4851590000000  0.4739940000000 1.0
C      1  0.4769600000000  0.5563090000000  0.4750880000000 1.0
C      1  0.5047650000000  0.5306930000000  0.4464640000000 1.0
C      1  0.4638560000000  0.5013690000000  0.5354090000000 1.0
C      1  0.4563800000000  0.4793510000000  0.4676390000000 1.0
C      1  0.5243850000000  0.5486930000000  0.4830250000000 1.0
C      1  0.5375600000000  0.5400150000000  0.5301540000000 1.0
C      1  0.4600490000000  0.5380610000000  0.4607030000000 1.0
C      1  0.5747860000000  0.4819350000000  0.5021580000000 1.0
C      1  0.5050680000000  0.4839260000000  0.4559790000000 1.0
C      1  0.4778600000000  0.5193990000000  0.4468100000000 1.0
C      1  0.4827330000000  0.4405110000000  0.4863310000000 1.0
C      1  0.4719400000000  0.5448760000000  0.5481430000000 1.0
C      1  0.5176570000000  0.5374990000000  0.5517180000000 1.0
C      1  0.4339360000000  0.5138440000000  0.4957110000000 1.0
C      1  0.5053360000000  0.4802950000000  0.5207730000000 1.0
C      1  0.4704990000000  0.4992460000000  0.4271740000000 1.0
C      1  0.4748200000000  0.5610940000000  0.5038020000000 1.0
C      1  0.4751910000000  0.5177670000000  0.5574260000000 1.0
C      1  0.4339550000000  0.4975880000000  0.4726670000000 1.0
C      1  0.5789340000000  0.5064710000000  0.5168180000000 1.0
C      1  0.5271230000000  0.4446600000000  0.5474130000000 1.0
C      1  0.4581000000000  0.5462270000000  0.5230670000000 1.0
C      1  0.5110100000000  0.4652330000000  0.5624340000000 1.0
C      1  0.5129990000000  0.4895810000000  0.5746780000000 1.0
C      1  0.5543860000000  0.4632810000000  0.5134200000000 1.0
C      1  0.5230930000000  0.4655690000000  0.4728030000000 1.0
C      1  0.5554170000000  0.5192720000000  0.5201530000000 1.0
C      1  0.5290450000000  0.4768130000000  0.5032770000000 1.0
END
