TITL C-82680-7743-5 0.0274887681360009 125000 -824.366579757442 0 0 120 (C1) n - 1
REM
REM in /rds/project/t2_vol4/rds-t2-cs072/BORA/CARBON/from-Arr/AIRSS/Generating-Clusters/GAP-ML-2020/Only-C1/SD-CG/HFTN-CG
REM
REM
REM
REM
REM
REM ./C.cell (11c1c37f851c82e70ff6c80c92926a4b)
REM AIRSS Version 0.9.1 bugfix July 2018 build 013d7b7c2542+ Fri, 06 Jul 2018 19:26:36 +0100
REM compiler GCC version 9.3.0
REM options -cpp -mtune=generic -march=x86-64 -g -O0
REM seed -314956752 500036130 311045396 -483910594 -1008561120 1181911871 1284940896 -1662181821 1311159603 932101132 -1912203888 2026878625 1710771556 1578989421 809083777 1547978974 -1238429126 75386333 -87171143 1185371156 1336807368 -299973686 1687477274 1769604494 573959607 -1818487657 1236235734 -383083508 822016388 749274604 61702579 911209904 -2016408537
REM
CELL 1.54180   50.00000   50.00000   50.00000   90.00000   90.00000   90.00000
LATT -1
SFAC C  
C      1  0.5500180000000  0.5059060000000  0.4882670000000 1.0
C      1  0.5509450000000  0.4218320000000  0.5355740000000 1.0
C      1  0.5545550000000  0.5712490000000  0.4895630000000 1.0
C      1  0.4951430000000  0.4795120000000  0.4108800000000 1.0
C      1  0.4798660000000  0.5715880000000  0.5484660000000 1.0
C      1  0.4803100000000  0.5780930000000  0.4743540000000 1.0
C      1  0.4989350000000  0.5060610000000  0.4769010000000 1.0
C      1  0.5061050000000  0.5306610000000  0.4667810000000 1.0
C      1  0.4784930000000  0.4913320000000  0.4628940000000 1.0
C      1  0.5434520000000  0.4316940000000  0.5105410000000 1.0
C      1  0.5653890000000  0.4798500000000  0.5544360000000 1.0
C      1  0.4658560000000  0.4869630000000  0.4906970000000 1.0
C      1  0.4321740000000  0.5539980000000  0.4820240000000 1.0
C      1  0.4690730000000  0.4808610000000  0.4206850000000 1.0
C      1  0.4723660000000  0.4399560000000  0.4494280000000 1.0
C      1  0.4515300000000  0.5323590000000  0.4758440000000 1.0
C      1  0.5607280000000  0.4303880000000  0.4689480000000 1.0
C      1  0.5177070000000  0.4684950000000  0.4924300000000 1.0
C      1  0.4416580000000  0.5489220000000  0.5299420000000 1.0
C      1  0.4933500000000  0.5525570000000  0.4282630000000 1.0
C      1  0.5165480000000  0.4654690000000  0.4226720000000 1.0
C      1  0.4739950000000  0.5671690000000  0.4458680000000 1.0
C      1  0.5813990000000  0.4849930000000  0.4623870000000 1.0
C      1  0.4578970000000  0.5552380000000  0.5539010000000 1.0
C      1  0.4607270000000  0.5309670000000  0.5693840000000 1.0
C      1  0.4156740000000  0.4895890000000  0.4431940000000 1.0
C      1  0.4303190000000  0.4516550000000  0.4726810000000 1.0
C      1  0.4261070000000  0.5246810000000  0.5369510000000 1.0
C      1  0.5000570000000  0.4308670000000  0.4518450000000 1.0
C      1  0.5650930000000  0.5310620000000  0.5541850000000 1.0
C      1  0.4599190000000  0.4113260000000  0.4845070000000 1.0
C      1  0.4392400000000  0.5668870000000  0.5058330000000 1.0
C      1  0.5388040000000  0.4349600000000  0.5559440000000 1.0
C      1  0.4783550000000  0.4070330000000  0.5180400000000 1.0
C      1  0.4570270000000  0.4592060000000  0.4346020000000 1.0
C      1  0.4892490000000  0.5460270000000  0.5050640000000 1.0
C      1  0.4177170000000  0.5170640000000  0.4431370000000 1.0
C      1  0.5304110000000  0.4857300000000  0.4403750000000 1.0
C      1  0.4962930000000  0.4295430000000  0.5277900000000 1.0
C      1  0.5102190000000  0.4315340000000  0.5561120000000 1.0
C      1  0.4476270000000  0.5118020000000  0.4972180000000 1.0
C      1  0.4888330000000  0.5155060000000  0.5727430000000 1.0
C      1  0.4798810000000  0.5121750000000  0.5314280000000 1.0
C      1  0.4891130000000  0.4986970000000  0.5062600000000 1.0
C      1  0.5224880000000  0.5567250000000  0.4296510000000 1.0
C      1  0.4810010000000  0.4914000000000  0.5562610000000 1.0
C      1  0.5217880000000  0.4415730000000  0.4368960000000 1.0
C      1  0.4868720000000  0.4033180000000  0.4904180000000 1.0
C      1  0.4234290000000  0.5059240000000  0.5146320000000 1.0
C      1  0.5379040000000  0.5620570000000  0.5172180000000 1.0
C      1  0.5697900000000  0.4802690000000  0.5248240000000 1.0
C      1  0.5093830000000  0.4193450000000  0.4788960000000 1.0
C      1  0.5313270000000  0.5861030000000  0.4740220000000 1.0
C      1  0.5083710000000  0.4816160000000  0.4657370000000 1.0
C      1  0.5040200000000  0.5070110000000  0.4086210000000 1.0
C      1  0.4681340000000  0.5073670000000  0.4360830000000 1.0
C      1  0.5043710000000  0.5954740000000  0.5123300000000 1.0
C      1  0.5370000000000  0.5018220000000  0.5847260000000 1.0
C      1  0.4571780000000  0.4381010000000  0.4741820000000 1.0
C      1  0.4200960000000  0.4543410000000  0.4995320000000 1.0
C      1  0.4625620000000  0.5823280000000  0.5008200000000 1.0
C      1  0.5152800000000  0.5205410000000  0.5867080000000 1.0
C      1  0.4296690000000  0.4324130000000  0.5170490000000 1.0
C      1  0.4860490000000  0.5253610000000  0.4200980000000 1.0
C      1  0.5035130000000  0.5258950000000  0.5457330000000 1.0
C      1  0.5452080000000  0.4751030000000  0.4851030000000 1.0
C      1  0.5541220000000  0.4727320000000  0.4542050000000 1.0
C      1  0.5473620000000  0.5516540000000  0.5637350000000 1.0
C      1  0.5800270000000  0.4457610000000  0.4871080000000 1.0
C      1  0.5524040000000  0.5517340000000  0.4678100000000 1.0
C      1  0.5594150000000  0.5055700000000  0.5669730000000 1.0
C      1  0.4959590000000  0.4438740000000  0.5784940000000 1.0
C      1  0.5495210000000  0.4599680000000  0.5671290000000 1.0
C      1  0.5728610000000  0.5349560000000  0.4552630000000 1.0
C      1  0.5276010000000  0.5895220000000  0.5261660000000 1.0
C      1  0.5406100000000  0.4180940000000  0.4841110000000 1.0
C      1  0.5231100000000  0.5464350000000  0.5785790000000 1.0
C      1  0.5051110000000  0.5914090000000  0.4839980000000 1.0
C      1  0.4497590000000  0.4127420000000  0.5115010000000 1.0
C      1  0.5241550000000  0.5127350000000  0.5258270000000 1.0
C      1  0.5496520000000  0.4445890000000  0.4474170000000 1.0
C      1  0.4679730000000  0.4589930000000  0.4998220000000 1.0
C      1  0.4687510000000  0.4499260000000  0.5759470000000 1.0
C      1  0.4794740000000  0.5874370000000  0.5233630000000 1.0
C      1  0.5054870000000  0.5580850000000  0.5555550000000 1.0
C      1  0.5354300000000  0.5696370000000  0.4510080000000 1.0
C      1  0.4346270000000  0.4872210000000  0.5642000000000 1.0
C      1  0.4580640000000  0.4453580000000  0.5512310000000 1.0
C      1  0.5142850000000  0.4392170000000  0.5033820000000 1.0
C      1  0.4043640000000  0.5409750000000  0.4468870000000 1.0
C      1  0.4479750000000  0.5563580000000  0.4416320000000 1.0
C      1  0.4967280000000  0.4727930000000  0.5398290000000 1.0
C      1  0.4818090000000  0.5466290000000  0.4764410000000 1.0
C      1  0.4372000000000  0.5154830000000  0.5613680000000 1.0
C      1  0.4199640000000  0.4705570000000  0.5447680000000 1.0
C      1  0.5936020000000  0.4701390000000  0.4832720000000 1.0
C      1  0.5316920000000  0.5307030000000  0.4815000000000 1.0
C      1  0.5406950000000  0.5345250000000  0.4219830000000 1.0
C      1  0.5327240000000  0.4731950000000  0.5860840000000 1.0
C      1  0.5192360000000  0.5382730000000  0.5083040000000 1.0
C      1  0.5678910000000  0.5332460000000  0.4286110000000 1.0
C      1  0.4648000000000  0.5308450000000  0.5169530000000 1.0
C      1  0.4223980000000  0.5608380000000  0.4562240000000 1.0
C      1  0.4157090000000  0.4784560000000  0.5175020000000 1.0
C      1  0.5941220000000  0.4867030000000  0.5074490000000 1.0
C      1  0.5308910000000  0.5708190000000  0.5467200000000 1.0
C      1  0.4777430000000  0.4526420000000  0.5288050000000 1.0
C      1  0.5916310000000  0.5138260000000  0.5007940000000 1.0
C      1  0.5656680000000  0.5563020000000  0.5122670000000 1.0
C      1  0.5771870000000  0.5120100000000  0.4739620000000 1.0
C      1  0.5106940000000  0.4601210000000  0.5950290000000 1.0
C      1  0.5288900000000  0.5088930000000  0.4209160000000 1.0
C      1  0.4310310000000  0.4443320000000  0.5430480000000 1.0
C      1  0.5732730000000  0.5304220000000  0.5224750000000 1.0
C      1  0.4305440000000  0.4668540000000  0.4484700000000 1.0
C      1  0.4469510000000  0.5253850000000  0.4460490000000 1.0
C      1  0.5607730000000  0.4573120000000  0.5059260000000 1.0
C      1  0.5115260000000  0.4851210000000  0.5179600000000 1.0
C      1  0.4596350000000  0.4757110000000  0.5694800000000 1.0
C      1  0.5532990000000  0.5073410000000  0.5178840000000 1.0
END
