TITL C-84595-7149-7 0.0439603965545982 125000 -1026.15274032174 0 0 147 (C1) n - 1
REM
REM in /rds/project/t2_vol4/rds-t2-cs072/BORA/CARBON/from-Arr/AIRSS/Generating-Clusters/GAP-ML-2020/Only-C1/SD-CG/HFTN-CG
REM
REM
REM
REM
REM
REM ./C.cell (11c1c37f851c82e70ff6c80c92926a4b)
REM AIRSS Version 0.9.1 bugfix July 2018 build 013d7b7c2542+ Fri, 06 Jul 2018 19:26:36 +0100
REM compiler GCC version 9.3.0
REM options -cpp -mtune=generic -march=x86-64 -g -O0
REM seed 448825015 -1528183635 -147700610 -1799335131 158255675 -1274144739 -613027765 -951058291 -313828896 1933331743 2010742922 -1961460316 441032716 2018840372 -753990892 643494951 -997525354 -662443757 1514308320 791147357 -1592513365 -2108367359 -1124235030 714213524 943770529 78134582 1964067164 -655469998 1135037687 -302959970 2107480849 -910915442 1172981050
REM
CELL 1.54180   50.00000   50.00000   50.00000   90.00000   90.00000   90.00000
LATT -1
SFAC C  
C      1  0.5702080000000  0.4649580000000  0.5584530000000 1.0
C      1  0.5372030000000  0.4223930000000  0.5109190000000 1.0
C      1  0.5251160000000  0.5892790000000  0.4906970000000 1.0
C      1  0.5723070000000  0.5374290000000  0.5623220000000 1.0
C      1  0.4819610000000  0.5867740000000  0.5117900000000 1.0
C      1  0.4863080000000  0.4025940000000  0.4614290000000 1.0
C      1  0.4215290000000  0.5255970000000  0.4485300000000 1.0
C      1  0.4973450000000  0.5120610000000  0.4060180000000 1.0
C      1  0.4960070000000  0.4492520000000  0.5079730000000 1.0
C      1  0.5360510000000  0.4058420000000  0.4861300000000 1.0
C      1  0.5361420000000  0.4973860000000  0.5057150000000 1.0
C      1  0.5556470000000  0.4405230000000  0.5529510000000 1.0
C      1  0.5920040000000  0.4986970000000  0.5356640000000 1.0
C      1  0.4374430000000  0.4699640000000  0.4395350000000 1.0
C      1  0.5362330000000  0.4270570000000  0.4428260000000 1.0
C      1  0.5509010000000  0.5180530000000  0.4877300000000 1.0
C      1  0.5801150000000  0.5598680000000  0.4990170000000 1.0
C      1  0.4428540000000  0.5713780000000  0.4624060000000 1.0
C      1  0.5601970000000  0.4332750000000  0.5258560000000 1.0
C      1  0.5583320000000  0.4477740000000  0.4403660000000 1.0
C      1  0.4542360000000  0.5342740000000  0.4774910000000 1.0
C      1  0.4984880000000  0.4955490000000  0.5664960000000 1.0
C      1  0.5145810000000  0.4127360000000  0.5547700000000 1.0
C      1  0.5078710000000  0.5453840000000  0.5146060000000 1.0
C      1  0.4683890000000  0.4300710000000  0.4240480000000 1.0
C      1  0.5527390000000  0.4146690000000  0.4647050000000 1.0
C      1  0.4987860000000  0.5999650000000  0.4451050000000 1.0
C      1  0.5435130000000  0.5711360000000  0.4756290000000 1.0
C      1  0.5364690000000  0.5407150000000  0.5226810000000 1.0
C      1  0.5030210000000  0.5255590000000  0.4699180000000 1.0
C      1  0.5228790000000  0.4738560000000  0.5984960000000 1.0
C      1  0.3995760000000  0.4965090000000  0.5108210000000 1.0
C      1  0.4389740000000  0.5767440000000  0.5515830000000 1.0
C      1  0.5548270000000  0.4768250000000  0.4376320000000 1.0
C      1  0.4609920000000  0.4064050000000  0.4734350000000 1.0
C      1  0.4913430000000  0.4126810000000  0.5724820000000 1.0
C      1  0.5064080000000  0.4092310000000  0.4806500000000 1.0
C      1  0.4630260000000  0.4089860000000  0.5016610000000 1.0
C      1  0.4453650000000  0.4799220000000  0.5495380000000 1.0
C      1  0.4099590000000  0.4703380000000  0.5103120000000 1.0
C      1  0.5300680000000  0.5211280000000  0.5885520000000 1.0
C      1  0.5161350000000  0.4495510000000  0.5831600000000 1.0
C      1  0.5854630000000  0.4708810000000  0.5351130000000 1.0
C      1  0.4609350000000  0.4964360000000  0.5252790000000 1.0
C      1  0.4412800000000  0.4247110000000  0.4629690000000 1.0
C      1  0.5425700000000  0.4718650000000  0.4899170000000 1.0
C      1  0.5067080000000  0.5118390000000  0.5446390000000 1.0
C      1  0.5511920000000  0.5462770000000  0.4975580000000 1.0
C      1  0.4525900000000  0.5885820000000  0.4819470000000 1.0
C      1  0.4708440000000  0.5223710000000  0.5943570000000 1.0
C      1  0.4921150000000  0.4940560000000  0.5256400000000 1.0
C      1  0.4923310000000  0.4170710000000  0.5070860000000 1.0
C      1  0.5023650000000  0.6039790000000  0.4713260000000 1.0
C      1  0.4589430000000  0.5061040000000  0.4741930000000 1.0
C      1  0.5802040000000  0.5100320000000  0.5600340000000 1.0
C      1  0.4143720000000  0.5500020000000  0.5190090000000 1.0
C      1  0.4578110000000  0.4865400000000  0.4967350000000 1.0
C      1  0.5959290000000  0.5144220000000  0.5121340000000 1.0
C      1  0.4254130000000  0.4623730000000  0.5335660000000 1.0
C      1  0.5852890000000  0.5186270000000  0.4563320000000 1.0
C      1  0.5013820000000  0.5438420000000  0.5452370000000 1.0
C      1  0.5347660000000  0.5120930000000  0.5310460000000 1.0
C      1  0.4166810000000  0.4762500000000  0.4595600000000 1.0
C      1  0.5107100000000  0.4668100000000  0.4555500000000 1.0
C      1  0.4532300000000  0.4334210000000  0.5586120000000 1.0
C      1  0.4985890000000  0.5815800000000  0.4240080000000 1.0
C      1  0.4810880000000  0.5587840000000  0.4161740000000 1.0
C      1  0.5783600000000  0.4521770000000  0.5145210000000 1.0
C      1  0.4845240000000  0.5041360000000  0.4585340000000 1.0
C      1  0.4259630000000  0.5471970000000  0.4690290000000 1.0
C      1  0.5361060000000  0.5971080000000  0.5183660000000 1.0
C      1  0.4986100000000  0.5553970000000  0.4672890000000 1.0
C      1  0.4889090000000  0.4132040000000  0.4354370000000 1.0
C      1  0.4266920000000  0.4340110000000  0.4856500000000 1.0
C      1  0.5248830000000  0.4479110000000  0.4943770000000 1.0
C      1  0.4551880000000  0.5731390000000  0.5081700000000 1.0
C      1  0.5426620000000  0.5363310000000  0.4440220000000 1.0
C      1  0.4089690000000  0.5037240000000  0.4624620000000 1.0
C      1  0.4538790000000  0.5403520000000  0.5796470000000 1.0
C      1  0.5420850000000  0.4944490000000  0.5902290000000 1.0
C      1  0.4590570000000  0.5649800000000  0.5663920000000 1.0
C      1  0.5290660000000  0.5390450000000  0.4152850000000 1.0
C      1  0.4949740000000  0.5252270000000  0.4987650000000 1.0
C      1  0.4387260000000  0.4231720000000  0.5098630000000 1.0
C      1  0.5631780000000  0.6004790000000  0.5240360000000 1.0
C      1  0.4946410000000  0.4649560000000  0.5601200000000 1.0
C      1  0.5799690000000  0.4908150000000  0.4472460000000 1.0
C      1  0.5714760000000  0.5431840000000  0.4512960000000 1.0
C      1  0.5947040000000  0.5414490000000  0.5169780000000 1.0
C      1  0.5277300000000  0.5610380000000  0.4537110000000 1.0
C      1  0.5000560000000  0.5401300000000  0.4076040000000 1.0
C      1  0.4361240000000  0.4364930000000  0.5351410000000 1.0
C      1  0.5760870000000  0.5768050000000  0.5237990000000 1.0
C      1  0.4842760000000  0.5662750000000  0.5545020000000 1.0
C      1  0.5729530000000  0.5649010000000  0.4700090000000 1.0
C      1  0.5096030000000  0.4322870000000  0.4000440000000 1.0
C      1  0.4090170000000  0.5411500000000  0.4924910000000 1.0
C      1  0.4013620000000  0.5138990000000  0.4882220000000 1.0
C      1  0.4992110000000  0.4658030000000  0.5319050000000 1.0
C      1  0.5174310000000  0.4396030000000  0.4658350000000 1.0
C      1  0.4645370000000  0.4608150000000  0.5665940000000 1.0
C      1  0.5845850000000  0.5081690000000  0.4850980000000 1.0
C      1  0.4215300000000  0.5282750000000  0.5383660000000 1.0
C      1  0.4801660000000  0.4401130000000  0.4001590000000 1.0
C      1  0.4708150000000  0.4748100000000  0.5946350000000 1.0
C      1  0.5259300000000  0.5087480000000  0.4053460000000 1.0
C      1  0.4994720000000  0.5130820000000  0.5939190000000 1.0
C      1  0.4317520000000  0.5720140000000  0.5258840000000 1.0
C      1  0.5292430000000  0.5561100000000  0.5500890000000 1.0
C      1  0.5700770000000  0.4381830000000  0.4651450000000 1.0
C      1  0.4604050000000  0.5449520000000  0.4305580000000 1.0
C      1  0.4332380000000  0.5255600000000  0.5661890000000 1.0
C      1  0.4975820000000  0.4857050000000  0.6035140000000 1.0
C      1  0.4470300000000  0.4418490000000  0.4402640000000 1.0
C      1  0.5248440000000  0.5694910000000  0.4258970000000 1.0
C      1  0.5060010000000  0.4972190000000  0.4998460000000 1.0
C      1  0.5326020000000  0.4319800000000  0.5661310000000 1.0
C      1  0.4946940000000  0.4811930000000  0.4743930000000 1.0
C      1  0.4427230000000  0.5214550000000  0.4302100000000 1.0
C      1  0.5435100000000  0.5415090000000  0.5721950000000 1.0
C      1  0.5025390000000  0.5692540000000  0.4964380000000 1.0
C      1  0.4033670000000  0.5072470000000  0.5353670000000 1.0
C      1  0.4561460000000  0.4978850000000  0.5929400000000 1.0
C      1  0.4375560000000  0.4986620000000  0.5718510000000 1.0
C      1  0.4646130000000  0.4103490000000  0.5677470000000 1.0
C      1  0.4521190000000  0.5233590000000  0.5255160000000 1.0
C      1  0.5326070000000  0.4847040000000  0.4175940000000 1.0
C      1  0.4942720000000  0.5876530000000  0.5387600000000 1.0
C      1  0.5151290000000  0.4184850000000  0.4243010000000 1.0
C      1  0.5730840000000  0.4591740000000  0.4862000000000 1.0
C      1  0.5323750000000  0.5150350000000  0.4641170000000 1.0
C      1  0.5838650000000  0.5534030000000  0.5408210000000 1.0
C      1  0.5142520000000  0.4114820000000  0.5270360000000 1.0
C      1  0.4132410000000  0.4588690000000  0.4840350000000 1.0
C      1  0.4832590000000  0.4957890000000  0.4274390000000 1.0
C      1  0.4639170000000  0.5394670000000  0.5043470000000 1.0
C      1  0.5351170000000  0.4832200000000  0.4619430000000 1.0
C      1  0.5053190000000  0.4743650000000  0.4264950000000 1.0
C      1  0.5219060000000  0.5848170000000  0.5403930000000 1.0
C      1  0.4672750000000  0.5535230000000  0.4571430000000 1.0
C      1  0.4521700000000  0.4932090000000  0.4268350000000 1.0
C      1  0.5654070000000  0.4892200000000  0.5737930000000 1.0
C      1  0.4774790000000  0.6022500000000  0.4862120000000 1.0
C      1  0.5006160000000  0.4587190000000  0.4019580000000 1.0
C      1  0.4763410000000  0.4651610000000  0.4903220000000 1.0
C      1  0.4974690000000  0.4300510000000  0.5936230000000 1.0
C      1  0.5870020000000  0.4812490000000  0.4732380000000 1.0
END
