TITL C-84604-7235-5 -58.6330373911306 125000 -498.286423899938 0 0 71 (C1) n - 1
REM
REM in /rds/project/t2_vol4/rds-t2-cs072/BORA/CARBON/from-Arr/AIRSS/Generating-Clusters/GAP-ML-2020/Only-C1/SD-CG/HFTN-CG
REM
REM
REM
REM
REM
REM ./C.cell (11c1c37f851c82e70ff6c80c92926a4b)
REM AIRSS Version 0.9.1 bugfix July 2018 build 013d7b7c2542+ Fri, 06 Jul 2018 19:26:36 +0100
REM compiler GCC version 9.3.0
REM options -cpp -mtune=generic -march=x86-64 -g -O0
REM seed -1424764965 -1675580773 -1100195053 -158756742 397930395 64899780 1924222267 -569338136 205254805 625398501 -1480635603 402963428 1864512824 1759883924 1796412849 -131250880 872440279 -1293756452 -1492004780 1460139826 688104705 101540304 453059494 -780912513 -81043601 535369787 -123798017 -594503804 -843951930 -712330955 -645797497 488086529 -1629801474
REM
CELL 1.54180   50.00000   50.00000   50.00000   90.00000   90.00000   90.00000
LATT -1
SFAC C  
C      1  0.5271720000000  0.5545030000000  0.4621330000000 1.0
C      1  0.4584800000000  0.4378090000000  0.4837340000000 1.0
C      1  0.4894880000000  0.4235820000000  0.5164560000000 1.0
C      1  0.4530190000000  0.5007080000000  0.4480490000000 1.0
C      1  0.4340450000000  0.5219890000000  0.5532890000000 1.0
C      1  0.4989970000000  0.5552870000000  0.4640450000000 1.0
C      1  0.5626550000000  0.5214430000000  0.5297480000000 1.0
C      1  0.4490130000000  0.4444060000000  0.5106360000000 1.0
C      1  0.4403620000000  0.5342760000000  0.4851550000000 1.0
C      1  0.4824280000000  0.4232770000000  0.4887590000000 1.0
C      1  0.4840700000000  0.4977630000000  0.5416390000000 1.0
C      1  0.5337220000000  0.5148610000000  0.5574530000000 1.0
C      1  0.5619560000000  0.5196390000000  0.4620320000000 1.0
C      1  0.5409870000000  0.4659570000000  0.5492110000000 1.0
C      1  0.4565480000000  0.4529390000000  0.4593970000000 1.0
C      1  0.5527550000000  0.4711700000000  0.5241760000000 1.0
C      1  0.5054520000000  0.4285900000000  0.4739650000000 1.0
C      1  0.5205010000000  0.4454330000000  0.5456610000000 1.0
C      1  0.4494170000000  0.5312280000000  0.5289060000000 1.0
C      1  0.4455910000000  0.5119620000000  0.5045990000000 1.0
C      1  0.4401310000000  0.4767880000000  0.4584810000000 1.0
C      1  0.4686930000000  0.5790340000000  0.5010260000000 1.0
C      1  0.5761110000000  0.5094340000000  0.5071590000000 1.0
C      1  0.5441580000000  0.4518860000000  0.4747870000000 1.0
C      1  0.4974530000000  0.4560060000000  0.5594300000000 1.0
C      1  0.5163880000000  0.5730090000000  0.5036020000000 1.0
C      1  0.4830850000000  0.5370520000000  0.4500670000000 1.0
C      1  0.4975530000000  0.4811700000000  0.5198910000000 1.0
C      1  0.4571620000000  0.4792390000000  0.5445100000000 1.0
C      1  0.4891850000000  0.5332480000000  0.5061110000000 1.0
C      1  0.5713860000000  0.5292090000000  0.4867780000000 1.0
C      1  0.5286340000000  0.4883880000000  0.5649040000000 1.0
C      1  0.5170040000000  0.4997460000000  0.4907110000000 1.0
C      1  0.5717950000000  0.4812240000000  0.5045340000000 1.0
C      1  0.4407970000000  0.4694640000000  0.5199670000000 1.0
C      1  0.4433580000000  0.5796950000000  0.5060770000000 1.0
C      1  0.4983200000000  0.5496740000000  0.5482400000000 1.0
C      1  0.5274020000000  0.4348150000000  0.4918790000000 1.0
C      1  0.4952790000000  0.5166280000000  0.4342220000000 1.0
C      1  0.5393120000000  0.5321280000000  0.4492340000000 1.0
C      1  0.4911690000000  0.5627590000000  0.4922090000000 1.0
C      1  0.5605510000000  0.4913890000000  0.4579620000000 1.0
C      1  0.4675500000000  0.4343980000000  0.5306570000000 1.0
C      1  0.5180090000000  0.5254230000000  0.5041290000000 1.0
C      1  0.5150780000000  0.5687800000000  0.5312490000000 1.0
C      1  0.4800350000000  0.5295720000000  0.5347640000000 1.0
C      1  0.5606940000000  0.5533870000000  0.4984720000000 1.0
C      1  0.4399850000000  0.4981500000000  0.5611580000000 1.0
C      1  0.5384850000000  0.5591290000000  0.5426960000000 1.0
C      1  0.5047240000000  0.4439230000000  0.4503970000000 1.0
C      1  0.4909750000000  0.4889720000000  0.4929700000000 1.0
C      1  0.4789230000000  0.4531120000000  0.4411040000000 1.0
C      1  0.4789990000000  0.4712800000000  0.4195850000000 1.0
C      1  0.5010720000000  0.4839220000000  0.5637470000000 1.0
C      1  0.4727590000000  0.5127100000000  0.4919070000000 1.0
C      1  0.4712380000000  0.4532380000000  0.5508200000000 1.0
C      1  0.5272540000000  0.4865360000000  0.5168050000000 1.0
C      1  0.5338360000000  0.5130600000000  0.5279740000000 1.0
C      1  0.5375800000000  0.4854440000000  0.4419200000000 1.0
C      1  0.5231350000000  0.5405900000000  0.5601830000000 1.0
C      1  0.5237030000000  0.5114230000000  0.4364680000000 1.0
C      1  0.4426050000000  0.5520510000000  0.5070730000000 1.0
C      1  0.4750540000000  0.4961030000000  0.4305950000000 1.0
C      1  0.5593710000000  0.5496120000000  0.5269410000000 1.0
C      1  0.5163110000000  0.4321760000000  0.5199180000000 1.0
C      1  0.4295900000000  0.4877100000000  0.5012870000000 1.0
C      1  0.4594600000000  0.5242880000000  0.4641140000000 1.0
C      1  0.4194070000000  0.4800570000000  0.4766570000000 1.0
C      1  0.5382630000000  0.5656450000000  0.4865390000000 1.0
C      1  0.5294000000000  0.4587240000000  0.4505870000000 1.0
C      1  0.5649210000000  0.4717780000000  0.4784620000000 1.0
END
