TITL C-84592-7251-3 0.130484039842321 125000 -652.862983154659 0 0 95 (C1) n - 1
REM
REM in /rds/project/t2_vol4/rds-t2-cs072/BORA/CARBON/from-Arr/AIRSS/Generating-Clusters/GAP-ML-2020/Only-C1/SD-CG/HFTN-CG
REM
REM
REM
REM
REM
REM ./C.cell (11c1c37f851c82e70ff6c80c92926a4b)
REM AIRSS Version 0.9.1 bugfix July 2018 build 013d7b7c2542+ Fri, 06 Jul 2018 19:26:36 +0100
REM compiler GCC version 9.3.0
REM options -cpp -mtune=generic -march=x86-64 -g -O0
REM seed 1462332494 -962516874 1086400146 1314550900 866437019 116535538 809262564 -357011975 -825801937 1132212981 1295021979 -120112139 -1714900487 -1405696208 -2036032972 -736223150 -279815643 -267345923 1199743109 7526770 1679411631 -471961109 2017069279 -1663263098 819100023 805229639 -1325631048 -1121112792 -1806086137 -1542841320 -1815549567 -702059112 238417870
REM
CELL 1.54180   50.00000   50.00000   50.00000   90.00000   90.00000   90.00000
LATT -1
SFAC C  
C      1  0.4710150000000  0.5894430000000  0.4650680000000 1.0
C      1  0.5431130000000  0.4876050000000  0.4525920000000 1.0
C      1  0.5407630000000  0.5115150000000  0.5696540000000 1.0
C      1  0.5664390000000  0.5009870000000  0.4671820000000 1.0
C      1  0.4581500000000  0.5436110000000  0.5462770000000 1.0
C      1  0.5245120000000  0.5485620000000  0.4410890000000 1.0
C      1  0.4631510000000  0.4529930000000  0.4542140000000 1.0
C      1  0.4816300000000  0.5542840000000  0.5577260000000 1.0
C      1  0.4690400000000  0.4987930000000  0.4766840000000 1.0
C      1  0.4898990000000  0.4911020000000  0.5809820000000 1.0
C      1  0.4503410000000  0.5571600000000  0.5211800000000 1.0
C      1  0.5759210000000  0.4969050000000  0.5399540000000 1.0
C      1  0.4549130000000  0.5233490000000  0.4579320000000 1.0
C      1  0.5330670000000  0.5040790000000  0.4294130000000 1.0
C      1  0.4403140000000  0.5085280000000  0.4360290000000 1.0
C      1  0.5710150000000  0.5276810000000  0.4754110000000 1.0
C      1  0.5473750000000  0.4567940000000  0.4603890000000 1.0
C      1  0.5282100000000  0.4359400000000  0.4570400000000 1.0
C      1  0.4555810000000  0.4880840000000  0.4220680000000 1.0
C      1  0.5150670000000  0.5777230000000  0.4853160000000 1.0
C      1  0.4176490000000  0.4932380000000  0.5210020000000 1.0
C      1  0.5201690000000  0.5233810000000  0.4846750000000 1.0
C      1  0.4481110000000  0.4870090000000  0.5581060000000 1.0
C      1  0.4307450000000  0.4445670000000  0.4994550000000 1.0
C      1  0.5621510000000  0.5529940000000  0.5386000000000 1.0
C      1  0.4891450000000  0.4667850000000  0.4492840000000 1.0
C      1  0.5392780000000  0.5774990000000  0.5829380000000 1.0
C      1  0.4125450000000  0.5097590000000  0.4744980000000 1.0
C      1  0.5197760000000  0.4709120000000  0.5133550000000 1.0
C      1  0.5803760000000  0.5482150000000  0.5171520000000 1.0
C      1  0.5069460000000  0.5489290000000  0.5195690000000 1.0
C      1  0.4745220000000  0.4707630000000  0.5217460000000 1.0
C      1  0.4910070000000  0.5686750000000  0.5337230000000 1.0
C      1  0.5195810000000  0.4180540000000  0.5296160000000 1.0
C      1  0.4722220000000  0.5749850000000  0.5137130000000 1.0
C      1  0.4984120000000  0.5358760000000  0.4332870000000 1.0
C      1  0.5555020000000  0.4371010000000  0.5061170000000 1.0
C      1  0.5848830000000  0.5253650000000  0.5014920000000 1.0
C      1  0.5825030000000  0.4992350000000  0.5136890000000 1.0
C      1  0.4956580000000  0.5334990000000  0.4956330000000 1.0
C      1  0.5326580000000  0.5642950000000  0.4644200000000 1.0
C      1  0.4810580000000  0.4280080000000  0.4562990000000 1.0
C      1  0.5676360000000  0.4836520000000  0.4919560000000 1.0
C      1  0.4207010000000  0.4699280000000  0.4508220000000 1.0
C      1  0.5045260000000  0.4388520000000  0.4408980000000 1.0
C      1  0.4461190000000  0.4555280000000  0.5232810000000 1.0
C      1  0.4322400000000  0.5397590000000  0.5065530000000 1.0
C      1  0.4773320000000  0.5131160000000  0.5008550000000 1.0
C      1  0.5228470000000  0.5720570000000  0.5118710000000 1.0
C      1  0.5014230000000  0.5415420000000  0.5739090000000 1.0
C      1  0.5227300000000  0.5263080000000  0.5323930000000 1.0
C      1  0.5152390000000  0.4734240000000  0.5416950000000 1.0
C      1  0.5626290000000  0.4554250000000  0.4845950000000 1.0
C      1  0.4933650000000  0.4280590000000  0.5308520000000 1.0
C      1  0.4168600000000  0.4975190000000  0.4482280000000 1.0
C      1  0.5378750000000  0.4890550000000  0.5007310000000 1.0
C      1  0.4729710000000  0.4743070000000  0.5681910000000 1.0
C      1  0.4771710000000  0.4206620000000  0.5074380000000 1.0
C      1  0.4110760000000  0.4888060000000  0.4938060000000 1.0
C      1  0.5490730000000  0.5734740000000  0.5212720000000 1.0
C      1  0.5192840000000  0.4197420000000  0.4798100000000 1.0
C      1  0.4312280000000  0.4739420000000  0.5389500000000 1.0
C      1  0.4525260000000  0.4722060000000  0.4751350000000 1.0
C      1  0.5082230000000  0.5116800000000  0.5733260000000 1.0
C      1  0.5401830000000  0.4229210000000  0.5489740000000 1.0
C      1  0.4953380000000  0.4680840000000  0.4994040000000 1.0
C      1  0.4890050000000  0.4577690000000  0.5449990000000 1.0
C      1  0.5425840000000  0.5370720000000  0.5549580000000 1.0
C      1  0.5431010000000  0.5296570000000  0.4335980000000 1.0
C      1  0.4905890000000  0.4176930000000  0.4811150000000 1.0
C      1  0.4855700000000  0.4875310000000  0.4197370000000 1.0
C      1  0.4504170000000  0.4291210000000  0.5089340000000 1.0
C      1  0.4775620000000  0.5006330000000  0.5276210000000 1.0
C      1  0.5367120000000  0.5176720000000  0.5087810000000 1.0
C      1  0.5217970000000  0.4958040000000  0.4737040000000 1.0
C      1  0.5557540000000  0.4436930000000  0.5339000000000 1.0
C      1  0.4515700000000  0.5145230000000  0.5442350000000 1.0
C      1  0.4950160000000  0.4833830000000  0.4737450000000 1.0
C      1  0.4440490000000  0.4630490000000  0.4342790000000 1.0
C      1  0.5416730000000  0.4387790000000  0.5712820000000 1.0
C      1  0.5664910000000  0.5672740000000  0.4995180000000 1.0
C      1  0.4672800000000  0.5710980000000  0.4479090000000 1.0
C      1  0.5568270000000  0.4905040000000  0.5586490000000 1.0
C      1  0.5428240000000  0.4646110000000  0.5547170000000 1.0
C      1  0.5042450000000  0.5092420000000  0.4237020000000 1.0
C      1  0.5334520000000  0.4194800000000  0.5038910000000 1.0
C      1  0.4306940000000  0.5311280000000  0.4786320000000 1.0
C      1  0.5582500000000  0.5550330000000  0.4753650000000 1.0
C      1  0.5272620000000  0.5557000000000  0.5728870000000 1.0
C      1  0.4995320000000  0.4618310000000  0.4228890000000 1.0
C      1  0.4724250000000  0.5441710000000  0.4437020000000 1.0
C      1  0.4287740000000  0.5181510000000  0.5256910000000 1.0
C      1  0.4856250000000  0.5829060000000  0.4881940000000 1.0
C      1  0.5053020000000  0.5029410000000  0.5430800000000 1.0
C      1  0.4226110000000  0.4652240000000  0.4807750000000 1.0
END
