TITL C-84577-8545-3 -0.184568317887734 125000 -381.557644326958 0 0 54 (C1) n - 1
REM
REM in /rds/project/t2_vol4/rds-t2-cs072/BORA/CARBON/from-Arr/AIRSS/Generating-Clusters/GAP-ML-2020/Only-C1/SD-CG/HFTN-CG
REM
REM
REM
REM
REM
REM ./C.cell (11c1c37f851c82e70ff6c80c92926a4b)
REM AIRSS Version 0.9.1 bugfix July 2018 build 013d7b7c2542+ Fri, 06 Jul 2018 19:26:36 +0100
REM compiler GCC version 9.3.0
REM options -cpp -mtune=generic -march=x86-64 -g -O0
REM seed -771626167 -1333515206 1727350603 1088495755 -900679367 1424218977 5133334 -589247597 1434029544 225455324 -599319510 1023314128 -2039559466 2126916506 -2041228835 1648082462 -1858774491 1271838455 -1854264393 -1323009270 1917552014 1101074111 649104424 -783903670 744772970 -1764529230 409733893 978928009 -407955274 -863228661 -1314671329 -854165571 1281165123
REM
CELL 1.54180   50.00000   50.00000   50.00000   90.00000   90.00000   90.00000
LATT -1
SFAC C  
C      1  0.4475860000000  0.5175670000000  0.4810110000000 1.0
C      1  0.5603180000000  0.5028030000000  0.5291380000000 1.0
C      1  0.5461550000000  0.5118330000000  0.4808830000000 1.0
C      1  0.4949660000000  0.5292680000000  0.5665580000000 1.0
C      1  0.4371710000000  0.4815290000000  0.5168740000000 1.0
C      1  0.5011610000000  0.5660530000000  0.4949310000000 1.0
C      1  0.4868630000000  0.5206250000000  0.4486840000000 1.0
C      1  0.5570950000000  0.4679750000000  0.4577750000000 1.0
C      1  0.4584040000000  0.4621140000000  0.5209540000000 1.0
C      1  0.4200710000000  0.4801590000000  0.4954810000000 1.0
C      1  0.5519520000000  0.4957640000000  0.4557490000000 1.0
C      1  0.5102600000000  0.5519670000000  0.5568240000000 1.0
C      1  0.5026280000000  0.4993220000000  0.5051150000000 1.0
C      1  0.5155910000000  0.5261190000000  0.4478680000000 1.0
C      1  0.4955640000000  0.4469160000000  0.4476620000000 1.0
C      1  0.4692860000000  0.5328890000000  0.4687300000000 1.0
C      1  0.5037120000000  0.4606880000000  0.5407550000000 1.0
C      1  0.5561110000000  0.5219050000000  0.5082060000000 1.0
C      1  0.4425180000000  0.5276910000000  0.5075060000000 1.0
C      1  0.5382850000000  0.4646380000000  0.5046520000000 1.0
C      1  0.4951520000000  0.5195450000000  0.5177980000000 1.0
C      1  0.4394920000000  0.5077160000000  0.5281410000000 1.0
C      1  0.4540650000000  0.5099100000000  0.5519710000000 1.0
C      1  0.4576110000000  0.5509420000000  0.5114840000000 1.0
C      1  0.4757130000000  0.5540720000000  0.4882030000000 1.0
C      1  0.4689450000000  0.4521420000000  0.4964270000000 1.0
C      1  0.5288450000000  0.5588060000000  0.5345250000000 1.0
C      1  0.5067090000000  0.4338010000000  0.4709320000000 1.0
C      1  0.5415380000000  0.4493760000000  0.4425790000000 1.0
C      1  0.5556280000000  0.4753600000000  0.5256480000000 1.0
C      1  0.4723120000000  0.4887660000000  0.5598000000000 1.0
C      1  0.4981310000000  0.4999440000000  0.5670770000000 1.0
C      1  0.5062070000000  0.5745050000000  0.5214880000000 1.0
C      1  0.5316450000000  0.5354860000000  0.4690510000000 1.0
C      1  0.5513320000000  0.4514230000000  0.4822020000000 1.0
C      1  0.5308870000000  0.5040520000000  0.4372370000000 1.0
C      1  0.4656550000000  0.5557340000000  0.5385950000000 1.0
C      1  0.4859600000000  0.4925360000000  0.4382390000000 1.0
C      1  0.4670440000000  0.5341050000000  0.5572530000000 1.0
C      1  0.4410560000000  0.4886240000000  0.4797550000000 1.0
C      1  0.4953420000000  0.4404160000000  0.4965760000000 1.0
C      1  0.5246590000000  0.4904080000000  0.4914010000000 1.0
C      1  0.5181150000000  0.4810020000000  0.5568760000000 1.0
C      1  0.5119990000000  0.4854880000000  0.4271660000000 1.0
C      1  0.4753960000000  0.4656480000000  0.5432090000000 1.0
C      1  0.5268100000000  0.5546000000000  0.4881460000000 1.0
C      1  0.4896290000000  0.5692390000000  0.5430100000000 1.0
C      1  0.4755870000000  0.4675640000000  0.4503640000000 1.0
C      1  0.5352880000000  0.4333260000000  0.4669510000000 1.0
C      1  0.4590670000000  0.4665260000000  0.4729650000000 1.0
C      1  0.5171030000000  0.4576680000000  0.4318450000000 1.0
C      1  0.5451540000000  0.4856650000000  0.5489440000000 1.0
C      1  0.5135520000000  0.4502900000000  0.5166540000000 1.0
C      1  0.5426740000000  0.5474880000000  0.5121350000000 1.0
END
