TITL C-84587-7141-4 -9.9740084617802 125000 -742.164345546903 0 0 107 (C1) n - 1
REM
REM in /rds/project/t2_vol4/rds-t2-cs072/BORA/CARBON/from-Arr/AIRSS/Generating-Clusters/GAP-ML-2020/Only-C1/SD-CG/HFTN-CG
REM
REM
REM
REM
REM
REM ./C.cell (11c1c37f851c82e70ff6c80c92926a4b)
REM AIRSS Version 0.9.1 bugfix July 2018 build 013d7b7c2542+ Fri, 06 Jul 2018 19:26:36 +0100
REM compiler GCC version 9.3.0
REM options -cpp -mtune=generic -march=x86-64 -g -O0
REM seed 352356677 -809832207 -769276088 -1216178556 -1323362057 149499063 49432491 1309462878 1860323000 -2135126863 -55741376 -2063965524 1888023503 31320078 -1999011127 -1320692816 1752303052 1514949418 1094023622 -1918883173 397326906 -2071627202 -2034734589 -2054371214 -1647354549 303476670 250310254 -67633279 -1527828062 -231519157 -1581167856 -440318390 -1028043525
REM
CELL 1.54180   50.00000   50.00000   50.00000   90.00000   90.00000   90.00000
LATT -1
SFAC C  
C      1  0.4853230000000  0.4653950000000  0.5726520000000 1.0
C      1  0.4938910000000  0.4295700000000  0.4563170000000 1.0
C      1  0.5002180000000  0.4219280000000  0.5124470000000 1.0
C      1  0.5758450000000  0.5196420000000  0.4596590000000 1.0
C      1  0.4559890000000  0.5095870000000  0.4750060000000 1.0
C      1  0.4610230000000  0.4545100000000  0.4274610000000 1.0
C      1  0.5562120000000  0.5803070000000  0.5151110000000 1.0
C      1  0.5200800000000  0.4130330000000  0.4919210000000 1.0
C      1  0.4492990000000  0.4909860000000  0.5476950000000 1.0
C      1  0.5528280000000  0.5113180000000  0.4460300000000 1.0
C      1  0.5006370000000  0.4569680000000  0.4637390000000 1.0
C      1  0.5070230000000  0.5502090000000  0.4945370000000 1.0
C      1  0.5125210000000  0.5461660000000  0.5676320000000 1.0
C      1  0.5204850000000  0.5701580000000  0.4705570000000 1.0
C      1  0.4884400000000  0.5601580000000  0.5615180000000 1.0
C      1  0.5370380000000  0.4636400000000  0.5552090000000 1.0
C      1  0.4482520000000  0.5095540000000  0.5029230000000 1.0
C      1  0.5285730000000  0.4857690000000  0.5294240000000 1.0
C      1  0.5601800000000  0.5134850000000  0.5571010000000 1.0
C      1  0.4933380000000  0.5493640000000  0.4320620000000 1.0
C      1  0.5688460000000  0.4735370000000  0.4637830000000 1.0
C      1  0.4451420000000  0.5335220000000  0.4591160000000 1.0
C      1  0.4370490000000  0.5165890000000  0.5525330000000 1.0
C      1  0.4819380000000  0.4979280000000  0.4708200000000 1.0
C      1  0.4508380000000  0.4275000000000  0.5251490000000 1.0
C      1  0.5068270000000  0.4714440000000  0.4375710000000 1.0
C      1  0.5143520000000  0.4737730000000  0.5061970000000 1.0
C      1  0.5652920000000  0.4631610000000  0.5491190000000 1.0
C      1  0.4775250000000  0.4704980000000  0.4762540000000 1.0
C      1  0.5312310000000  0.5280910000000  0.4575680000000 1.0
C      1  0.4932630000000  0.4527420000000  0.5168590000000 1.0
C      1  0.4200010000000  0.5093190000000  0.5105740000000 1.0
C      1  0.4781990000000  0.4950760000000  0.4172860000000 1.0
C      1  0.4633090000000  0.4891520000000  0.5203740000000 1.0
C      1  0.5207160000000  0.5234450000000  0.4897620000000 1.0
C      1  0.4686500000000  0.5071570000000  0.5866140000000 1.0
C      1  0.5425130000000  0.4193530000000  0.5100200000000 1.0
C      1  0.5451680000000  0.5198180000000  0.5065340000000 1.0
C      1  0.5204070000000  0.4400370000000  0.5523000000000 1.0
C      1  0.4958990000000  0.5010460000000  0.4416860000000 1.0
C      1  0.5743320000000  0.4906560000000  0.5476480000000 1.0
C      1  0.5247330000000  0.4219620000000  0.5320530000000 1.0
C      1  0.4242210000000  0.4508600000000  0.4656540000000 1.0
C      1  0.5133330000000  0.5928750000000  0.4897150000000 1.0
C      1  0.5085050000000  0.5265540000000  0.4398520000000 1.0
C      1  0.4199810000000  0.4739030000000  0.4489650000000 1.0
C      1  0.5423520000000  0.4308930000000  0.4560350000000 1.0
C      1  0.5791540000000  0.4858240000000  0.5186240000000 1.0
C      1  0.4701280000000  0.4256130000000  0.5460140000000 1.0
C      1  0.4522690000000  0.5410540000000  0.5378520000000 1.0
C      1  0.5534460000000  0.4511240000000  0.4769700000000 1.0
C      1  0.4500260000000  0.5286650000000  0.4296410000000 1.0
C      1  0.5109280000000  0.5099160000000  0.5371160000000 1.0
C      1  0.4274270000000  0.5554560000000  0.5294810000000 1.0
C      1  0.4671800000000  0.5303550000000  0.5149620000000 1.0
C      1  0.5053140000000  0.4797960000000  0.5872190000000 1.0
C      1  0.5249260000000  0.5414800000000  0.5412470000000 1.0
C      1  0.4510050000000  0.5010300000000  0.4209090000000 1.0
C      1  0.5305120000000  0.5869270000000  0.5130270000000 1.0
C      1  0.5537090000000  0.4833930000000  0.4422750000000 1.0
C      1  0.4842320000000  0.4674720000000  0.4182770000000 1.0
C      1  0.4518000000000  0.5270030000000  0.5767230000000 1.0
C      1  0.5691940000000  0.5569340000000  0.5202030000000 1.0
C      1  0.5176220000000  0.5243090000000  0.5846870000000 1.0
C      1  0.4965040000000  0.5065560000000  0.5929020000000 1.0
C      1  0.4915120000000  0.4466510000000  0.5510650000000 1.0
C      1  0.5711780000000  0.5453750000000  0.4723730000000 1.0
C      1  0.5619380000000  0.4393280000000  0.5032720000000 1.0
C      1  0.5507850000000  0.4937110000000  0.5124010000000 1.0
C      1  0.4424790000000  0.4491510000000  0.5097810000000 1.0
C      1  0.4174050000000  0.5265510000000  0.5334480000000 1.0
C      1  0.5859400000000  0.5471660000000  0.4977950000000 1.0
C      1  0.4875780000000  0.5089140000000  0.5193810000000 1.0
C      1  0.4849380000000  0.5917420000000  0.4904180000000 1.0
C      1  0.5178740000000  0.4161240000000  0.4644140000000 1.0
C      1  0.4174980000000  0.5227240000000  0.4577620000000 1.0
C      1  0.4214730000000  0.4598650000000  0.4930970000000 1.0
C      1  0.5959300000000  0.5002980000000  0.4987490000000 1.0
C      1  0.5319670000000  0.4802910000000  0.5786650000000 1.0
C      1  0.5739590000000  0.4561090000000  0.5224220000000 1.0
C      1  0.6041310000000  0.5266550000000  0.5021550000000 1.0
C      1  0.4629230000000  0.5496720000000  0.5646350000000 1.0
C      1  0.4757100000000  0.5510780000000  0.4968420000000 1.0
C      1  0.4685310000000  0.4641070000000  0.5045010000000 1.0
C      1  0.5444170000000  0.4391090000000  0.4307160000000 1.0
C      1  0.4418970000000  0.4312980000000  0.4558340000000 1.0
C      1  0.4745810000000  0.4112910000000  0.5229720000000 1.0
C      1  0.5849950000000  0.4958780000000  0.4726120000000 1.0
C      1  0.4119160000000  0.4883230000000  0.4929520000000 1.0
C      1  0.4600560000000  0.5564690000000  0.4723410000000 1.0
C      1  0.4903980000000  0.5725730000000  0.5358410000000 1.0
C      1  0.5016210000000  0.5006090000000  0.4940480000000 1.0
C      1  0.4118860000000  0.4970240000000  0.4647070000000 1.0
C      1  0.4756160000000  0.5793780000000  0.4650200000000 1.0
C      1  0.4985120000000  0.5711590000000  0.4503320000000 1.0
C      1  0.4709200000000  0.5782690000000  0.5140300000000 1.0
C      1  0.5526950000000  0.5344510000000  0.5341950000000 1.0
C      1  0.4666150000000  0.4305630000000  0.4451060000000 1.0
C      1  0.5405430000000  0.5078920000000  0.5767540000000 1.0
C      1  0.5240540000000  0.4616180000000  0.4819390000000 1.0
C      1  0.4403460000000  0.4759000000000  0.4296130000000 1.0
C      1  0.5145580000000  0.5628610000000  0.5229440000000 1.0
C      1  0.4690280000000  0.5455220000000  0.4192040000000 1.0
C      1  0.4633170000000  0.4832060000000  0.5715680000000 1.0
C      1  0.5351040000000  0.4653470000000  0.4309990000000 1.0
C      1  0.5445140000000  0.5538600000000  0.4647130000000 1.0
C      1  0.4414690000000  0.5763380000000  0.5212100000000 1.0
END
