TITL C-84574-7278-9 0.262683137812497 125000 -369.946320531835 0 0 55 (C1) n - 1
REM
REM in /rds/project/t2_vol4/rds-t2-cs072/BORA/CARBON/from-Arr/AIRSS/Generating-Clusters/GAP-ML-2020/Only-C1/SD-CG/HFTN-CG
REM
REM
REM
REM
REM
REM ./C.cell (11c1c37f851c82e70ff6c80c92926a4b)
REM AIRSS Version 0.9.1 bugfix July 2018 build 013d7b7c2542+ Fri, 06 Jul 2018 19:26:36 +0100
REM compiler GCC version 9.3.0
REM options -cpp -mtune=generic -march=x86-64 -g -O0
REM seed 166035601 -1733983886 -810274874 -1197767568 -1906049848 -1877649352 567193240 818703112 896106505 1803851925 -1424950718 1313516249 -172803653 1604488785 1128244932 113179558 1065293084 904170735 -437901309 214358611 -1403345254 -1846791942 620190894 -2029449562 -70994983 -1414395415 1366632402 -146585029 476057361 -1556924286 -457554457 -181824863 653237909
REM
CELL 1.54180   50.00000   50.00000   50.00000   90.00000   90.00000   90.00000
LATT -1
SFAC C  
C      1  0.4904150000000  0.4610870000000  0.4442610000000 1.0
C      1  0.5407340000000  0.5278580000000  0.5651310000000 1.0
C      1  0.4897760000000  0.5236350000000  0.5371930000000 1.0
C      1  0.5434030000000  0.4745460000000  0.5572240000000 1.0
C      1  0.4663630000000  0.5126210000000  0.5512940000000 1.0
C      1  0.5791410000000  0.4813470000000  0.5185510000000 1.0
C      1  0.5174830000000  0.4432630000000  0.5187910000000 1.0
C      1  0.5357070000000  0.4653990000000  0.5125940000000 1.0
C      1  0.4524840000000  0.5409810000000  0.4769850000000 1.0
C      1  0.5329260000000  0.4909330000000  0.4701080000000 1.0
C      1  0.5378660000000  0.4636190000000  0.4815890000000 1.0
C      1  0.5177160000000  0.5556200000000  0.4698510000000 1.0
C      1  0.4709680000000  0.4673550000000  0.5405340000000 1.0
C      1  0.5039280000000  0.4848970000000  0.5713290000000 1.0
C      1  0.5573960000000  0.4697800000000  0.5324600000000 1.0
C      1  0.5209710000000  0.5285780000000  0.4396050000000 1.0
C      1  0.5206560000000  0.5002010000000  0.4433540000000 1.0
C      1  0.4927780000000  0.5527240000000  0.5324440000000 1.0
C      1  0.4561870000000  0.5554480000000  0.5010090000000 1.0
C      1  0.4749360000000  0.5108940000000  0.5125430000000 1.0
C      1  0.5627710000000  0.5310920000000  0.4657890000000 1.0
C      1  0.5755820000000  0.4929340000000  0.4959880000000 1.0
C      1  0.5045330000000  0.4434770000000  0.5438360000000 1.0
C      1  0.4426500000000  0.5460900000000  0.5232060000000 1.0
C      1  0.4767500000000  0.4879680000000  0.5605580000000 1.0
C      1  0.4991760000000  0.5446060000000  0.4503910000000 1.0
C      1  0.5404610000000  0.5433540000000  0.4574730000000 1.0
C      1  0.5182220000000  0.5112070000000  0.5358450000000 1.0
C      1  0.5062690000000  0.5474790000000  0.4955270000000 1.0
C      1  0.5216300000000  0.4424140000000  0.4718890000000 1.0
C      1  0.4466190000000  0.5192380000000  0.5280700000000 1.0
C      1  0.5364610000000  0.5363180000000  0.5387140000000 1.0
C      1  0.4694030000000  0.4798340000000  0.5118800000000 1.0
C      1  0.4425970000000  0.5000900000000  0.4583570000000 1.0
C      1  0.4728440000000  0.4634060000000  0.4667250000000 1.0
C      1  0.4963370000000  0.4880490000000  0.4331260000000 1.0
C      1  0.4471720000000  0.4750360000000  0.4701700000000 1.0
C      1  0.4644810000000  0.5116750000000  0.4432790000000 1.0
C      1  0.4759140000000  0.5027650000000  0.4203650000000 1.0
C      1  0.5204150000000  0.4912530000000  0.5157260000000 1.0
C      1  0.4764680000000  0.5307870000000  0.4629990000000 1.0
C      1  0.5185720000000  0.4613720000000  0.5621680000000 1.0
C      1  0.5293350000000  0.5013540000000  0.5634490000000 1.0
C      1  0.4823430000000  0.5619290000000  0.5071360000000 1.0
C      1  0.4920280000000  0.5203170000000  0.4897400000000 1.0
C      1  0.4770690000000  0.4409150000000  0.5459890000000 1.0
C      1  0.4884550000000  0.4691060000000  0.4910620000000 1.0
C      1  0.4428330000000  0.4802260000000  0.4986310000000 1.0
C      1  0.5596460000000  0.5051530000000  0.4762350000000 1.0
C      1  0.5104890000000  0.4425120000000  0.4470830000000 1.0
C      1  0.4358570000000  0.5182980000000  0.4796970000000 1.0
C      1  0.5205880000000  0.5531150000000  0.5229330000000 1.0
C      1  0.5086990000000  0.4958400000000  0.4900410000000 1.0
C      1  0.4310780000000  0.5053940000000  0.5045930000000 1.0
C      1  0.5044210000000  0.4446120000000  0.4944820000000 1.0
END
