TITL C-84602-7139-6 0.0456285573734182 125000 -396.257368458933 0 0 58 (C1) n - 1
REM
REM in /rds/project/t2_vol4/rds-t2-cs072/BORA/CARBON/from-Arr/AIRSS/Generating-Clusters/GAP-ML-2020/Only-C1/SD-CG/HFTN-CG
REM
REM
REM
REM
REM
REM ./C.cell (11c1c37f851c82e70ff6c80c92926a4b)
REM AIRSS Version 0.9.1 bugfix July 2018 build 013d7b7c2542+ Fri, 06 Jul 2018 19:26:36 +0100
REM compiler GCC version 9.3.0
REM options -cpp -mtune=generic -march=x86-64 -g -O0
REM seed -587608225 742241939 1471944605 1836058741 -1482011777 -1807811566 468529209 -405442752 1480419730 752508119 -1969358938 -1319472201 -811170040 -188888112 -2050847764 1046320599 735987915 -1927604220 71720704 251433058 1796972658 -1960056793 2112498890 -46725646 1370536221 2012273259 595581824 -1408515846 1322394317 -2067574794 247119371 906604619 596285094
REM
CELL 1.54180   50.00000   50.00000   50.00000   90.00000   90.00000   90.00000
LATT -1
SFAC C  
C      1  0.4687170000000  0.5158120000000  0.4713790000000 1.0
C      1  0.4483460000000  0.4858750000000  0.5069680000000 1.0
C      1  0.4952470000000  0.4869280000000  0.4364150000000 1.0
C      1  0.4796290000000  0.4540500000000  0.5512100000000 1.0
C      1  0.5323770000000  0.4681540000000  0.4540540000000 1.0
C      1  0.4356670000000  0.4813430000000  0.4803400000000 1.0
C      1  0.5180090000000  0.5021310000000  0.5071360000000 1.0
C      1  0.5395250000000  0.5180680000000  0.5495740000000 1.0
C      1  0.5621400000000  0.4899490000000  0.5158370000000 1.0
C      1  0.5613090000000  0.4909220000000  0.4866820000000 1.0
C      1  0.4988380000000  0.4890890000000  0.5201250000000 1.0
C      1  0.4755400000000  0.5341590000000  0.5179850000000 1.0
C      1  0.4573640000000  0.4712500000000  0.5475800000000 1.0
C      1  0.5389070000000  0.4528080000000  0.5006010000000 1.0
C      1  0.4407460000000  0.5231290000000  0.4771720000000 1.0
C      1  0.4863450000000  0.5281500000000  0.4895780000000 1.0
C      1  0.5597810000000  0.5150900000000  0.5290980000000 1.0
C      1  0.4967890000000  0.4440620000000  0.4747340000000 1.0
C      1  0.5249060000000  0.5691460000000  0.4986950000000 1.0
C      1  0.5304450000000  0.4952370000000  0.5613680000000 1.0
C      1  0.5574420000000  0.5386750000000  0.5137940000000 1.0
C      1  0.4508970000000  0.5128750000000  0.5224120000000 1.0
C      1  0.5320280000000  0.4682930000000  0.5499310000000 1.0
C      1  0.5038390000000  0.4645420000000  0.5608200000000 1.0
C      1  0.4926580000000  0.5331560000000  0.5431980000000 1.0
C      1  0.5401810000000  0.5575620000000  0.4760640000000 1.0
C      1  0.5580740000000  0.5147170000000  0.4715530000000 1.0
C      1  0.4835290000000  0.5110530000000  0.5598530000000 1.0
C      1  0.4794390000000  0.4801270000000  0.5044970000000 1.0
C      1  0.4588590000000  0.5560510000000  0.5052830000000 1.0
C      1  0.4742870000000  0.5740850000000  0.4889580000000 1.0
C      1  0.4939610000000  0.4598780000000  0.4301750000000 1.0
C      1  0.5039960000000  0.4285070000000  0.5200720000000 1.0
C      1  0.4593710000000  0.4999350000000  0.5485590000000 1.0
C      1  0.4450320000000  0.4622010000000  0.5230970000000 1.0
C      1  0.4848460000000  0.5720260000000  0.4603210000000 1.0
C      1  0.5591590000000  0.5390450000000  0.4859740000000 1.0
C      1  0.5276310000000  0.5461630000000  0.4527650000000 1.0
C      1  0.4883040000000  0.4728120000000  0.4790750000000 1.0
C      1  0.4549360000000  0.4658060000000  0.4659320000000 1.0
C      1  0.5470240000000  0.4679850000000  0.4780060000000 1.0
C      1  0.4761150000000  0.4894390000000  0.4583840000000 1.0
C      1  0.5126070000000  0.5215840000000  0.4902370000000 1.0
C      1  0.5039560000000  0.5607740000000  0.4472630000000 1.0
C      1  0.5467150000000  0.4668410000000  0.5251080000000 1.0
C      1  0.4654950000000  0.4430510000000  0.4803720000000 1.0
C      1  0.5100510000000  0.4483130000000  0.4492930000000 1.0
C      1  0.5245230000000  0.4932030000000  0.4423060000000 1.0
C      1  0.5378570000000  0.5175060000000  0.4500450000000 1.0
C      1  0.4586340000000  0.4400650000000  0.5091330000000 1.0
C      1  0.5206880000000  0.5403370000000  0.5427910000000 1.0
C      1  0.5007830000000  0.5809560000000  0.4971430000000 1.0
C      1  0.5348130000000  0.5547860000000  0.5223700000000 1.0
C      1  0.4396750000000  0.5350220000000  0.5036540000000 1.0
C      1  0.4794430000000  0.4350460000000  0.5286380000000 1.0
C      1  0.4238890000000  0.5031460000000  0.4698220000000 1.0
C      1  0.5156480000000  0.4365580000000  0.4972200000000 1.0
C      1  0.5029850000000  0.4925230000000  0.5693520000000 1.0
END
