TITL C-84605-7237-5 0.045276588117964 125000 -105.745070746341 0 0 17 (C1) n - 1
REM
REM in /rds/project/t2_vol4/rds-t2-cs072/BORA/CARBON/from-Arr/AIRSS/Generating-Clusters/GAP-ML-2020/Only-C1/SD-CG/HFTN-CG
REM
REM
REM
REM
REM
REM ./C.cell (11c1c37f851c82e70ff6c80c92926a4b)
REM AIRSS Version 0.9.1 bugfix July 2018 build 013d7b7c2542+ Fri, 06 Jul 2018 19:26:36 +0100
REM compiler GCC version 9.3.0
REM options -cpp -mtune=generic -march=x86-64 -g -O0
REM seed -1216904391 -54288854 15875719 -821839372 783635316 -62795845 -772645376 -1473601189 -1732290762 1164267498 -129268601 -192177122 1889831555 -105011805 -1903426373 1127040756 -1198931010 1683928742 -1779011253 -1563383783 283189533 1188631072 -2093316363 976532726 -1645732564 560576429 672364884 -721881502 -1146897676 -83740342 167832146 287128776 -781115283
REM
CELL 1.54180   50.00000   50.00000   50.00000   90.00000   90.00000   90.00000
LATT -1
SFAC C  
C      1  0.5403950000000  0.5090090000000  0.5107050000000 1.0
C      1  0.4630110000000  0.4749210000000  0.5224010000000 1.0
C      1  0.5096310000000  0.4866170000000  0.4545540000000 1.0
C      1  0.5365940000000  0.4933870000000  0.4611180000000 1.0
C      1  0.5356690000000  0.4925010000000  0.4887760000000 1.0
C      1  0.4889210000000  0.5341060000000  0.5408540000000 1.0
C      1  0.4852560000000  0.5453330000000  0.5169840000000 1.0
C      1  0.5149180000000  0.4723280000000  0.4954260000000 1.0
C      1  0.4978070000000  0.4671100000000  0.4742930000000 1.0
C      1  0.4855970000000  0.4835120000000  0.5341760000000 1.0
C      1  0.4987040000000  0.5093620000000  0.5429560000000 1.0
C      1  0.5105240000000  0.4753500000000  0.5226880000000 1.0
C      1  0.5236170000000  0.5005390000000  0.5301660000000 1.0
C      1  0.4919470000000  0.5058090000000  0.4443620000000 1.0
C      1  0.4839900000000  0.5241450000000  0.4607380000000 1.0
C      1  0.4506870000000  0.4648480000000  0.5027700000000 1.0
C      1  0.4827330000000  0.5611240000000  0.4970350000000 1.0
END
