TITL C-84600-7156-8 -0.208826753419683 125000 -804.487270050463 0 0 117 (C1) n - 1
REM
REM in /rds/project/t2_vol4/rds-t2-cs072/BORA/CARBON/from-Arr/AIRSS/Generating-Clusters/GAP-ML-2020/Only-C1/SD-CG/HFTN-CG
REM
REM
REM
REM
REM
REM ./C.cell (11c1c37f851c82e70ff6c80c92926a4b)
REM AIRSS Version 0.9.1 bugfix July 2018 build 013d7b7c2542+ Fri, 06 Jul 2018 19:26:36 +0100
REM compiler GCC version 9.3.0
REM options -cpp -mtune=generic -march=x86-64 -g -O0
REM seed -1940255324 -1822207133 221343752 1446365654 -774562259 1033284650 1749066019 576259855 -167309900 2095409471 -1862855205 1187860017 -1155716096 1585470771 -365034972 1456902028 624009018 -1361134341 980245568 -1354953951 -838681545 -1621192664 1105374428 -73239503 -866569956 1512744167 -134347767 138585065 465476552 1649873582 -72785309 725462673 -1140079194
REM
CELL 1.54180   50.00000   50.00000   50.00000   90.00000   90.00000   90.00000
LATT -1
SFAC C  
C      1  0.4761950000000  0.5092030000000  0.5584510000000 1.0
C      1  0.4706980000000  0.4708300000000  0.5247440000000 1.0
C      1  0.4222620000000  0.4860170000000  0.5257860000000 1.0
C      1  0.4512860000000  0.4296360000000  0.5312440000000 1.0
C      1  0.4764600000000  0.4531960000000  0.5709080000000 1.0
C      1  0.5074570000000  0.4509960000000  0.5037500000000 1.0
C      1  0.4472420000000  0.4467230000000  0.4555840000000 1.0
C      1  0.5373510000000  0.4634980000000  0.5642260000000 1.0
C      1  0.5510980000000  0.5208610000000  0.4237230000000 1.0
C      1  0.5686380000000  0.4976110000000  0.5708170000000 1.0
C      1  0.4141410000000  0.4700370000000  0.5036470000000 1.0
C      1  0.5585020000000  0.4748260000000  0.4401130000000 1.0
C      1  0.5505430000000  0.5746650000000  0.5019200000000 1.0
C      1  0.4693650000000  0.4151160000000  0.4804340000000 1.0
C      1  0.5048830000000  0.5495950000000  0.5535310000000 1.0
C      1  0.4075160000000  0.4432400000000  0.5088330000000 1.0
C      1  0.4836100000000  0.4191710000000  0.4569370000000 1.0
C      1  0.4219900000000  0.5497940000000  0.4533400000000 1.0
C      1  0.4548170000000  0.4551130000000  0.5474920000000 1.0
C      1  0.5112750000000  0.4168320000000  0.4612940000000 1.0
C      1  0.5120590000000  0.5276830000000  0.4615350000000 1.0
C      1  0.5870740000000  0.5441680000000  0.5152560000000 1.0
C      1  0.4120060000000  0.5450720000000  0.4768270000000 1.0
C      1  0.5299020000000  0.5395880000000  0.4168470000000 1.0
C      1  0.5287890000000  0.5403400000000  0.4885620000000 1.0
C      1  0.5248570000000  0.4226670000000  0.5352810000000 1.0
C      1  0.5261290000000  0.5441070000000  0.5741200000000 1.0
C      1  0.5722820000000  0.5413690000000  0.4669200000000 1.0
C      1  0.4280300000000  0.5249520000000  0.5536020000000 1.0
C      1  0.5670450000000  0.4788180000000  0.5241730000000 1.0
C      1  0.4843140000000  0.5278920000000  0.4555120000000 1.0
C      1  0.4726500000000  0.5588620000000  0.4498470000000 1.0
C      1  0.5262240000000  0.4796890000000  0.4066030000000 1.0
C      1  0.4814350000000  0.4880400000000  0.4246480000000 1.0
C      1  0.4923730000000  0.5138870000000  0.4291520000000 1.0
C      1  0.5827540000000  0.4840050000000  0.4790170000000 1.0
C      1  0.5261820000000  0.5715530000000  0.4582970000000 1.0
C      1  0.5526520000000  0.5464930000000  0.5636440000000 1.0
C      1  0.4607600000000  0.5522600000000  0.5807500000000 1.0
C      1  0.5881320000000  0.4996160000000  0.5210670000000 1.0
C      1  0.5462940000000  0.4917310000000  0.4194320000000 1.0
C      1  0.4446120000000  0.5037880000000  0.5177600000000 1.0
C      1  0.5064000000000  0.4752380000000  0.4894480000000 1.0
C      1  0.4751720000000  0.4136160000000  0.5264590000000 1.0
C      1  0.4326150000000  0.4710380000000  0.4533470000000 1.0
C      1  0.5178670000000  0.4781480000000  0.5441440000000 1.0
C      1  0.4976200000000  0.4333670000000  0.5664730000000 1.0
C      1  0.5045570000000  0.5683020000000  0.5279300000000 1.0
C      1  0.4810660000000  0.5335960000000  0.5001820000000 1.0
C      1  0.4809250000000  0.5434140000000  0.4078200000000 1.0
C      1  0.5477520000000  0.5601160000000  0.4758960000000 1.0
C      1  0.4211540000000  0.5199840000000  0.5263240000000 1.0
C      1  0.5712130000000  0.5660140000000  0.5201340000000 1.0
C      1  0.5885080000000  0.5328150000000  0.4887250000000 1.0
C      1  0.5045830000000  0.5279100000000  0.4071350000000 1.0
C      1  0.4598330000000  0.4665490000000  0.4944390000000 1.0
C      1  0.5058280000000  0.5014640000000  0.5587840000000 1.0
C      1  0.5325920000000  0.5773940000000  0.5259520000000 1.0
C      1  0.4539630000000  0.5503620000000  0.5071320000000 1.0
C      1  0.5069990000000  0.4954010000000  0.5888820000000 1.0
C      1  0.5009680000000  0.4444830000000  0.4253730000000 1.0
C      1  0.4756320000000  0.4431300000000  0.4434670000000 1.0
C      1  0.4441200000000  0.5488930000000  0.5585370000000 1.0
C      1  0.5273270000000  0.4363540000000  0.5605750000000 1.0
C      1  0.5187690000000  0.5627100000000  0.4319250000000 1.0
C      1  0.4596160000000  0.4961950000000  0.5792140000000 1.0
C      1  0.4347870000000  0.4979560000000  0.5664360000000 1.0
C      1  0.5111430000000  0.5243930000000  0.5406230000000 1.0
C      1  0.4507920000000  0.4369400000000  0.4838050000000 1.0
C      1  0.5693200000000  0.5213600000000  0.4464480000000 1.0
C      1  0.5361080000000  0.5123180000000  0.4892450000000 1.0
C      1  0.4778050000000  0.5782180000000  0.4723810000000 1.0
C      1  0.4459810000000  0.5485040000000  0.4381680000000 1.0
C      1  0.4543930000000  0.5014830000000  0.4186150000000 1.0
C      1  0.4791820000000  0.4830870000000  0.4792710000000 1.0
C      1  0.5637970000000  0.4741240000000  0.5540390000000 1.0
C      1  0.4321180000000  0.4808140000000  0.4822300000000 1.0
C      1  0.4796110000000  0.4775500000000  0.5862490000000 1.0
C      1  0.4981330000000  0.4612830000000  0.5275140000000 1.0
C      1  0.5264060000000  0.5031860000000  0.4627810000000 1.0
C      1  0.4902290000000  0.5637160000000  0.4266140000000 1.0
C      1  0.4334020000000  0.4332430000000  0.5084640000000 1.0
C      1  0.4311230000000  0.4749500000000  0.5507250000000 1.0
C      1  0.5138830000000  0.4112500000000  0.4893270000000 1.0
C      1  0.4656520000000  0.5774660000000  0.4980100000000 1.0
C      1  0.5297760000000  0.4311860000000  0.5040400000000 1.0
C      1  0.5511520000000  0.4468380000000  0.4853970000000 1.0
C      1  0.5049720000000  0.5538340000000  0.4995200000000 1.0
C      1  0.4843160000000  0.5379710000000  0.5735160000000 1.0
C      1  0.5048370000000  0.5755650000000  0.4775360000000 1.0
C      1  0.4713550000000  0.5133220000000  0.4783640000000 1.0
C      1  0.5371540000000  0.4889550000000  0.5251820000000 1.0
C      1  0.4948750000000  0.5144600000000  0.5177600000000 1.0
C      1  0.5862650000000  0.5236010000000  0.5353190000000 1.0
C      1  0.5409340000000  0.4552790000000  0.4563140000000 1.0
C      1  0.4554920000000  0.5609010000000  0.5344680000000 1.0
C      1  0.5329020000000  0.4804900000000  0.5899870000000 1.0
C      1  0.5750180000000  0.4924710000000  0.4533920000000 1.0
C      1  0.4354580000000  0.4872340000000  0.4319260000000 1.0
C      1  0.5531950000000  0.5668020000000  0.5432220000000 1.0
C      1  0.5020480000000  0.4690440000000  0.4108460000000 1.0
C      1  0.4712510000000  0.5002070000000  0.5296800000000 1.0
C      1  0.5078750000000  0.5260530000000  0.5886010000000 1.0
C      1  0.4858120000000  0.4726250000000  0.4511050000000 1.0
C      1  0.5928800000000  0.5051270000000  0.4940540000000 1.0
C      1  0.4863310000000  0.4067050000000  0.5006680000000 1.0
C      1  0.5563590000000  0.4926200000000  0.5961050000000 1.0
C      1  0.4428540000000  0.5086700000000  0.4888440000000 1.0
C      1  0.5228990000000  0.4350250000000  0.4431290000000 1.0
C      1  0.5713850000000  0.5243160000000  0.5591580000000 1.0
C      1  0.4972280000000  0.4157130000000  0.5434100000000 1.0
C      1  0.4552530000000  0.5315160000000  0.4163830000000 1.0
C      1  0.5188560000000  0.4978230000000  0.5057930000000 1.0
C      1  0.4281400000000  0.5345540000000  0.4990760000000 1.0
C      1  0.5696910000000  0.4645660000000  0.4963320000000 1.0
C      1  0.5160110000000  0.4758080000000  0.4611440000000 1.0
C      1  0.4765970000000  0.5788480000000  0.5248610000000 1.0
END
