TITL C-84574-7278-8 0.0613722028739277 125000 -365.341414110396 0 0 55 (C1) n - 1
REM
REM in /rds/project/t2_vol4/rds-t2-cs072/BORA/CARBON/from-Arr/AIRSS/Generating-Clusters/GAP-ML-2020/Only-C1/SD-CG/HFTN-CG
REM
REM
REM
REM
REM
REM ./C.cell (11c1c37f851c82e70ff6c80c92926a4b)
REM AIRSS Version 0.9.1 bugfix July 2018 build 013d7b7c2542+ Fri, 06 Jul 2018 19:26:36 +0100
REM compiler GCC version 9.3.0
REM options -cpp -mtune=generic -march=x86-64 -g -O0
REM seed 977355353 1393638809 -2071907981 1600771770 1407698314 2103393222 -402485231 2141650882 245642151 788931056 -1363530858 -1695249229 1961759858 -1290621433 1388836535 -960596003 382032357 -1455390878 -166857215 -1867561570 -1014630684 -1703337922 2088221497 1388798218 -1800552189 -85046934 -1931494382 -1741992790 1022272352 1656762971 626731191 -324082418 1882318144
REM
CELL 1.54180   50.00000   50.00000   50.00000   90.00000   90.00000   90.00000
LATT -1
SFAC C  
C      1  0.4915690000000  0.5557850000000  0.4617610000000 1.0
C      1  0.4795830000000  0.5576320000000  0.4887140000000 1.0
C      1  0.5106850000000  0.5261220000000  0.5094480000000 1.0
C      1  0.4870060000000  0.4423660000000  0.5244710000000 1.0
C      1  0.5737000000000  0.5001610000000  0.5027760000000 1.0
C      1  0.5080210000000  0.5233310000000  0.5592000000000 1.0
C      1  0.5005380000000  0.4379280000000  0.4991200000000 1.0
C      1  0.4390530000000  0.5280390000000  0.4925340000000 1.0
C      1  0.4798560000000  0.5228280000000  0.5189220000000 1.0
C      1  0.4457180000000  0.4578140000000  0.5032790000000 1.0
C      1  0.5267680000000  0.4850720000000  0.4964490000000 1.0
C      1  0.5425060000000  0.4572860000000  0.5238000000000 1.0
C      1  0.5169760000000  0.5068880000000  0.5309120000000 1.0
C      1  0.4262100000000  0.5040990000000  0.4971880000000 1.0
C      1  0.4693460000000  0.4920670000000  0.4804830000000 1.0
C      1  0.5164090000000  0.5711000000000  0.4729770000000 1.0
C      1  0.5671900000000  0.5257760000000  0.5005850000000 1.0
C      1  0.4561400000000  0.4871170000000  0.4336520000000 1.0
C      1  0.5502720000000  0.5324090000000  0.5425900000000 1.0
C      1  0.4616910000000  0.5410170000000  0.5032220000000 1.0
C      1  0.5227520000000  0.5515830000000  0.5176330000000 1.0
C      1  0.5287020000000  0.4439260000000  0.5005760000000 1.0
C      1  0.5039560000000  0.4837900000000  0.5166510000000 1.0
C      1  0.4300060000000  0.4812600000000  0.5124560000000 1.0
C      1  0.4961340000000  0.4582850000000  0.4510120000000 1.0
C      1  0.4823890000000  0.4805530000000  0.4351570000000 1.0
C      1  0.4790330000000  0.4837140000000  0.5530750000000 1.0
C      1  0.4841010000000  0.5130700000000  0.5485900000000 1.0
C      1  0.5062020000000  0.5680520000000  0.4999250000000 1.0
C      1  0.4851850000000  0.4467300000000  0.4755030000000 1.0
C      1  0.5275150000000  0.4915700000000  0.4419890000000 1.0
C      1  0.5368480000000  0.4857910000000  0.5627000000000 1.0
C      1  0.5380830000000  0.5116200000000  0.4586590000000 1.0
C      1  0.5313170000000  0.5372030000000  0.4483080000000 1.0
C      1  0.4997640000000  0.4639610000000  0.5401300000000 1.0
C      1  0.5458310000000  0.5022920000000  0.5394590000000 1.0
C      1  0.4776230000000  0.4951420000000  0.5082800000000 1.0
C      1  0.4602250000000  0.4498350000000  0.5254320000000 1.0
C      1  0.5005240000000  0.5032840000000  0.4400940000000 1.0
C      1  0.5022470000000  0.5343110000000  0.4458330000000 1.0
C      1  0.5179430000000  0.5101050000000  0.4840200000000 1.0
C      1  0.5246630000000  0.5449360000000  0.5474250000000 1.0
C      1  0.5234550000000  0.4651390000000  0.4528320000000 1.0
C      1  0.4375870000000  0.5003460000000  0.4454080000000 1.0
C      1  0.4622360000000  0.4621570000000  0.4808350000000 1.0
C      1  0.5522750000000  0.5428960000000  0.5158790000000 1.0
C      1  0.5216830000000  0.5038410000000  0.5754020000000 1.0
C      1  0.4429580000000  0.5052050000000  0.4733670000000 1.0
C      1  0.5281360000000  0.4617130000000  0.5479450000000 1.0
C      1  0.5388040000000  0.5586840000000  0.4638350000000 1.0
C      1  0.4301070000000  0.4812370000000  0.5400860000000 1.0
C      1  0.4934670000000  0.5043510000000  0.4688450000000 1.0
C      1  0.4546670000000  0.4713460000000  0.5466890000000 1.0
C      1  0.5327130000000  0.4617690000000  0.4789200000000 1.0
C      1  0.5516340000000  0.4854660000000  0.5149630000000 1.0
END
