TITL C-84590-7180-1 -0.0136975952167004 125000 -803.270964087429 0 0 114 (C1) n - 1
REM
REM in /rds/project/t2_vol4/rds-t2-cs072/BORA/CARBON/from-Arr/AIRSS/Generating-Clusters/GAP-ML-2020/Only-C1/SD-CG/HFTN-CG
REM
REM
REM
REM
REM
REM ./C.cell (11c1c37f851c82e70ff6c80c92926a4b)
REM AIRSS Version 0.9.1 bugfix July 2018 build 013d7b7c2542+ Fri, 06 Jul 2018 19:26:36 +0100
REM compiler GCC version 9.3.0
REM options -cpp -mtune=generic -march=x86-64 -g -O0
REM seed 1377785066 -848286824 459599432 1702262244 2056278584 1969258408 1394180711 -1946462853 2142116334 -1407583516 399257617 1362403969 1288186227 1220012202 1656276156 1928792621 -422606427 1066132266 858686101 567030818 -356268440 -736506667 -701509777 1612225018 1922331321 174151916 -819250243 -1713095091 1832883789 1925455653 -1442642446 862699265 -1809581041
REM
CELL 1.54180   50.00000   50.00000   50.00000   90.00000   90.00000   90.00000
LATT -1
SFAC C  
C      1  0.4768470000000  0.5207580000000  0.5495860000000 1.0
C      1  0.5138280000000  0.4570480000000  0.5751040000000 1.0
C      1  0.4043830000000  0.5171310000000  0.5012070000000 1.0
C      1  0.5044410000000  0.4887990000000  0.5184530000000 1.0
C      1  0.4883780000000  0.4449970000000  0.5693180000000 1.0
C      1  0.4847790000000  0.4442760000000  0.4999270000000 1.0
C      1  0.5582590000000  0.5836240000000  0.5024600000000 1.0
C      1  0.5444180000000  0.4925550000000  0.5494160000000 1.0
C      1  0.5378820000000  0.4998160000000  0.5778160000000 1.0
C      1  0.5733140000000  0.5286920000000  0.5460650000000 1.0
C      1  0.4653800000000  0.4840480000000  0.5842890000000 1.0
C      1  0.4873640000000  0.5242620000000  0.4788870000000 1.0
C      1  0.5103260000000  0.4591980000000  0.5113150000000 1.0
C      1  0.4707140000000  0.4456050000000  0.5262170000000 1.0
C      1  0.5928050000000  0.4859940000000  0.5273160000000 1.0
C      1  0.4871460000000  0.5773890000000  0.4677850000000 1.0
C      1  0.4515900000000  0.5192450000000  0.5067470000000 1.0
C      1  0.4474100000000  0.5208940000000  0.5586140000000 1.0
C      1  0.5321750000000  0.4180170000000  0.4608380000000 1.0
C      1  0.5744490000000  0.5626360000000  0.5123840000000 1.0
C      1  0.5093640000000  0.5573150000000  0.4298070000000 1.0
C      1  0.4720070000000  0.4566870000000  0.4751330000000 1.0
C      1  0.4267780000000  0.5326890000000  0.5432690000000 1.0
C      1  0.4972950000000  0.4843760000000  0.4364610000000 1.0
C      1  0.5422360000000  0.5240310000000  0.4263420000000 1.0
C      1  0.4526350000000  0.4584620000000  0.4355370000000 1.0
C      1  0.4655130000000  0.5001680000000  0.4170030000000 1.0
C      1  0.4229330000000  0.4785620000000  0.4701530000000 1.0
C      1  0.5174050000000  0.4294480000000  0.4382630000000 1.0
C      1  0.4748420000000  0.5694480000000  0.4929280000000 1.0
C      1  0.4745840000000  0.5328780000000  0.4499410000000 1.0
C      1  0.4592060000000  0.4908660000000  0.5036260000000 1.0
C      1  0.5327450000000  0.4476160000000  0.5554400000000 1.0
C      1  0.5341010000000  0.5864580000000  0.4600270000000 1.0
C      1  0.4251760000000  0.4785120000000  0.5593040000000 1.0
C      1  0.4883590000000  0.5835560000000  0.5133020000000 1.0
C      1  0.5844660000000  0.5472430000000  0.4894560000000 1.0
C      1  0.5340500000000  0.4212360000000  0.5089040000000 1.0
C      1  0.4445130000000  0.4677960000000  0.4872980000000 1.0
C      1  0.5324020000000  0.5022690000000  0.4774250000000 1.0
C      1  0.4243250000000  0.5409590000000  0.4618210000000 1.0
C      1  0.4558450000000  0.5701950000000  0.5413400000000 1.0
C      1  0.5540950000000  0.4648550000000  0.5499780000000 1.0
C      1  0.4273960000000  0.4525990000000  0.5081710000000 1.0
C      1  0.4908870000000  0.4176690000000  0.4889460000000 1.0
C      1  0.5162730000000  0.5268210000000  0.4763120000000 1.0
C      1  0.4877190000000  0.5393350000000  0.5283060000000 1.0
C      1  0.5931090000000  0.5215700000000  0.4974960000000 1.0
C      1  0.4426200000000  0.4397710000000  0.5325070000000 1.0
C      1  0.5151510000000  0.4844170000000  0.5853610000000 1.0
C      1  0.5578070000000  0.5815100000000  0.4741950000000 1.0
C      1  0.5084780000000  0.5672560000000  0.5587950000000 1.0
C      1  0.5605790000000  0.5120220000000  0.5655150000000 1.0
C      1  0.4334880000000  0.5585290000000  0.5315210000000 1.0
C      1  0.4934970000000  0.4771790000000  0.4673090000000 1.0
C      1  0.5584680000000  0.4521300000000  0.4420550000000 1.0
C      1  0.5319900000000  0.4598770000000  0.4932730000000 1.0
C      1  0.4076120000000  0.4729030000000  0.5134190000000 1.0
C      1  0.5183490000000  0.4124340000000  0.4863810000000 1.0
C      1  0.5708510000000  0.5575150000000  0.4646110000000 1.0
C      1  0.4856470000000  0.4930050000000  0.5400990000000 1.0
C      1  0.5790110000000  0.4517700000000  0.5078180000000 1.0
C      1  0.4429240000000  0.5295840000000  0.4458700000000 1.0
C      1  0.4901260000000  0.4985790000000  0.5885350000000 1.0
C      1  0.4086620000000  0.4878290000000  0.5378940000000 1.0
C      1  0.5339660000000  0.4513930000000  0.4278410000000 1.0
C      1  0.4416040000000  0.5041920000000  0.4314320000000 1.0
C      1  0.4138910000000  0.5421610000000  0.4879160000000 1.0
C      1  0.4857450000000  0.4961840000000  0.4889440000000 1.0
C      1  0.5176750000000  0.5363830000000  0.5251830000000 1.0
C      1  0.4392770000000  0.4530760000000  0.5585120000000 1.0
C      1  0.4329170000000  0.4787530000000  0.4435280000000 1.0
C      1  0.5327380000000  0.5624600000000  0.5381170000000 1.0
C      1  0.4908990000000  0.4300840000000  0.4367760000000 1.0
C      1  0.5692130000000  0.4798700000000  0.4394020000000 1.0
C      1  0.5561160000000  0.4326790000000  0.4644650000000 1.0
C      1  0.5337550000000  0.5681570000000  0.4383350000000 1.0
C      1  0.5247580000000  0.4780440000000  0.4241190000000 1.0
C      1  0.4438750000000  0.4118620000000  0.4915070000000 1.0
C      1  0.5349020000000  0.5854160000000  0.5177190000000 1.0
C      1  0.5884110000000  0.4900120000000  0.4559000000000 1.0
C      1  0.4654410000000  0.4779340000000  0.5289070000000 1.0
C      1  0.5954300000000  0.4751270000000  0.5006400000000 1.0
C      1  0.4425110000000  0.4971350000000  0.5724640000000 1.0
C      1  0.5770410000000  0.4623500000000  0.5347300000000 1.0
C      1  0.4647430000000  0.4139160000000  0.4748440000000 1.0
C      1  0.4057890000000  0.4902690000000  0.4906020000000 1.0
C      1  0.4841880000000  0.5694550000000  0.5385270000000 1.0
C      1  0.4087220000000  0.5152340000000  0.5299190000000 1.0
C      1  0.4909520000000  0.4334980000000  0.5440740000000 1.0
C      1  0.4291000000000  0.4228480000000  0.5112960000000 1.0
C      1  0.5950570000000  0.4967250000000  0.4815970000000 1.0
C      1  0.5474210000000  0.4957960000000  0.4262680000000 1.0
C      1  0.5546150000000  0.5483220000000  0.4401690000000 1.0
C      1  0.4999640000000  0.5507770000000  0.5781580000000 1.0
C      1  0.5283400000000  0.5049630000000  0.5257190000000 1.0
C      1  0.5630190000000  0.5531690000000  0.5367860000000 1.0
C      1  0.5440110000000  0.5100990000000  0.5020250000000 1.0
C      1  0.5221730000000  0.4766160000000  0.4738800000000 1.0
C      1  0.4677290000000  0.4360470000000  0.4512610000000 1.0
C      1  0.4731300000000  0.5391980000000  0.5011020000000 1.0
C      1  0.5107530000000  0.5916190000000  0.4746740000000 1.0
C      1  0.5888000000000  0.5139790000000  0.5256290000000 1.0
C      1  0.4728070000000  0.4733020000000  0.4220920000000 1.0
C      1  0.4894300000000  0.5141370000000  0.4290870000000 1.0
C      1  0.4860980000000  0.5603940000000  0.4454740000000 1.0
C      1  0.5557780000000  0.4394190000000  0.4943990000000 1.0
C      1  0.5122190000000  0.5941930000000  0.5034810000000 1.0
C      1  0.4633360000000  0.4569550000000  0.5746690000000 1.0
C      1  0.5298650000000  0.5377300000000  0.4983320000000 1.0
C      1  0.4890350000000  0.5257690000000  0.5768570000000 1.0
C      1  0.5138380000000  0.5302060000000  0.4220930000000 1.0
C      1  0.4192170000000  0.5613770000000  0.5070380000000 1.0
C      1  0.5183030000000  0.4358030000000  0.5326230000000 1.0
END
