TITL C-84605-7237-2 -15.8962400573436 125000 -457.532483645815 0 0 67 (C1) n - 1
REM
REM in /rds/project/t2_vol4/rds-t2-cs072/BORA/CARBON/from-Arr/AIRSS/Generating-Clusters/GAP-ML-2020/Only-C1/SD-CG/HFTN-CG
REM
REM
REM
REM
REM
REM ./C.cell (11c1c37f851c82e70ff6c80c92926a4b)
REM AIRSS Version 0.9.1 bugfix July 2018 build 013d7b7c2542+ Fri, 06 Jul 2018 19:26:36 +0100
REM compiler GCC version 9.3.0
REM options -cpp -mtune=generic -march=x86-64 -g -O0
REM seed -324342002 -708579209 293324124 1775103460 -888020962 1572181590 1755843826 -991462657 -1751126845 1094502261 -1921938942 -1008459333 -1432105988 -1433246587 27102168 -1271571180 -1870464362 -1786630911 -1227511478 -1922592186 135152676 -1635177085 17988290 1105609072 1806591651 -1659627710 -1279524248 1863939328 -1676795756 -1658520154 1244796713 1081786045 155340064
REM
CELL 1.54180   50.00000   50.00000   50.00000   90.00000   90.00000   90.00000
LATT -1
SFAC C  
C      1  0.4549450000000  0.5366740000000  0.5347150000000 1.0
C      1  0.4321490000000  0.5189130000000  0.4957480000000 1.0
C      1  0.4451130000000  0.4906730000000  0.5383760000000 1.0
C      1  0.5259970000000  0.4264320000000  0.5219150000000 1.0
C      1  0.5178160000000  0.5773080000000  0.5084080000000 1.0
C      1  0.5042280000000  0.5289410000000  0.4329280000000 1.0
C      1  0.5310380000000  0.5167670000000  0.4284590000000 1.0
C      1  0.4560050000000  0.4452690000000  0.5294930000000 1.0
C      1  0.4961740000000  0.4925960000000  0.4749500000000 1.0
C      1  0.5394450000000  0.4913820000000  0.4329870000000 1.0
C      1  0.5371610000000  0.5681520000000  0.4887420000000 1.0
C      1  0.4727470000000  0.4874330000000  0.4363080000000 1.0
C      1  0.4805950000000  0.5154840000000  0.4392960000000 1.0
C      1  0.4469010000000  0.4842070000000  0.4485680000000 1.0
C      1  0.4524980000000  0.4524520000000  0.4769730000000 1.0
C      1  0.5158770000000  0.5688730000000  0.4683320000000 1.0
C      1  0.5547190000000  0.4819590000000  0.4571090000000 1.0
C      1  0.5394390000000  0.4571890000000  0.4557900000000 1.0
C      1  0.5453640000000  0.5377120000000  0.5384910000000 1.0
C      1  0.5610350000000  0.5044540000000  0.5093890000000 1.0
C      1  0.4392670000000  0.5157400000000  0.5252650000000 1.0
C      1  0.5483800000000  0.4432880000000  0.5504830000000 1.0
C      1  0.5274170000000  0.5138880000000  0.5385680000000 1.0
C      1  0.4982470000000  0.4726020000000  0.5195310000000 1.0
C      1  0.5429620000000  0.4895950000000  0.5304080000000 1.0
C      1  0.5607840000000  0.5319060000000  0.5146140000000 1.0
C      1  0.4840610000000  0.5295790000000  0.5413740000000 1.0
C      1  0.5027360000000  0.5131140000000  0.5559380000000 1.0
C      1  0.4425130000000  0.4685240000000  0.5201130000000 1.0
C      1  0.5434540000000  0.5372510000000  0.4451270000000 1.0
C      1  0.5178810000000  0.5517650000000  0.4466950000000 1.0
C      1  0.5527440000000  0.5018540000000  0.4793240000000 1.0
C      1  0.4909470000000  0.5578030000000  0.5392930000000 1.0
C      1  0.4398220000000  0.4580670000000  0.4532040000000 1.0
C      1  0.4963620000000  0.4452520000000  0.4677850000000 1.0
C      1  0.5230470000000  0.4975360000000  0.4885700000000 1.0
C      1  0.4932920000000  0.4887220000000  0.5652250000000 1.0
C      1  0.4947350000000  0.4717500000000  0.4515220000000 1.0
C      1  0.4944430000000  0.4433170000000  0.5555280000000 1.0
C      1  0.4677330000000  0.4527090000000  0.5537810000000 1.0
C      1  0.5168330000000  0.5679060000000  0.5350840000000 1.0
C      1  0.4704730000000  0.5630530000000  0.4951880000000 1.0
C      1  0.4478740000000  0.5006010000000  0.4764330000000 1.0
C      1  0.4873700000000  0.5177310000000  0.5111100000000 1.0
C      1  0.5257450000000  0.4744430000000  0.5097530000000 1.0
C      1  0.5475020000000  0.4196940000000  0.5396870000000 1.0
C      1  0.4420990000000  0.5670110000000  0.4847860000000 1.0
C      1  0.4989880000000  0.4276110000000  0.5310970000000 1.0
C      1  0.5212220000000  0.4693690000000  0.4367930000000 1.0
C      1  0.5247030000000  0.4422440000000  0.4739920000000 1.0
C      1  0.4826240000000  0.4874500000000  0.5018180000000 1.0
C      1  0.4758100000000  0.4309530000000  0.5134160000000 1.0
C      1  0.4652380000000  0.4807660000000  0.5578610000000 1.0
C      1  0.5383690000000  0.4683940000000  0.5526690000000 1.0
C      1  0.4751820000000  0.4363310000000  0.4848470000000 1.0
C      1  0.5563720000000  0.5295480000000  0.4688260000000 1.0
C      1  0.5158430000000  0.5188590000000  0.5080370000000 1.0
C      1  0.4744550000000  0.5156360000000  0.4682720000000 1.0
C      1  0.5320930000000  0.4455220000000  0.5012020000000 1.0
C      1  0.4961040000000  0.5764830000000  0.4885330000000 1.0
C      1  0.4531880000000  0.4765890000000  0.4939400000000 1.0
C      1  0.5403790000000  0.5618100000000  0.5500660000000 1.0
C      1  0.5561920000000  0.5474320000000  0.4905490000000 1.0
C      1  0.5112150000000  0.4661720000000  0.5633560000000 1.0
C      1  0.4792860000000  0.5343270000000  0.4896160000000 1.0
C      1  0.4285270000000  0.5453800000000  0.4887220000000 1.0
C      1  0.4662390000000  0.5615500000000  0.5250220000000 1.0
END
