TITL C-84575-7212-7 0.000644275730474936 125000 -132.647345645551 0 0 21 (C1) n - 1
REM
REM in /rds/project/t2_vol4/rds-t2-cs072/BORA/CARBON/from-Arr/AIRSS/Generating-Clusters/GAP-ML-2020/Only-C1/SD-CG/HFTN-CG
REM
REM
REM
REM
REM
REM ./C.cell (11c1c37f851c82e70ff6c80c92926a4b)
REM AIRSS Version 0.9.1 bugfix July 2018 build 013d7b7c2542+ Fri, 06 Jul 2018 19:26:36 +0100
REM compiler GCC version 9.3.0
REM options -cpp -mtune=generic -march=x86-64 -g -O0
REM seed -1544090089 1924340870 -727039960 1119250770 -211879798 -1592516353 1803871406 -1382969722 -7651091 1196549375 -1625763166 -690414480 -1226426962 -737822006 -481288654 -40651383 1986260192 1048070240 -2066504217 906869813 -1564042972 -1367617002 -30178577 -224400803 2102917069 -1495511716 196295411 -648739740 1165185183 -1111911232 51467859 423550190 249435916
REM
CELL 1.54180   50.00000   50.00000   50.00000   90.00000   90.00000   90.00000
LATT -1
SFAC C  
C      1  0.5433570000000  0.5300110000000  0.5095140000000 1.0
C      1  0.5337090000000  0.4672920000000  0.5056270000000 1.0
C      1  0.5005050000000  0.4903300000000  0.5393040000000 1.0
C      1  0.5442380000000  0.4879770000000  0.5192420000000 1.0
C      1  0.5276850000000  0.4955690000000  0.5437620000000 1.0
C      1  0.4608660000000  0.4707540000000  0.5137160000000 1.0
C      1  0.4802320000000  0.5066240000000  0.4567780000000 1.0
C      1  0.4427760000000  0.4532940000000  0.5199600000000 1.0
C      1  0.4889810000000  0.4710790000000  0.5221090000000 1.0
C      1  0.4909740000000  0.4603960000000  0.4771750000000 1.0
C      1  0.5195960000000  0.5431030000000  0.4448880000000 1.0
C      1  0.5593000000000  0.5099280000000  0.5087870000000 1.0
C      1  0.5162440000000  0.5348070000000  0.5131010000000 1.0
C      1  0.4991150000000  0.5414270000000  0.4897190000000 1.0
C      1  0.4767300000000  0.5254350000000  0.4791890000000 1.0
C      1  0.4553200000000  0.4872820000000  0.4904250000000 1.0
C      1  0.5140970000000  0.5498560000000  0.4686860000000 1.0
C      1  0.4751890000000  0.4809100000000  0.4695270000000 1.0
C      1  0.5107430000000  0.5168120000000  0.5355240000000 1.0
C      1  0.4540720000000  0.5143380000000  0.4916330000000 1.0
C      1  0.5062710000000  0.4627770000000  0.5013360000000 1.0
END
