TITL C-84603-7252-5 -0.117190681706744 125000 -663.099901484608 0 0 93 (C1) n - 1
REM
REM in /rds/project/t2_vol4/rds-t2-cs072/BORA/CARBON/from-Arr/AIRSS/Generating-Clusters/GAP-ML-2020/Only-C1/SD-CG/HFTN-CG
REM
REM
REM
REM
REM
REM ./C.cell (11c1c37f851c82e70ff6c80c92926a4b)
REM AIRSS Version 0.9.1 bugfix July 2018 build 013d7b7c2542+ Fri, 06 Jul 2018 19:26:36 +0100
REM compiler GCC version 9.3.0
REM options -cpp -mtune=generic -march=x86-64 -g -O0
REM seed -1530404949 115508678 2039573069 -785125136 1943519674 -1275848058 329069314 534367765 -2020511688 1943708392 1625563663 1678211011 -652731378 -1725890244 -711607818 1470045950 762552021 1515888948 -277065504 1220371817 -97584646 -1619661175 -453208963 -941731967 319608330 -553214415 1584414583 -1402968017 250791431 85040418 877900231 -2043783178 729765066
REM
CELL 1.54180   50.00000   50.00000   50.00000   90.00000   90.00000   90.00000
LATT -1
SFAC C  
C      1  0.4979890000000  0.4951390000000  0.5241390000000 1.0
C      1  0.4170380000000  0.4890940000000  0.4631830000000 1.0
C      1  0.4321520000000  0.4668640000000  0.4737700000000 1.0
C      1  0.5090270000000  0.5271890000000  0.4919460000000 1.0
C      1  0.5615320000000  0.4263440000000  0.4810490000000 1.0
C      1  0.5529390000000  0.4741930000000  0.4999370000000 1.0
C      1  0.5521490000000  0.5119280000000  0.4384000000000 1.0
C      1  0.4912420000000  0.4845880000000  0.4826700000000 1.0
C      1  0.4687830000000  0.4873790000000  0.4254620000000 1.0
C      1  0.4984610000000  0.4263720000000  0.5429960000000 1.0
C      1  0.5370220000000  0.4285900000000  0.4696810000000 1.0
C      1  0.4769450000000  0.4901650000000  0.5063900000000 1.0
C      1  0.4525420000000  0.5648700000000  0.4550810000000 1.0
C      1  0.5082060000000  0.4592800000000  0.4848490000000 1.0
C      1  0.4376660000000  0.5515680000000  0.4967080000000 1.0
C      1  0.5733670000000  0.4634310000000  0.5215980000000 1.0
C      1  0.4269770000000  0.4684680000000  0.5020090000000 1.0
C      1  0.4227100000000  0.4975470000000  0.5071250000000 1.0
C      1  0.5415490000000  0.4562010000000  0.5680840000000 1.0
C      1  0.4116360000000  0.5093480000000  0.4829440000000 1.0
C      1  0.5746400000000  0.4833170000000  0.5412480000000 1.0
C      1  0.4307350000000  0.5458670000000  0.4501240000000 1.0
C      1  0.4544110000000  0.5076850000000  0.5024180000000 1.0
C      1  0.5409560000000  0.4975550000000  0.5171840000000 1.0
C      1  0.4526540000000  0.5140820000000  0.4733030000000 1.0
C      1  0.5274200000000  0.4588240000000  0.5073230000000 1.0
C      1  0.4693050000000  0.4616080000000  0.5648880000000 1.0
C      1  0.5168740000000  0.5153170000000  0.5146670000000 1.0
C      1  0.4819950000000  0.5423340000000  0.4940130000000 1.0
C      1  0.4830570000000  0.4271950000000  0.5193960000000 1.0
C      1  0.5571130000000  0.4801410000000  0.5646840000000 1.0
C      1  0.5182340000000  0.5783750000000  0.4665980000000 1.0
C      1  0.5047020000000  0.5346270000000  0.5682560000000 1.0
C      1  0.4209320000000  0.4990570000000  0.4377370000000 1.0
C      1  0.5602780000000  0.4194440000000  0.5077380000000 1.0
C      1  0.4244220000000  0.5066250000000  0.5335400000000 1.0
C      1  0.5208480000000  0.5833110000000  0.5132800000000 1.0
C      1  0.5671650000000  0.4369760000000  0.5293110000000 1.0
C      1  0.4763310000000  0.5326650000000  0.5611430000000 1.0
C      1  0.5470920000000  0.5397700000000  0.4403250000000 1.0
C      1  0.5674820000000  0.5261010000000  0.4806350000000 1.0
C      1  0.5059830000000  0.4610940000000  0.4392570000000 1.0
C      1  0.4995370000000  0.5098770000000  0.4710540000000 1.0
C      1  0.4780930000000  0.5540530000000  0.4481220000000 1.0
C      1  0.4765000000000  0.5290070000000  0.4662850000000 1.0
C      1  0.4260460000000  0.5340560000000  0.4764120000000 1.0
C      1  0.4559180000000  0.4531210000000  0.4625310000000 1.0
C      1  0.4753650000000  0.4645020000000  0.4423470000000 1.0
C      1  0.4415350000000  0.4952950000000  0.5511480000000 1.0
C      1  0.4313750000000  0.5249280000000  0.4317070000000 1.0
C      1  0.5476590000000  0.5493140000000  0.5472280000000 1.0
C      1  0.4624390000000  0.5081270000000  0.5670470000000 1.0
C      1  0.5577920000000  0.5488540000000  0.4649300000000 1.0
C      1  0.4929130000000  0.4452120000000  0.5641510000000 1.0
C      1  0.5144040000000  0.4601810000000  0.5767560000000 1.0
C      1  0.5688550000000  0.5108060000000  0.5315150000000 1.0
C      1  0.5466630000000  0.4347740000000  0.5495670000000 1.0
C      1  0.5253900000000  0.4188660000000  0.5383390000000 1.0
C      1  0.4576610000000  0.5357700000000  0.5122960000000 1.0
C      1  0.5712020000000  0.5304710000000  0.5090890000000 1.0
C      1  0.4571870000000  0.4348470000000  0.5102270000000 1.0
C      1  0.5612920000000  0.5022220000000  0.4636070000000 1.0
C      1  0.4804140000000  0.5704800000000  0.5286870000000 1.0
C      1  0.5584400000000  0.5248890000000  0.5548630000000 1.0
C      1  0.5197380000000  0.4772090000000  0.5276390000000 1.0
C      1  0.4668690000000  0.5476290000000  0.5383410000000 1.0
C      1  0.5332770000000  0.4097240000000  0.5121400000000 1.0
C      1  0.5204900000000  0.5454520000000  0.4302480000000 1.0
C      1  0.4924090000000  0.4991650000000  0.4143950000000 1.0
C      1  0.5045120000000  0.5639190000000  0.4453620000000 1.0
C      1  0.5073340000000  0.5735810000000  0.5366340000000 1.0
C      1  0.5589650000000  0.5543890000000  0.5205990000000 1.0
C      1  0.5517430000000  0.4765110000000  0.4708190000000 1.0
C      1  0.5038660000000  0.5863360000000  0.4903760000000 1.0
C      1  0.5447260000000  0.5710350000000  0.4758960000000 1.0
C      1  0.4767310000000  0.4863180000000  0.5775920000000 1.0
C      1  0.4524020000000  0.5719800000000  0.4837000000000 1.0
C      1  0.4437760000000  0.5006650000000  0.4226190000000 1.0
C      1  0.4785920000000  0.5744730000000  0.4981650000000 1.0
C      1  0.4472520000000  0.4668330000000  0.5474160000000 1.0
C      1  0.5270080000000  0.4560630000000  0.4607280000000 1.0
C      1  0.5139280000000  0.4799060000000  0.4201140000000 1.0
C      1  0.5185210000000  0.4146200000000  0.4881180000000 1.0
C      1  0.5330290000000  0.5012260000000  0.4212450000000 1.0
C      1  0.5043810000000  0.4865110000000  0.5832610000000 1.0
C      1  0.5458650000000  0.5058380000000  0.5713200000000 1.0
C      1  0.4650320000000  0.4346840000000  0.4822550000000 1.0
C      1  0.5186680000000  0.5109510000000  0.5786750000000 1.0
C      1  0.5202820000000  0.5550680000000  0.5546490000000 1.0
C      1  0.4398880000000  0.4537220000000  0.5222920000000 1.0
C      1  0.4938720000000  0.4311260000000  0.4909280000000 1.0
C      1  0.5461220000000  0.5734030000000  0.5045060000000 1.0
C      1  0.5114790000000  0.5214820000000  0.4169740000000 1.0
END
