TITL C-84589-8541-6 -4.84867552293715 125000 -108.606184602596 0 0 17 (C1) n - 1
REM
REM in /rds/project/t2_vol4/rds-t2-cs072/BORA/CARBON/from-Arr/AIRSS/Generating-Clusters/GAP-ML-2020/Only-C1/SD-CG/HFTN-CG
REM
REM
REM
REM
REM
REM ./C.cell (11c1c37f851c82e70ff6c80c92926a4b)
REM AIRSS Version 0.9.1 bugfix July 2018 build 013d7b7c2542+ Fri, 06 Jul 2018 19:26:36 +0100
REM compiler GCC version 9.3.0
REM options -cpp -mtune=generic -march=x86-64 -g -O0
REM seed -1800375933 1700270958 335455743 441474373 1960765185 -1630819345 229765240 -512644674 1867041189 -67975500 -1685802240 705759149 -143183758 -1350035884 -1427242873 457490089 -1573465412 -566139204 232515425 374677744 -1140121457 937449062 -963495040 -1181447389 1587294622 1483121410 -930272485 1525440043 -1471573730 -345376361 16903844 -1341486893 -1575685682
REM
CELL 1.54180   50.00000   50.00000   50.00000   90.00000   90.00000   90.00000
LATT -1
SFAC C  
C      1  0.5170220000000  0.4626580000000  0.4706620000000 1.0
C      1  0.4440480000000  0.5215430000000  0.5348610000000 1.0
C      1  0.4463920000000  0.4664850000000  0.4837270000000 1.0
C      1  0.5320460000000  0.4827130000000  0.4760090000000 1.0
C      1  0.4718250000000  0.5347320000000  0.4564160000000 1.0
C      1  0.5173080000000  0.5028330000000  0.5244500000000 1.0
C      1  0.5451820000000  0.5028820000000  0.4849040000000 1.0
C      1  0.5092020000000  0.5446340000000  0.4907700000000 1.0
C      1  0.4977890000000  0.4578510000000  0.4915400000000 1.0
C      1  0.4709730000000  0.4623300000000  0.4887800000000 1.0
C      1  0.4696090000000  0.5175140000000  0.5366080000000 1.0
C      1  0.5178790000000  0.4752780000000  0.5259190000000 1.0
C      1  0.5339600000000  0.5165910000000  0.5062020000000 1.0
C      1  0.4909920000000  0.5399420000000  0.4726750000000 1.0
C      1  0.5299870000000  0.5454280000000  0.5053730000000 1.0
C      1  0.4944530000000  0.5144760000000  0.5327200000000 1.0
C      1  0.5113320000000  0.4521100000000  0.5183870000000 1.0
END
