TITL C-84580-7166-4 16.2749871298584 125000 -206.196603899718 0 0 32 (C1) n - 1
REM
REM in /rds/project/t2_vol4/rds-t2-cs072/BORA/CARBON/from-Arr/AIRSS/Generating-Clusters/GAP-ML-2020/Only-C1/SD-CG/HFTN-CG
REM
REM
REM
REM
REM
REM ./C.cell (11c1c37f851c82e70ff6c80c92926a4b)
REM AIRSS Version 0.9.1 bugfix July 2018 build 013d7b7c2542+ Fri, 06 Jul 2018 19:26:36 +0100
REM compiler GCC version 9.3.0
REM options -cpp -mtune=generic -march=x86-64 -g -O0
REM seed 1702597573 -483755049 149766148 -1727753633 -424776919 -697405095 828627812 2104155801 -803825464 -1873388128 2114604921 -1481460452 -1538797077 -432254624 -1392848318 247199537 -509151275 52609685 -436936900 1170906310 -1915595523 -1069487551 1781543436 -1562576455 473060744 -747050582 687649531 1822439970 -304872528 1975643567 1765343624 -1182752509 -502223858
REM
CELL 1.54180   50.00000   50.00000   50.00000   90.00000   90.00000   90.00000
LATT -1
SFAC C  
C      1  0.5382620000000  0.5332900000000  0.4618920000000 1.0
C      1  0.5038420000000  0.4816670000000  0.5136680000000 1.0
C      1  0.5128780000000  0.5308470000000  0.4463520000000 1.0
C      1  0.4937890000000  0.4910770000000  0.4874060000000 1.0
C      1  0.4615770000000  0.5382590000000  0.4980590000000 1.0
C      1  0.5111500000000  0.5024260000000  0.4431710000000 1.0
C      1  0.4528330000000  0.4815130000000  0.5407070000000 1.0
C      1  0.4649360000000  0.4889550000000  0.4850580000000 1.0
C      1  0.5289710000000  0.4931920000000  0.5251600000000 1.0
C      1  0.5199080000000  0.5151770000000  0.5430740000000 1.0
C      1  0.5553940000000  0.4969290000000  0.4576490000000 1.0
C      1  0.4923570000000  0.5373770000000  0.4649030000000 1.0
C      1  0.4946640000000  0.5106630000000  0.5549610000000 1.0
C      1  0.4787070000000  0.4886790000000  0.5506530000000 1.0
C      1  0.5079240000000  0.4838940000000  0.4628730000000 1.0
C      1  0.5344490000000  0.4704990000000  0.5461700000000 1.0
C      1  0.5307680000000  0.5238330000000  0.4886460000000 1.0
C      1  0.4512200000000  0.4441900000000  0.5085200000000 1.0
C      1  0.5027370000000  0.5235030000000  0.4902330000000 1.0
C      1  0.5634190000000  0.4913750000000  0.4837700000000 1.0
C      1  0.4975270000000  0.5329330000000  0.5378130000000 1.0
C      1  0.4633250000000  0.4546250000000  0.5312790000000 1.0
C      1  0.5318240000000  0.4837460000000  0.4478400000000 1.0
C      1  0.4522870000000  0.5115420000000  0.4991990000000 1.0
C      1  0.5601310000000  0.5228040000000  0.4493430000000 1.0
C      1  0.4486920000000  0.4689740000000  0.4972420000000 1.0
C      1  0.4395190000000  0.4919410000000  0.5161430000000 1.0
C      1  0.5146160000000  0.4548850000000  0.5496560000000 1.0
C      1  0.4908570000000  0.4656860000000  0.5343300000000 1.0
C      1  0.4684490000000  0.5471620000000  0.4709640000000 1.0
C      1  0.5448190000000  0.5016800000000  0.5013920000000 1.0
C      1  0.4881700000000  0.5366750000000  0.5118730000000 1.0
END
