TITL C-84586-7220-2 37.469190672981 125000 -527.310992085414 0 0 76 (C1) n - 1
REM
REM in /rds/project/t2_vol4/rds-t2-cs072/BORA/CARBON/from-Arr/AIRSS/Generating-Clusters/GAP-ML-2020/Only-C1/SD-CG/HFTN-CG
REM
REM
REM
REM
REM
REM ./C.cell (11c1c37f851c82e70ff6c80c92926a4b)
REM AIRSS Version 0.9.1 bugfix July 2018 build 013d7b7c2542+ Fri, 06 Jul 2018 19:26:36 +0100
REM compiler GCC version 9.3.0
REM options -cpp -mtune=generic -march=x86-64 -g -O0
REM seed -37859066 304389184 101972656 2052741714 981661540 -843374222 -2103299367 -327849786 1209051293 -829057742 1526867890 434861885 1710214353 568739956 -2052274928 -1305439391 1358558685 808700147 1486110555 -1117629797 -1202901230 -236729372 1145824299 -882392859 -1699200229 610608775 1954354067 -409070346 2000276952 140246066 -303757585 -726863792 81160472
REM
CELL 1.54180   50.00000   50.00000   50.00000   90.00000   90.00000   90.00000
LATT -1
SFAC C  
C      1  0.5448650000000  0.4802020000000  0.5275370000000 1.0
C      1  0.5352780000000  0.5302150000000  0.4450310000000 1.0
C      1  0.4754770000000  0.5703290000000  0.4539140000000 1.0
C      1  0.4852620000000  0.4618840000000  0.5439640000000 1.0
C      1  0.5005970000000  0.5065700000000  0.5516380000000 1.0
C      1  0.4896220000000  0.4930980000000  0.4807500000000 1.0
C      1  0.5060770000000  0.5354770000000  0.5520820000000 1.0
C      1  0.5399190000000  0.5579570000000  0.5274160000000 1.0
C      1  0.5414030000000  0.4494210000000  0.5279850000000 1.0
C      1  0.4442000000000  0.4919390000000  0.5539270000000 1.0
C      1  0.5876460000000  0.5121370000000  0.5076610000000 1.0
C      1  0.4466830000000  0.4998020000000  0.4557700000000 1.0
C      1  0.5127480000000  0.5088640000000  0.4967940000000 1.0
C      1  0.5251140000000  0.4123640000000  0.4825180000000 1.0
C      1  0.5455220000000  0.5135950000000  0.5597530000000 1.0
C      1  0.4345320000000  0.4662080000000  0.5548060000000 1.0
C      1  0.4764930000000  0.4689330000000  0.4380590000000 1.0
C      1  0.5161910000000  0.4936610000000  0.5245560000000 1.0
C      1  0.5437110000000  0.5649620000000  0.4784310000000 1.0
C      1  0.5225540000000  0.4970600000000  0.5691930000000 1.0
C      1  0.5210650000000  0.4708260000000  0.5743950000000 1.0
C      1  0.5882790000000  0.5049460000000  0.5342030000000 1.0
C      1  0.5028100000000  0.5803840000000  0.4997920000000 1.0
C      1  0.4380630000000  0.4586740000000  0.4712500000000 1.0
C      1  0.5085680000000  0.4524250000000  0.5595780000000 1.0
C      1  0.4966660000000  0.4903040000000  0.4325000000000 1.0
C      1  0.5443410000000  0.4495450000000  0.4990320000000 1.0
C      1  0.4606560000000  0.5316540000000  0.5140650000000 1.0
C      1  0.5071600000000  0.4676070000000  0.4680690000000 1.0
C      1  0.5151420000000  0.5717110000000  0.5243920000000 1.0
C      1  0.4753380000000  0.5745090000000  0.5018450000000 1.0
C      1  0.4741010000000  0.4914240000000  0.5492190000000 1.0
C      1  0.4982540000000  0.4243810000000  0.5233230000000 1.0
C      1  0.5199390000000  0.4355520000000  0.5390710000000 1.0
C      1  0.5535870000000  0.5477120000000  0.4577970000000 1.0
C      1  0.5639310000000  0.4973030000000  0.5444340000000 1.0
C      1  0.4730630000000  0.5338660000000  0.4854190000000 1.0
C      1  0.4525840000000  0.4389920000000  0.4869290000000 1.0
C      1  0.5014600000000  0.5345120000000  0.4929410000000 1.0
C      1  0.4324590000000  0.5010920000000  0.5262140000000 1.0
C      1  0.5343210000000  0.5378210000000  0.5491240000000 1.0
C      1  0.4216980000000  0.4780760000000  0.4852720000000 1.0
C      1  0.4741920000000  0.4371400000000  0.5316300000000 1.0
C      1  0.4896110000000  0.5168040000000  0.4398950000000 1.0
C      1  0.5211400000000  0.4825710000000  0.4461540000000 1.0
C      1  0.4723070000000  0.5127160000000  0.4637550000000 1.0
C      1  0.4502870000000  0.4390680000000  0.5162970000000 1.0
C      1  0.4316010000000  0.5264420000000  0.5131510000000 1.0
C      1  0.4655120000000  0.5024890000000  0.5226130000000 1.0
C      1  0.4230270000000  0.5298730000000  0.4858270000000 1.0
C      1  0.5375560000000  0.4996400000000  0.4844100000000 1.0
C      1  0.4307980000000  0.4555890000000  0.5286730000000 1.0
C      1  0.4244270000000  0.5039430000000  0.4725350000000 1.0
C      1  0.5786260000000  0.4918760000000  0.4884260000000 1.0
C      1  0.5415340000000  0.5021200000000  0.4541310000000 1.0
C      1  0.5539610000000  0.4786060000000  0.4981190000000 1.0
C      1  0.4778510000000  0.4329820000000  0.4761210000000 1.0
C      1  0.5718670000000  0.5051690000000  0.4629350000000 1.0
C      1  0.4715190000000  0.5575280000000  0.5240440000000 1.0
C      1  0.5172590000000  0.5740230000000  0.4758100000000 1.0
C      1  0.4507540000000  0.4725610000000  0.4491310000000 1.0
C      1  0.5757410000000  0.5324760000000  0.4674140000000 1.0
C      1  0.4988900000000  0.4706720000000  0.5168110000000 1.0
C      1  0.4766090000000  0.4838820000000  0.5036960000000 1.0
C      1  0.4338510000000  0.5535370000000  0.4769330000000 1.0
C      1  0.4206510000000  0.4779600000000  0.5133410000000 1.0
C      1  0.4613480000000  0.5625190000000  0.4775360000000 1.0
C      1  0.5144390000000  0.4543990000000  0.4944530000000 1.0
C      1  0.5086480000000  0.5380810000000  0.4410270000000 1.0
C      1  0.5565110000000  0.5564250000000  0.5032970000000 1.0
C      1  0.5787660000000  0.5381390000000  0.4954830000000 1.0
C      1  0.4878420000000  0.4504050000000  0.4555080000000 1.0
C      1  0.5015050000000  0.4262830000000  0.4937730000000 1.0
C      1  0.4947050000000  0.5578940000000  0.5394160000000 1.0
C      1  0.5478890000000  0.4248180000000  0.4837250000000 1.0
C      1  0.5013960000000  0.5633780000000  0.4532790000000 1.0
END
