TITL C-84600-7156-4 441.608814171076 125000 -780.061664391842 0 0 112 (C1) n - 1
REM
REM in /rds/project/t2_vol4/rds-t2-cs072/BORA/CARBON/from-Arr/AIRSS/Generating-Clusters/GAP-ML-2020/Only-C1/SD-CG/HFTN-CG
REM
REM
REM
REM
REM
REM ./C.cell (11c1c37f851c82e70ff6c80c92926a4b)
REM AIRSS Version 0.9.1 bugfix July 2018 build 013d7b7c2542+ Fri, 06 Jul 2018 19:26:36 +0100
REM compiler GCC version 9.3.0
REM options -cpp -mtune=generic -march=x86-64 -g -O0
REM seed 1410722316 -882422725 -518464860 -46448973 -935942096 1412550020 -375432432 1626458226 2043178535 -608251511 -1371968544 -1764021142 643202117 1440846300 -1116449205 -917893438 1247665003 1490587242 -599377508 983303603 94059740 1680452233 1970871374 1818549835 -1194205666 -2056398238 -1664848590 -1533393357 1745636754 -1368812507 996621284 -1707027652 1077712508
REM
CELL 1.54180   50.00000   50.00000   50.00000   90.00000   90.00000   90.00000
LATT -1
SFAC C  
C      1  0.5391470000000  0.4362900000000  0.5053140000000 1.0
C      1  0.4272580000000  0.5398580000000  0.5547230000000 1.0
C      1  0.5769140000000  0.5383760000000  0.4961790000000 1.0
C      1  0.5228720000000  0.4600220000000  0.4138090000000 1.0
C      1  0.4603870000000  0.5391670000000  0.4392170000000 1.0
C      1  0.4324970000000  0.5374020000000  0.4722890000000 1.0
C      1  0.4503610000000  0.5507000000000  0.5707870000000 1.0
C      1  0.5115130000000  0.4125420000000  0.4665470000000 1.0
C      1  0.5489150000000  0.5628120000000  0.5299610000000 1.0
C      1  0.4958630000000  0.5536910000000  0.5805030000000 1.0
C      1  0.5673720000000  0.5213700000000  0.5431660000000 1.0
C      1  0.4739090000000  0.5078170000000  0.5825810000000 1.0
C      1  0.5306920000000  0.5876490000000  0.4720120000000 1.0
C      1  0.5895290000000  0.5136290000000  0.4914380000000 1.0
C      1  0.4578620000000  0.5726740000000  0.5303780000000 1.0
C      1  0.4328270000000  0.5347560000000  0.4432710000000 1.0
C      1  0.5544620000000  0.4532580000000  0.4418840000000 1.0
C      1  0.4913530000000  0.4853500000000  0.5427500000000 1.0
C      1  0.4966610000000  0.5042410000000  0.5639610000000 1.0
C      1  0.4895500000000  0.5775110000000  0.5666440000000 1.0
C      1  0.4866090000000  0.4128370000000  0.4791430000000 1.0
C      1  0.5834430000000  0.4672250000000  0.4982000000000 1.0
C      1  0.4975230000000  0.4478430000000  0.5564760000000 1.0
C      1  0.4715400000000  0.4637640000000  0.5557430000000 1.0
C      1  0.5692580000000  0.5436350000000  0.5239670000000 1.0
C      1  0.5725100000000  0.4514450000000  0.5393060000000 1.0
C      1  0.4404040000000  0.4646310000000  0.4444920000000 1.0
C      1  0.5049980000000  0.4959660000000  0.5894630000000 1.0
C      1  0.4568210000000  0.4854060000000  0.5723440000000 1.0
C      1  0.5365180000000  0.5071710000000  0.5395560000000 1.0
C      1  0.5390820000000  0.4837170000000  0.5584440000000 1.0
C      1  0.5062320000000  0.5311520000000  0.4240090000000 1.0
C      1  0.4330950000000  0.4900220000000  0.5575310000000 1.0
C      1  0.5205960000000  0.5486840000000  0.4419480000000 1.0
C      1  0.4709280000000  0.5039690000000  0.4709050000000 1.0
C      1  0.4947040000000  0.5325810000000  0.5238300000000 1.0
C      1  0.5014910000000  0.4679880000000  0.4950690000000 1.0
C      1  0.4173640000000  0.4757060000000  0.5160730000000 1.0
C      1  0.5460330000000  0.5351530000000  0.4519460000000 1.0
C      1  0.4835230000000  0.5035740000000  0.5184020000000 1.0
C      1  0.5123450000000  0.5244320000000  0.5481980000000 1.0
C      1  0.5373190000000  0.4928810000000  0.5131670000000 1.0
C      1  0.5455980000000  0.4284930000000  0.4516520000000 1.0
C      1  0.5363240000000  0.4226410000000  0.4785690000000 1.0
C      1  0.5373150000000  0.5097870000000  0.4675740000000 1.0
C      1  0.5196410000000  0.4203170000000  0.4400340000000 1.0
C      1  0.5178180000000  0.4183010000000  0.5193750000000 1.0
C      1  0.4252010000000  0.5138490000000  0.5431650000000 1.0
C      1  0.4570480000000  0.4821570000000  0.4853490000000 1.0
C      1  0.5221490000000  0.5449260000000  0.5692640000000 1.0
C      1  0.5308290000000  0.4674370000000  0.4394260000000 1.0
C      1  0.5680960000000  0.4459590000000  0.5127020000000 1.0
C      1  0.5120340000000  0.5715200000000  0.4571560000000 1.0
C      1  0.5501260000000  0.5711640000000  0.4824150000000 1.0
C      1  0.5326070000000  0.5635870000000  0.5056330000000 1.0
C      1  0.4733500000000  0.5565770000000  0.4870860000000 1.0
C      1  0.4534890000000  0.4281530000000  0.5233820000000 1.0
C      1  0.5018250000000  0.4963680000000  0.4949840000000 1.0
C      1  0.5533970000000  0.5158530000000  0.4298450000000 1.0
C      1  0.4267290000000  0.5055250000000  0.5139380000000 1.0
C      1  0.4751560000000  0.4591020000000  0.4905350000000 1.0
C      1  0.4178820000000  0.5180000000000  0.4870240000000 1.0
C      1  0.5114610000000  0.4846890000000  0.4062030000000 1.0
C      1  0.4564480000000  0.4992040000000  0.5078920000000 1.0
C      1  0.5208260000000  0.4934520000000  0.4508280000000 1.0
C      1  0.5122770000000  0.5869490000000  0.4978920000000 1.0
C      1  0.5878580000000  0.4739850000000  0.4709600000000 1.0
C      1  0.5313300000000  0.4983340000000  0.5831200000000 1.0
C      1  0.4994370000000  0.4249040000000  0.5415260000000 1.0
C      1  0.5895460000000  0.4921420000000  0.5109990000000 1.0
C      1  0.5270530000000  0.5116760000000  0.4943990000000 1.0
C      1  0.4625750000000  0.5743040000000  0.5591710000000 1.0
C      1  0.5234390000000  0.5081340000000  0.4212280000000 1.0
C      1  0.4714460000000  0.5367820000000  0.5836090000000 1.0
C      1  0.4495990000000  0.4494640000000  0.5420720000000 1.0
C      1  0.5247540000000  0.4643790000000  0.5132800000000 1.0
C      1  0.4150950000000  0.5617530000000  0.5409360000000 1.0
C      1  0.4922490000000  0.5749120000000  0.4781050000000 1.0
C      1  0.5067440000000  0.5974350000000  0.5224840000000 1.0
C      1  0.4663580000000  0.4345830000000  0.4746550000000 1.0
C      1  0.4842970000000  0.4779350000000  0.4115340000000 1.0
C      1  0.4806100000000  0.4508120000000  0.4245820000000 1.0
C      1  0.4289760000000  0.4731280000000  0.4712800000000 1.0
C      1  0.4635480000000  0.5351330000000  0.4698320000000 1.0
C      1  0.4253950000000  0.5080040000000  0.4412360000000 1.0
C      1  0.4300110000000  0.5759900000000  0.5255590000000 1.0
C      1  0.5666200000000  0.4751330000000  0.5502030000000 1.0
C      1  0.5325890000000  0.5677940000000  0.5526630000000 1.0
C      1  0.4167680000000  0.4577370000000  0.4933850000000 1.0
C      1  0.4946330000000  0.4068790000000  0.5055490000000 1.0
C      1  0.5892150000000  0.5029690000000  0.4654440000000 1.0
C      1  0.5643660000000  0.5498990000000  0.4718530000000 1.0
C      1  0.5065760000000  0.4381090000000  0.4219790000000 1.0
C      1  0.4775690000000  0.5257820000000  0.4215590000000 1.0
C      1  0.5756830000000  0.4704260000000  0.4455540000000 1.0
C      1  0.5169010000000  0.4671740000000  0.5440380000000 1.0
C      1  0.4147740000000  0.4295150000000  0.4938050000000 1.0
C      1  0.4965110000000  0.4935500000000  0.4669890000000 1.0
C      1  0.4416710000000  0.4886530000000  0.4284660000000 1.0
C      1  0.4155970000000  0.4983940000000  0.4662630000000 1.0
C      1  0.4282220000000  0.4674580000000  0.5404890000000 1.0
C      1  0.4770700000000  0.4140770000000  0.5274810000000 1.0
C      1  0.5106640000000  0.5859520000000  0.5479910000000 1.0
C      1  0.5167760000000  0.5374020000000  0.5037650000000 1.0
C      1  0.4609410000000  0.4455840000000  0.4452700000000 1.0
C      1  0.5657080000000  0.5283700000000  0.5710990000000 1.0
C      1  0.4426520000000  0.4279150000000  0.4959740000000 1.0
C      1  0.4664520000000  0.4987460000000  0.4164430000000 1.0
C      1  0.4740180000000  0.5539250000000  0.5157380000000 1.0
C      1  0.5748310000000  0.4997160000000  0.4398590000000 1.0
C      1  0.5418280000000  0.5259510000000  0.5827090000000 1.0
C      1  0.5811420000000  0.4961920000000  0.5373190000000 1.0
END
