TITL C-84581-7217-7 50.244817763332 125000 -669.705610530065 0 0 96 (C1) n - 1
REM
REM in /rds/project/t2_vol4/rds-t2-cs072/BORA/CARBON/from-Arr/AIRSS/Generating-Clusters/GAP-ML-2020/Only-C1/SD-CG/HFTN-CG
REM
REM
REM
REM
REM
REM ./C.cell (11c1c37f851c82e70ff6c80c92926a4b)
REM AIRSS Version 0.9.1 bugfix July 2018 build 013d7b7c2542+ Fri, 06 Jul 2018 19:26:36 +0100
REM compiler GCC version 9.3.0
REM options -cpp -mtune=generic -march=x86-64 -g -O0
REM seed -1207862957 118686172 2140955779 -2112153347 -971953854 265709175 -37772121 -396088440 949537522 -1248029994 -2050404343 -42737776 213206629 -1442269067 -2133727451 -168465625 -741516724 -898800970 -1809656237 -1799417396 -1975087182 1172312926 132768653 -2107825049 1163637859 -1117062497 101254735 -1258298346 -856210848 815958253 -1711182944 -777778301 760552966
REM
CELL 1.54180   50.00000   50.00000   50.00000   90.00000   90.00000   90.00000
LATT -1
SFAC C  
C      1  0.5244920000000  0.5818870000000  0.4882090000000 1.0
C      1  0.5579320000000  0.5198290000000  0.4999040000000 1.0
C      1  0.5251980000000  0.5117630000000  0.5030290000000 1.0
C      1  0.4839880000000  0.5657050000000  0.4625320000000 1.0
C      1  0.5011240000000  0.5847380000000  0.5319680000000 1.0
C      1  0.4468330000000  0.5360430000000  0.4436260000000 1.0
C      1  0.4613010000000  0.5041730000000  0.4747880000000 1.0
C      1  0.4707270000000  0.5419490000000  0.5495700000000 1.0
C      1  0.4943510000000  0.4434410000000  0.5704850000000 1.0
C      1  0.4331680000000  0.4655420000000  0.4584870000000 1.0
C      1  0.4187900000000  0.4861760000000  0.4959420000000 1.0
C      1  0.4314460000000  0.4618140000000  0.5055100000000 1.0
C      1  0.4717030000000  0.4456390000000  0.4337140000000 1.0
C      1  0.5590130000000  0.4682010000000  0.4524400000000 1.0
C      1  0.4770270000000  0.4586370000000  0.5218450000000 1.0
C      1  0.4939740000000  0.4635490000000  0.5473450000000 1.0
C      1  0.5292820000000  0.5566970000000  0.4439510000000 1.0
C      1  0.5163640000000  0.4530710000000  0.4598880000000 1.0
C      1  0.5725030000000  0.4956690000000  0.4907820000000 1.0
C      1  0.5611620000000  0.4953340000000  0.5574600000000 1.0
C      1  0.5450140000000  0.5652230000000  0.5010800000000 1.0
C      1  0.4620300000000  0.5585790000000  0.4498130000000 1.0
C      1  0.5043170000000  0.4261510000000  0.4632510000000 1.0
C      1  0.4825740000000  0.5066410000000  0.4487690000000 1.0
C      1  0.5239120000000  0.5157710000000  0.4120120000000 1.0
C      1  0.4365160000000  0.5677130000000  0.5221050000000 1.0
C      1  0.4403860000000  0.4490350000000  0.4814680000000 1.0
C      1  0.4240490000000  0.5317470000000  0.4908230000000 1.0
C      1  0.4635560000000  0.5180390000000  0.4267790000000 1.0
C      1  0.5363580000000  0.4497480000000  0.5736620000000 1.0
C      1  0.4931570000000  0.4586810000000  0.4175970000000 1.0
C      1  0.4584810000000  0.4897450000000  0.4178600000000 1.0
C      1  0.4864340000000  0.5297930000000  0.4123030000000 1.0
C      1  0.5151920000000  0.5598230000000  0.5413600000000 1.0
C      1  0.4989420000000  0.5289450000000  0.5017710000000 1.0
C      1  0.4832750000000  0.4826930000000  0.4050940000000 1.0
C      1  0.4964250000000  0.4726150000000  0.4759040000000 1.0
C      1  0.5093040000000  0.5128700000000  0.5953740000000 1.0
C      1  0.4602430000000  0.4939160000000  0.5607060000000 1.0
C      1  0.5172190000000  0.4177680000000  0.4868620000000 1.0
C      1  0.4769420000000  0.4292120000000  0.4571700000000 1.0
C      1  0.5691680000000  0.4927790000000  0.4631520000000 1.0
C      1  0.5232250000000  0.4330180000000  0.5309570000000 1.0
C      1  0.4994360000000  0.5062140000000  0.4018400000000 1.0
C      1  0.5452900000000  0.5028280000000  0.4242920000000 1.0
C      1  0.5488190000000  0.4679390000000  0.5526110000000 1.0
C      1  0.5552960000000  0.5447890000000  0.4842500000000 1.0
C      1  0.5641800000000  0.4574440000000  0.5279230000000 1.0
C      1  0.5585500000000  0.5150430000000  0.4469260000000 1.0
C      1  0.4853700000000  0.5284040000000  0.5960540000000 1.0
C      1  0.5131690000000  0.5518300000000  0.5697990000000 1.0
C      1  0.4746190000000  0.5073500000000  0.5007280000000 1.0
C      1  0.5789470000000  0.4995540000000  0.5361440000000 1.0
C      1  0.5417980000000  0.5590340000000  0.5296540000000 1.0
C      1  0.5037860000000  0.5233120000000  0.4555610000000 1.0
C      1  0.4759290000000  0.5893330000000  0.5417390000000 1.0
C      1  0.4231750000000  0.4904330000000  0.4683990000000 1.0
C      1  0.4484560000000  0.4615900000000  0.5285680000000 1.0
C      1  0.4541070000000  0.5176360000000  0.5467600000000 1.0
C      1  0.5449400000000  0.4491170000000  0.4679820000000 1.0
C      1  0.4499190000000  0.4656400000000  0.5572060000000 1.0
C      1  0.4584840000000  0.5678900000000  0.5395830000000 1.0
C      1  0.5088150000000  0.5930460000000  0.5070490000000 1.0
C      1  0.4747530000000  0.4825480000000  0.4602270000000 1.0
C      1  0.4888700000000  0.4902430000000  0.5599460000000 1.0
C      1  0.4539880000000  0.4680010000000  0.4385980000000 1.0
C      1  0.5195840000000  0.4292750000000  0.5599390000000 1.0
C      1  0.5774670000000  0.4796380000000  0.5151550000000 1.0
C      1  0.5038440000000  0.4866840000000  0.5857250000000 1.0
C      1  0.5285960000000  0.5309680000000  0.5805710000000 1.0
C      1  0.5219920000000  0.4660030000000  0.5359720000000 1.0
C      1  0.5034090000000  0.5083020000000  0.5414340000000 1.0
C      1  0.5135420000000  0.5717330000000  0.4629560000000 1.0
C      1  0.4235400000000  0.5568870000000  0.5030320000000 1.0
C      1  0.5150690000000  0.4907950000000  0.5201660000000 1.0
C      1  0.5139340000000  0.4602890000000  0.5879360000000 1.0
C      1  0.4665940000000  0.4475410000000  0.5709520000000 1.0
C      1  0.5581670000000  0.5404460000000  0.5434620000000 1.0
C      1  0.4853620000000  0.5454000000000  0.5748260000000 1.0
C      1  0.4633560000000  0.4326960000000  0.4821500000000 1.0
C      1  0.5425790000000  0.4746120000000  0.4292170000000 1.0
C      1  0.5180180000000  0.4599890000000  0.4304950000000 1.0
C      1  0.4249400000000  0.5100990000000  0.5090080000000 1.0
C      1  0.4972560000000  0.5422220000000  0.4762900000000 1.0
C      1  0.4351580000000  0.5190440000000  0.4661060000000 1.0
C      1  0.5436480000000  0.4308810000000  0.4895340000000 1.0
C      1  0.5509670000000  0.5225940000000  0.5648140000000 1.0
C      1  0.4911060000000  0.4807200000000  0.5037570000000 1.0
C      1  0.4963270000000  0.5360970000000  0.5319880000000 1.0
C      1  0.4510030000000  0.5129070000000  0.5195560000000 1.0
C      1  0.4783880000000  0.4331670000000  0.5073200000000 1.0
C      1  0.5039080000000  0.4222300000000  0.5109760000000 1.0
C      1  0.5117320000000  0.5373300000000  0.4288390000000 1.0
C      1  0.5721220000000  0.5244290000000  0.5255340000000 1.0
C      1  0.5493160000000  0.4358360000000  0.5168270000000 1.0
C      1  0.5512880000000  0.5416040000000  0.4562810000000 1.0
END
