TITL C-84580-7166-9 6.00046398419324 125000 -204.632113901732 0 0 31 (C1) n - 1
REM
REM in /rds/project/t2_vol4/rds-t2-cs072/BORA/CARBON/from-Arr/AIRSS/Generating-Clusters/GAP-ML-2020/Only-C1/SD-CG/HFTN-CG
REM
REM
REM
REM
REM
REM ./C.cell (11c1c37f851c82e70ff6c80c92926a4b)
REM AIRSS Version 0.9.1 bugfix July 2018 build 013d7b7c2542+ Fri, 06 Jul 2018 19:26:36 +0100
REM compiler GCC version 9.3.0
REM options -cpp -mtune=generic -march=x86-64 -g -O0
REM seed -692866959 1151238655 179617234 1974760705 847046210 -201085870 1064736798 -1242926538 532416187 -948231126 -204241013 682220876 -7076392 -1660193928 -1567650060 1300371913 1589558455 -581942217 -359188040 -1054089589 902497559 1896033797 1842281767 -2128994348 337648095 2027912432 -210706923 -52634304 663877895 944149821 -1891959366 1777636148 761891730
REM
CELL 1.54180   50.00000   50.00000   50.00000   90.00000   90.00000   90.00000
LATT -1
SFAC C  
C      1  0.4910030000000  0.4398540000000  0.5377070000000 1.0
C      1  0.5527900000000  0.5259760000000  0.5004000000000 1.0
C      1  0.5029050000000  0.5551620000000  0.4967210000000 1.0
C      1  0.5352780000000  0.5227440000000  0.4803240000000 1.0
C      1  0.5165200000000  0.5478480000000  0.5220870000000 1.0
C      1  0.5120270000000  0.5390470000000  0.4745610000000 1.0
C      1  0.5319150000000  0.5238230000000  0.5190210000000 1.0
C      1  0.5295470000000  0.4958880000000  0.4729450000000 1.0
C      1  0.5035190000000  0.4447560000000  0.4674460000000 1.0
C      1  0.4990900000000  0.4900600000000  0.5395660000000 1.0
C      1  0.4755350000000  0.5567850000000  0.5038600000000 1.0
C      1  0.5233310000000  0.4964070000000  0.5251480000000 1.0
C      1  0.4934620000000  0.5219000000000  0.4607630000000 1.0
C      1  0.4625350000000  0.5225400000000  0.5242130000000 1.0
C      1  0.4759710000000  0.5468450000000  0.5336880000000 1.0
C      1  0.5095870000000  0.4985990000000  0.4516950000000 1.0
C      1  0.4722810000000  0.4958950000000  0.5287890000000 1.0
C      1  0.5061810000000  0.4775910000000  0.4350980000000 1.0
C      1  0.5249850000000  0.4778440000000  0.4958390000000 1.0
C      1  0.5058030000000  0.4521260000000  0.4428000000000 1.0
C      1  0.4612080000000  0.5335890000000  0.4966380000000 1.0
C      1  0.4458610000000  0.4770710000000  0.4919830000000 1.0
C      1  0.5479040000000  0.4787700000000  0.5321720000000 1.0
C      1  0.4843550000000  0.4529800000000  0.5132080000000 1.0
C      1  0.4995100000000  0.5537600000000  0.5441880000000 1.0
C      1  0.4991920000000  0.4626040000000  0.5466430000000 1.0
C      1  0.5042450000000  0.4557830000000  0.4923580000000 1.0
C      1  0.5515050000000  0.4682240000000  0.5088970000000 1.0
C      1  0.4628030000000  0.4731470000000  0.5143110000000 1.0
C      1  0.4667130000000  0.5184060000000  0.4727260000000 1.0
C      1  0.4524370000000  0.4939740000000  0.4742060000000 1.0
END
