TITL C-84599-7137-7 -0.00700368474772336 125000 -252.414649523597 0 0 39 (C1) n - 1
REM
REM in /rds/project/t2_vol4/rds-t2-cs072/BORA/CARBON/from-Arr/AIRSS/Generating-Clusters/GAP-ML-2020/Only-C1/SD-CG/HFTN-CG
REM
REM
REM
REM
REM
REM ./C.cell (11c1c37f851c82e70ff6c80c92926a4b)
REM AIRSS Version 0.9.1 bugfix July 2018 build 013d7b7c2542+ Fri, 06 Jul 2018 19:26:36 +0100
REM compiler GCC version 9.3.0
REM options -cpp -mtune=generic -march=x86-64 -g -O0
REM seed 1343413193 1784931643 514956349 -46910744 -867058180 -995856710 -1700655106 -1735120355 -1910051552 -235806111 -330314868 1714815610 367437191 129166253 -2070612090 -316831527 1899931692 1970607106 1335892516 -1259955497 1849747830 -68068876 -568233466 1506433194 -561301773 1562159733 -601779890 -1248119113 985075647 -3827537 817702795 -1528397753 -1986039010
REM
CELL 1.54180   50.00000   50.00000   50.00000   90.00000   90.00000   90.00000
LATT -1
SFAC C  
C      1  0.5386820000000  0.4878210000000  0.5109070000000 1.0
C      1  0.4433220000000  0.5221680000000  0.4750520000000 1.0
C      1  0.5212090000000  0.5510030000000  0.4851280000000 1.0
C      1  0.4353580000000  0.4772490000000  0.4980440000000 1.0
C      1  0.5460410000000  0.4997070000000  0.5549690000000 1.0
C      1  0.5419480000000  0.5332860000000  0.4897390000000 1.0
C      1  0.4888720000000  0.4475780000000  0.4834640000000 1.0
C      1  0.4474370000000  0.4562080000000  0.5064040000000 1.0
C      1  0.5000490000000  0.5131920000000  0.5456950000000 1.0
C      1  0.5263240000000  0.4573390000000  0.4648640000000 1.0
C      1  0.5150910000000  0.4634220000000  0.5461970000000 1.0
C      1  0.4749520000000  0.4534570000000  0.5077300000000 1.0
C      1  0.5103510000000  0.5246220000000  0.5205170000000 1.0
C      1  0.5398690000000  0.5186460000000  0.5153510000000 1.0
C      1  0.4443460000000  0.5037420000000  0.4970300000000 1.0
C      1  0.5411940000000  0.4811210000000  0.4634410000000 1.0
C      1  0.4748780000000  0.5512470000000  0.5030870000000 1.0
C      1  0.4927090000000  0.4695700000000  0.5266370000000 1.0
C      1  0.5106150000000  0.4782550000000  0.5684940000000 1.0
C      1  0.5186200000000  0.5043200000000  0.5657500000000 1.0
C      1  0.5564280000000  0.5189580000000  0.5387680000000 1.0
C      1  0.5253430000000  0.5023360000000  0.4521050000000 1.0
C      1  0.4952380000000  0.5165370000000  0.4728740000000 1.0
C      1  0.5031280000000  0.5504060000000  0.5065340000000 1.0
C      1  0.4553140000000  0.5163440000000  0.4489180000000 1.0
C      1  0.5239150000000  0.5252990000000  0.4690730000000 1.0
C      1  0.5098400000000  0.4814220000000  0.5044060000000 1.0
C      1  0.4790180000000  0.4937630000000  0.5375330000000 1.0
C      1  0.4962350000000  0.4916760000000  0.4528140000000 1.0
C      1  0.4719250000000  0.4982830000000  0.4383790000000 1.0
C      1  0.4947250000000  0.5082930000000  0.5008620000000 1.0
C      1  0.5413020000000  0.4753260000000  0.5375280000000 1.0
C      1  0.4979870000000  0.4617910000000  0.4582440000000 1.0
C      1  0.5543720000000  0.4831310000000  0.4867760000000 1.0
C      1  0.4634570000000  0.5368300000000  0.5224010000000 1.0
C      1  0.4671930000000  0.5090610000000  0.5149580000000 1.0
C      1  0.4601670000000  0.5466140000000  0.4796320000000 1.0
C      1  0.4765230000000  0.5364430000000  0.4591900000000 1.0
C      1  0.5160220000000  0.4535330000000  0.4905050000000 1.0
END
