TITL C-84589-8541-7 -0.129223250006611 125000 -140.590559706784 0 0 22 (C1) n - 1
REM
REM in /rds/project/t2_vol4/rds-t2-cs072/BORA/CARBON/from-Arr/AIRSS/Generating-Clusters/GAP-ML-2020/Only-C1/SD-CG/HFTN-CG
REM
REM
REM
REM
REM
REM ./C.cell (11c1c37f851c82e70ff6c80c92926a4b)
REM AIRSS Version 0.9.1 bugfix July 2018 build 013d7b7c2542+ Fri, 06 Jul 2018 19:26:36 +0100
REM compiler GCC version 9.3.0
REM options -cpp -mtune=generic -march=x86-64 -g -O0
REM seed 181230229 -474194829 -1752810948 1929669044 642276876 765531642 -1599395150 1233734467 1122735588 2139103500 -283818928 -738280073 -1104244518 -1730689719 747765484 2096956392 1191589478 2091261110 325966056 -584763034 -1040291338 -2010413174 -809279794 970903107 -231856123 1421039000 323168567 1200981303 -1955172435 745155855 -115121860 -1491692917 -1995207838
REM
CELL 1.54180   50.00000   50.00000   50.00000   90.00000   90.00000   90.00000
LATT -1
SFAC C  
C      1  0.5480980000000  0.4684780000000  0.4671610000000 1.0
C      1  0.5034580000000  0.4722390000000  0.4753550000000 1.0
C      1  0.4643150000000  0.5134170000000  0.4660430000000 1.0
C      1  0.5230860000000  0.4607030000000  0.4643360000000 1.0
C      1  0.5066640000000  0.4656580000000  0.5304880000000 1.0
C      1  0.5014230000000  0.5605040000000  0.5079570000000 1.0
C      1  0.4442090000000  0.4850370000000  0.4811600000000 1.0
C      1  0.5122230000000  0.4890700000000  0.5178210000000 1.0
C      1  0.4674640000000  0.4763570000000  0.4981060000000 1.0
C      1  0.4943310000000  0.4914390000000  0.4944740000000 1.0
C      1  0.5353930000000  0.5060430000000  0.5194420000000 1.0
C      1  0.5534270000000  0.5004250000000  0.4996900000000 1.0
C      1  0.5180840000000  0.5690670000000  0.5260360000000 1.0
C      1  0.4850930000000  0.5181720000000  0.4828980000000 1.0
C      1  0.5392450000000  0.5291490000000  0.5339260000000 1.0
C      1  0.5355550000000  0.5536110000000  0.5388300000000 1.0
C      1  0.4283100000000  0.4860810000000  0.5043740000000 1.0
C      1  0.5619150000000  0.4870530000000  0.4798020000000 1.0
C      1  0.4925870000000  0.4465930000000  0.5388710000000 1.0
C      1  0.4421000000000  0.5020510000000  0.4585180000000 1.0
C      1  0.4511740000000  0.4768350000000  0.5205570000000 1.0
C      1  0.4918450000000  0.5420150000000  0.4941550000000 1.0
END
