TITL C-84579-7189-7 196.069139651634 125000 -434.018856788928 0 0 63 (C1) n - 1
REM
REM in /rds/project/t2_vol4/rds-t2-cs072/BORA/CARBON/from-Arr/AIRSS/Generating-Clusters/GAP-ML-2020/Only-C1/SD-CG/HFTN-CG
REM
REM
REM
REM
REM
REM ./C.cell (11c1c37f851c82e70ff6c80c92926a4b)
REM AIRSS Version 0.9.1 bugfix July 2018 build 013d7b7c2542+ Fri, 06 Jul 2018 19:26:36 +0100
REM compiler GCC version 9.3.0
REM options -cpp -mtune=generic -march=x86-64 -g -O0
REM seed 384554184 2146622121 1863769538 16267361 -2114317472 1308091981 786125584 534021793 2004975842 671504559 -1900669711 -122679893 1597032846 644585538 -2073509193 -175412661 -281266359 -2114578074 2146820685 21872341 -1309206538 -1018839461 -1835520961 -1594900133 -1833139114 -1689898111 -1568551285 -831815460 -1725032210 381693424 145050603 1059812986 1999349174
REM
CELL 1.54180   50.00000   50.00000   50.00000   90.00000   90.00000   90.00000
LATT -1
SFAC C  
C      1  0.4892030000000  0.4677730000000  0.4591960000000 1.0
C      1  0.5613750000000  0.5272870000000  0.5469890000000 1.0
C      1  0.4515350000000  0.4731050000000  0.5016590000000 1.0
C      1  0.5182260000000  0.4742860000000  0.4618530000000 1.0
C      1  0.4793780000000  0.4791980000000  0.5141230000000 1.0
C      1  0.5183420000000  0.5015360000000  0.4755370000000 1.0
C      1  0.5218420000000  0.5010590000000  0.5044200000000 1.0
C      1  0.5661200000000  0.4902040000000  0.4856170000000 1.0
C      1  0.5539140000000  0.4682840000000  0.5281030000000 1.0
C      1  0.4374500000000  0.4723110000000  0.5281050000000 1.0
C      1  0.4305600000000  0.4756970000000  0.4568090000000 1.0
C      1  0.5513140000000  0.4676420000000  0.4992940000000 1.0
C      1  0.4584040000000  0.5064580000000  0.5748910000000 1.0
C      1  0.4979560000000  0.5125920000000  0.4250080000000 1.0
C      1  0.5410790000000  0.5300360000000  0.4426390000000 1.0
C      1  0.5056210000000  0.4548080000000  0.5421100000000 1.0
C      1  0.5706860000000  0.5161850000000  0.4993410000000 1.0
C      1  0.4564790000000  0.5422510000000  0.4762020000000 1.0
C      1  0.4724390000000  0.5404920000000  0.4526740000000 1.0
C      1  0.4352290000000  0.5098560000000  0.5621060000000 1.0
C      1  0.4906540000000  0.5084650000000  0.4805790000000 1.0
C      1  0.5123310000000  0.4911020000000  0.4157630000000 1.0
C      1  0.4418310000000  0.4528590000000  0.4554410000000 1.0
C      1  0.5769450000000  0.5131910000000  0.5260590000000 1.0
C      1  0.4435800000000  0.5189800000000  0.4880010000000 1.0
C      1  0.5391300000000  0.5523390000000  0.5120950000000 1.0
C      1  0.4841720000000  0.4445420000000  0.4738330000000 1.0
C      1  0.4565190000000  0.4441160000000  0.4971180000000 1.0
C      1  0.4809260000000  0.5008780000000  0.5569080000000 1.0
C      1  0.5303130000000  0.4833970000000  0.4352160000000 1.0
C      1  0.5570540000000  0.5021320000000  0.5600760000000 1.0
C      1  0.4891390000000  0.5591520000000  0.5133640000000 1.0
C      1  0.4679160000000  0.4357690000000  0.5220420000000 1.0
C      1  0.5179740000000  0.5585410000000  0.4717800000000 1.0
C      1  0.5716220000000  0.4875340000000  0.5391720000000 1.0
C      1  0.4905480000000  0.5441890000000  0.5378060000000 1.0
C      1  0.5288380000000  0.4567550000000  0.4845150000000 1.0
C      1  0.5666120000000  0.4936840000000  0.4595420000000 1.0
C      1  0.5145410000000  0.5348210000000  0.4331800000000 1.0
C      1  0.4302880000000  0.5229500000000  0.5370020000000 1.0
C      1  0.4256900000000  0.4941730000000  0.5394200000000 1.0
C      1  0.4758690000000  0.5196700000000  0.5321070000000 1.0
C      1  0.4469350000000  0.4912420000000  0.4774330000000 1.0
C      1  0.5091850000000  0.5098530000000  0.5623310000000 1.0
C      1  0.5305110000000  0.4663320000000  0.5464900000000 1.0
C      1  0.5515410000000  0.5032640000000  0.4397720000000 1.0
C      1  0.5561440000000  0.5400130000000  0.4916960000000 1.0
C      1  0.4640790000000  0.5521780000000  0.5020610000000 1.0
C      1  0.4729800000000  0.4926200000000  0.4624110000000 1.0
C      1  0.4966930000000  0.4370620000000  0.5205690000000 1.0
C      1  0.5146520000000  0.5621610000000  0.5001170000000 1.0
C      1  0.5140560000000  0.5364930000000  0.5514740000000 1.0
C      1  0.5064250000000  0.4406300000000  0.4931400000000 1.0
C      1  0.4575230000000  0.4348460000000  0.4706570000000 1.0
C      1  0.5394250000000  0.5432760000000  0.5394150000000 1.0
C      1  0.4744030000000  0.5138800000000  0.4410560000000 1.0
C      1  0.4934840000000  0.5031980000000  0.5095690000000 1.0
C      1  0.4503430000000  0.5284600000000  0.5169070000000 1.0
C      1  0.4993910000000  0.5513230000000  0.4510260000000 1.0
C      1  0.5434630000000  0.5453970000000  0.4669510000000 1.0
C      1  0.5310890000000  0.4911060000000  0.5625650000000 1.0
C      1  0.4806770000000  0.4718170000000  0.5451920000000 1.0
C      1  0.4573550000000  0.4545500000000  0.5414730000000 1.0
END
