TITL C-84588-7213-8 0.162576856275978 125000 -469.073740710068 0 0 66 (C1) n - 1
REM
REM in /rds/project/t2_vol4/rds-t2-cs072/BORA/CARBON/from-Arr/AIRSS/Generating-Clusters/GAP-ML-2020/Only-C1/SD-CG/HFTN-CG
REM
REM
REM
REM
REM
REM ./C.cell (11c1c37f851c82e70ff6c80c92926a4b)
REM AIRSS Version 0.9.1 bugfix July 2018 build 013d7b7c2542+ Fri, 06 Jul 2018 19:26:36 +0100
REM compiler GCC version 9.3.0
REM options -cpp -mtune=generic -march=x86-64 -g -O0
REM seed -1929517449 -567262860 -439433480 -2102288108 -1121348887 1780001723 1209893491 -16087608 -1061161613 1383556519 -693182342 -1691176831 60167685 1724262066 1398600084 2127655165 -1887304403 -46719990 -466674459 -16822213 43671364 78958090 -1552372365 821044676 -1016654411 466926552 -27513209 -1883798870 -1676340182 -1481667332 -474989897 -120848651 1475238113
REM
CELL 1.54180   50.00000   50.00000   50.00000   90.00000   90.00000   90.00000
LATT -1
SFAC C  
C      1  0.5714450000000  0.5280650000000  0.4782530000000 1.0
C      1  0.5273550000000  0.4207580000000  0.5191380000000 1.0
C      1  0.4315320000000  0.4925050000000  0.4835070000000 1.0
C      1  0.4803320000000  0.4307200000000  0.5118030000000 1.0
C      1  0.4771580000000  0.4840510000000  0.4323710000000 1.0
C      1  0.4507110000000  0.4685590000000  0.5218500000000 1.0
C      1  0.5216980000000  0.4636700000000  0.5659880000000 1.0
C      1  0.5225450000000  0.5519030000000  0.4628910000000 1.0
C      1  0.4414460000000  0.5409170000000  0.5365160000000 1.0
C      1  0.4858680000000  0.4464630000000  0.5531510000000 1.0
C      1  0.4977210000000  0.4665770000000  0.4406280000000 1.0
C      1  0.5613930000000  0.4902760000000  0.4656900000000 1.0
C      1  0.5158580000000  0.5088530000000  0.4354350000000 1.0
C      1  0.5733340000000  0.5024260000000  0.4910740000000 1.0
C      1  0.4908340000000  0.5073320000000  0.4950660000000 1.0
C      1  0.4324960000000  0.5164590000000  0.5245640000000 1.0
C      1  0.4885940000000  0.4494770000000  0.4617490000000 1.0
C      1  0.5325360000000  0.5289500000000  0.4475030000000 1.0
C      1  0.4690010000000  0.4473990000000  0.5298900000000 1.0
C      1  0.4284540000000  0.5174240000000  0.4968170000000 1.0
C      1  0.5166940000000  0.4681780000000  0.5165810000000 1.0
C      1  0.5549290000000  0.4856780000000  0.5358090000000 1.0
C      1  0.4456480000000  0.4693840000000  0.4930770000000 1.0
C      1  0.5652160000000  0.5066050000000  0.5198160000000 1.0
C      1  0.4465130000000  0.5261670000000  0.4544020000000 1.0
C      1  0.4856430000000  0.5496650000000  0.5519600000000 1.0
C      1  0.5590880000000  0.5453910000000  0.4952290000000 1.0
C      1  0.5136830000000  0.4363160000000  0.5534670000000 1.0
C      1  0.5512010000000  0.4356710000000  0.5109340000000 1.0
C      1  0.5340360000000  0.4885050000000  0.5567160000000 1.0
C      1  0.4872620000000  0.5102620000000  0.4299770000000 1.0
C      1  0.4884020000000  0.4964350000000  0.5657580000000 1.0
C      1  0.4789440000000  0.5233870000000  0.5113230000000 1.0
C      1  0.5247000000000  0.4131880000000  0.5455150000000 1.0
C      1  0.4953000000000  0.5619300000000  0.4610330000000 1.0
C      1  0.5216050000000  0.5640840000000  0.5110860000000 1.0
C      1  0.5551460000000  0.5341470000000  0.5211660000000 1.0
C      1  0.4613680000000  0.4592320000000  0.4691430000000 1.0
C      1  0.4394520000000  0.4988000000000  0.4569780000000 1.0
C      1  0.4934790000000  0.4691670000000  0.5685200000000 1.0
C      1  0.4803270000000  0.5580420000000  0.4375790000000 1.0
C      1  0.4514190000000  0.5620550000000  0.5209520000000 1.0
C      1  0.5564740000000  0.4319590000000  0.4844770000000 1.0
C      1  0.4545890000000  0.4774650000000  0.4476000000000 1.0
C      1  0.4696290000000  0.5324930000000  0.4372790000000 1.0
C      1  0.5135250000000  0.5097510000000  0.5604130000000 1.0
C      1  0.4617320000000  0.5340190000000  0.5555620000000 1.0
C      1  0.5045410000000  0.4243780000000  0.5014260000000 1.0
C      1  0.4949060000000  0.5726410000000  0.5096820000000 1.0
C      1  0.5433350000000  0.4704140000000  0.4567920000000 1.0
C      1  0.4395840000000  0.5388160000000  0.4795490000000 1.0
C      1  0.5093610000000  0.4367780000000  0.4757350000000 1.0
C      1  0.5311240000000  0.5465770000000  0.5318790000000 1.0
C      1  0.4635140000000  0.5061190000000  0.5565560000000 1.0
C      1  0.5121800000000  0.5369220000000  0.5512900000000 1.0
C      1  0.5224130000000  0.4805800000000  0.4403700000000 1.0
C      1  0.5452840000000  0.4630120000000  0.5195870000000 1.0
C      1  0.4777380000000  0.5679680000000  0.5316320000000 1.0
C      1  0.5356020000000  0.5584180000000  0.4870550000000 1.0
C      1  0.5371590000000  0.4446240000000  0.4691340000000 1.0
C      1  0.4806050000000  0.5692050000000  0.4850770000000 1.0
C      1  0.5284560000000  0.5096860000000  0.4913310000000 1.0
C      1  0.4532170000000  0.5607130000000  0.4919500000000 1.0
C      1  0.5574290000000  0.5177750000000  0.4558500000000 1.0
C      1  0.4461180000000  0.4934990000000  0.5364160000000 1.0
C      1  0.5111200000000  0.4911120000000  0.5024540000000 1.0
END
