TITL C-84605-7237-8 0.129399248863041 125000 -930.730059986814 0 0 132 (C1) n - 1
REM
REM in /rds/project/t2_vol4/rds-t2-cs072/BORA/CARBON/from-Arr/AIRSS/Generating-Clusters/GAP-ML-2020/Only-C1/SD-CG/HFTN-CG
REM
REM
REM
REM
REM
REM ./C.cell (11c1c37f851c82e70ff6c80c92926a4b)
REM AIRSS Version 0.9.1 bugfix July 2018 build 013d7b7c2542+ Fri, 06 Jul 2018 19:26:36 +0100
REM compiler GCC version 9.3.0
REM options -cpp -mtune=generic -march=x86-64 -g -O0
REM seed -2014343710 -999176208 -1784318963 -2057345066 278499748 -16958503 1010004890 1163737135 1772719461 -1143462331 2044710636 -879202566 1569503620 1085278418 638510309 -1822147874 -1812221958 -1463277947 -683942349 1442358667 -446230873 1028638479 945411838 413257525 -776638694 1065861982 460374065 1820347557 -1746150281 -1209872060 930632864 -1119296818 -1610649185
REM
CELL 1.54180   50.00000   50.00000   50.00000   90.00000   90.00000   90.00000
LATT -1
SFAC C  
C      1  0.5537070000000  0.5164340000000  0.5765970000000 1.0
C      1  0.5510580000000  0.4763320000000  0.4930720000000 1.0
C      1  0.5298970000000  0.5598310000000  0.5708880000000 1.0
C      1  0.4579980000000  0.3953010000000  0.4826830000000 1.0
C      1  0.6051100000000  0.5053140000000  0.4794020000000 1.0
C      1  0.4024350000000  0.5168800000000  0.5193820000000 1.0
C      1  0.4880420000000  0.4901890000000  0.4072870000000 1.0
C      1  0.4373630000000  0.4216910000000  0.5167700000000 1.0
C      1  0.4509070000000  0.5132910000000  0.4576400000000 1.0
C      1  0.4915150000000  0.5451970000000  0.4731030000000 1.0
C      1  0.5355130000000  0.5483390000000  0.4787710000000 1.0
C      1  0.4327120000000  0.4689420000000  0.4964170000000 1.0
C      1  0.5520360000000  0.5150460000000  0.5302670000000 1.0
C      1  0.5141700000000  0.6032840000000  0.4716130000000 1.0
C      1  0.5689690000000  0.4970640000000  0.5127470000000 1.0
C      1  0.5012950000000  0.4937380000000  0.5547890000000 1.0
C      1  0.4921930000000  0.5490700000000  0.5014070000000 1.0
C      1  0.5080550000000  0.5222430000000  0.5922890000000 1.0
C      1  0.4498790000000  0.4533000000000  0.4756620000000 1.0
C      1  0.5547230000000  0.4944340000000  0.5556370000000 1.0
C      1  0.5217110000000  0.4638260000000  0.5001930000000 1.0
C      1  0.5656980000000  0.4505650000000  0.4479570000000 1.0
C      1  0.4911400000000  0.4693530000000  0.5383310000000 1.0
C      1  0.4339690000000  0.4096240000000  0.4910780000000 1.0
C      1  0.5037400000000  0.4826420000000  0.5152050000000 1.0
C      1  0.5278150000000  0.4372230000000  0.5546440000000 1.0
C      1  0.4873750000000  0.6059880000000  0.4859300000000 1.0
C      1  0.4114620000000  0.4829980000000  0.5501260000000 1.0
C      1  0.4702090000000  0.4389040000000  0.5710250000000 1.0
C      1  0.5585940000000  0.5869180000000  0.4883860000000 1.0
C      1  0.3998060000000  0.5077230000000  0.4924140000000 1.0
C      1  0.5894860000000  0.4587060000000  0.5301810000000 1.0
C      1  0.4435700000000  0.5583670000000  0.4533410000000 1.0
C      1  0.4784910000000  0.5365470000000  0.4189180000000 1.0
C      1  0.5491590000000  0.5309550000000  0.4284080000000 1.0
C      1  0.5719890000000  0.4538670000000  0.4780590000000 1.0
C      1  0.4964220000000  0.5170560000000  0.4736960000000 1.0
C      1  0.4462770000000  0.5784060000000  0.4737220000000 1.0
C      1  0.5083670000000  0.5846230000000  0.4499870000000 1.0
C      1  0.4816650000000  0.4245720000000  0.4471680000000 1.0
C      1  0.4598810000000  0.4097370000000  0.4573670000000 1.0
C      1  0.4935050000000  0.4647490000000  0.4190170000000 1.0
C      1  0.5273750000000  0.5180600000000  0.4847230000000 1.0
C      1  0.5760520000000  0.4825400000000  0.5385080000000 1.0
C      1  0.4780280000000  0.4237710000000  0.5485640000000 1.0
C      1  0.4081700000000  0.4809600000000  0.4834530000000 1.0
C      1  0.5724930000000  0.4356860000000  0.5235830000000 1.0
C      1  0.5228600000000  0.4653740000000  0.4285470000000 1.0
C      1  0.4498140000000  0.4599230000000  0.4462460000000 1.0
C      1  0.4109530000000  0.4890350000000  0.4560160000000 1.0
C      1  0.5257300000000  0.5437970000000  0.4304700000000 1.0
C      1  0.4468070000000  0.5038140000000  0.4308860000000 1.0
C      1  0.4237660000000  0.5065090000000  0.5594090000000 1.0
C      1  0.5985600000000  0.4638460000000  0.4692710000000 1.0
C      1  0.5409260000000  0.4422970000000  0.4395840000000 1.0
C      1  0.4667370000000  0.5584890000000  0.4346710000000 1.0
C      1  0.5041760000000  0.4274570000000  0.4659140000000 1.0
C      1  0.5051760000000  0.4605080000000  0.4752370000000 1.0
C      1  0.5655710000000  0.5397950000000  0.5412890000000 1.0
C      1  0.4321600000000  0.4811990000000  0.4387510000000 1.0
C      1  0.4911880000000  0.5804580000000  0.5537520000000 1.0
C      1  0.4292220000000  0.5261800000000  0.5372480000000 1.0
C      1  0.5405950000000  0.6044450000000  0.4789090000000 1.0
C      1  0.4919470000000  0.4249700000000  0.4939440000000 1.0
C      1  0.5267020000000  0.5235290000000  0.5160870000000 1.0
C      1  0.4763500000000  0.4724340000000  0.5122860000000 1.0
C      1  0.4404040000000  0.5024990000000  0.5807970000000 1.0
C      1  0.5634630000000  0.5589260000000  0.4787390000000 1.0
C      1  0.4073800000000  0.5169700000000  0.4656280000000 1.0
C      1  0.4611100000000  0.5211410000000  0.5807110000000 1.0
C      1  0.5877950000000  0.5173030000000  0.4982760000000 1.0
C      1  0.5531660000000  0.5432730000000  0.5665400000000 1.0
C      1  0.5807120000000  0.5448720000000  0.4972590000000 1.0
C      1  0.5026320000000  0.4388700000000  0.5394200000000 1.0
C      1  0.5396660000000  0.4940080000000  0.4737780000000 1.0
C      1  0.4822940000000  0.6053480000000  0.5123730000000 1.0
C      1  0.4696690000000  0.5015160000000  0.4763070000000 1.0
C      1  0.5198500000000  0.5775600000000  0.5505670000000 1.0
C      1  0.4487790000000  0.5731920000000  0.5283090000000 1.0
C      1  0.5869250000000  0.4691330000000  0.4425680000000 1.0
C      1  0.4590500000000  0.5468860000000  0.5695190000000 1.0
C      1  0.4833300000000  0.5610960000000  0.5726370000000 1.0
C      1  0.4736610000000  0.4493610000000  0.4331360000000 1.0
C      1  0.5703500000000  0.4299790000000  0.4944050000000 1.0
C      1  0.4730420000000  0.5900370000000  0.5332910000000 1.0
C      1  0.5470430000000  0.4162380000000  0.4862310000000 1.0
C      1  0.5278010000000  0.4833540000000  0.5687340000000 1.0
C      1  0.5217060000000  0.5540050000000  0.5072810000000 1.0
C      1  0.5976940000000  0.5096650000000  0.4534380000000 1.0
C      1  0.5321130000000  0.4234010000000  0.4615430000000 1.0
C      1  0.4511470000000  0.5197080000000  0.5148970000000 1.0
C      1  0.4917550000000  0.4545890000000  0.5834940000000 1.0
C      1  0.5344710000000  0.4899720000000  0.4142670000000 1.0
C      1  0.5120030000000  0.5049620000000  0.4057790000000 1.0
C      1  0.6091530000000  0.4665220000000  0.5124390000000 1.0
C      1  0.5347000000000  0.4161200000000  0.5123090000000 1.0
C      1  0.4387740000000  0.5406560000000  0.4954290000000 1.0
C      1  0.5740660000000  0.5580320000000  0.5218010000000 1.0
C      1  0.5483000000000  0.4271050000000  0.5360980000000 1.0
C      1  0.4419280000000  0.5678360000000  0.5006980000000 1.0
C      1  0.4325250000000  0.5337660000000  0.4669280000000 1.0
C      1  0.5576730000000  0.5060590000000  0.4224890000000 1.0
C      1  0.5309290000000  0.5062430000000  0.5884620000000 1.0
C      1  0.5123780000000  0.4335610000000  0.5123180000000 1.0
C      1  0.5007470000000  0.5019810000000  0.4508850000000 1.0
C      1  0.6145170000000  0.4780200000000  0.4878610000000 1.0
C      1  0.4628420000000  0.4122980000000  0.5276780000000 1.0
C      1  0.4760370000000  0.4030670000000  0.5034120000000 1.0
C      1  0.4265870000000  0.4584160000000  0.5484320000000 1.0
C      1  0.5315050000000  0.5770950000000  0.5249240000000 1.0
C      1  0.4679490000000  0.5950800000000  0.4659270000000 1.0
C      1  0.4806300000000  0.5832670000000  0.4433300000000 1.0
C      1  0.4284980000000  0.4485460000000  0.5214540000000 1.0
C      1  0.4508800000000  0.4764610000000  0.5869250000000 1.0
C      1  0.5826640000000  0.4970140000000  0.4347490000000 1.0
C      1  0.5586550000000  0.5815710000000  0.5167300000000 1.0
C      1  0.4414770000000  0.5524390000000  0.5466520000000 1.0
C      1  0.4776710000000  0.4533820000000  0.4897090000000 1.0
C      1  0.4804640000000  0.5284560000000  0.5192830000000 1.0
C      1  0.5175070000000  0.4802040000000  0.4565930000000 1.0
C      1  0.5062730000000  0.5324120000000  0.4133840000000 1.0
C      1  0.4787380000000  0.4784470000000  0.5921020000000 1.0
C      1  0.5070960000000  0.5490310000000  0.5842330000000 1.0
C      1  0.4675650000000  0.5098240000000  0.4138620000000 1.0
C      1  0.3955280000000  0.4927980000000  0.5303110000000 1.0
C      1  0.5030290000000  0.5110220000000  0.5286770000000 1.0
C      1  0.5205490000000  0.4552780000000  0.5751750000000 1.0
C      1  0.4452970000000  0.4540470000000  0.5708820000000 1.0
C      1  0.4385390000000  0.4268270000000  0.4683340000000 1.0
C      1  0.5179740000000  0.5572770000000  0.4555230000000 1.0
C      1  0.4862680000000  0.5057030000000  0.5823750000000 1.0
C      1  0.4558140000000  0.4919290000000  0.5027770000000 1.0
END
