TITL C-84584-7140-5 25.9675104432315 125000 -589.798759906277 0 0 85 (C1) n - 1
REM
REM in /rds/project/t2_vol4/rds-t2-cs072/BORA/CARBON/from-Arr/AIRSS/Generating-Clusters/GAP-ML-2020/Only-C1/SD-CG/HFTN-CG
REM
REM
REM
REM
REM
REM ./C.cell (11c1c37f851c82e70ff6c80c92926a4b)
REM AIRSS Version 0.9.1 bugfix July 2018 build 013d7b7c2542+ Fri, 06 Jul 2018 19:26:36 +0100
REM compiler GCC version 9.3.0
REM options -cpp -mtune=generic -march=x86-64 -g -O0
REM seed -1264428380 -1000181099 -1831523262 1560137472 -594819360 1079300544 -236138493 85497949 116868508 -11858140 1249622463 374281949 399917168 1285868107 2077927306 238345637 -162544691 -69526064 740722765 -1655809261 1612122761 -1052353813 -85400570 605353300 308725850 1648504656 -478785772 -327668069 -1180225052 1464623250 1880191501 -1340818820 971211794
REM
CELL 1.54180   50.00000   50.00000   50.00000   90.00000   90.00000   90.00000
LATT -1
SFAC C  
C      1  0.4651140000000  0.5270650000000  0.5252300000000 1.0
C      1  0.4608850000000  0.4757050000000  0.5726980000000 1.0
C      1  0.4876880000000  0.4792390000000  0.5833280000000 1.0
C      1  0.5011190000000  0.5206300000000  0.4155890000000 1.0
C      1  0.5647250000000  0.5175750000000  0.4488580000000 1.0
C      1  0.5645160000000  0.5381490000000  0.4687600000000 1.0
C      1  0.4619290000000  0.4889340000000  0.4198130000000 1.0
C      1  0.5397550000000  0.5401470000000  0.5137230000000 1.0
C      1  0.5164260000000  0.5820760000000  0.5026340000000 1.0
C      1  0.5288490000000  0.5161050000000  0.4926330000000 1.0
C      1  0.5439040000000  0.4899690000000  0.4987960000000 1.0
C      1  0.5268930000000  0.5328850000000  0.5415360000000 1.0
C      1  0.5676870000000  0.5324920000000  0.5169270000000 1.0
C      1  0.5628310000000  0.4516090000000  0.5100240000000 1.0
C      1  0.5199250000000  0.4996520000000  0.4200300000000 1.0
C      1  0.4795000000000  0.5463140000000  0.5617510000000 1.0
C      1  0.4815580000000  0.4605400000000  0.5146590000000 1.0
C      1  0.5213870000000  0.4307900000000  0.5033720000000 1.0
C      1  0.4678730000000  0.5532180000000  0.5362820000000 1.0
C      1  0.5519950000000  0.4461290000000  0.5353020000000 1.0
C      1  0.4324320000000  0.5010930000000  0.5421910000000 1.0
C      1  0.5566440000000  0.4688480000000  0.5522230000000 1.0
C      1  0.4800670000000  0.4482130000000  0.5413990000000 1.0
C      1  0.4315590000000  0.4647980000000  0.5020730000000 1.0
C      1  0.4360980000000  0.5236340000000  0.5253420000000 1.0
C      1  0.4724940000000  0.5501560000000  0.4359890000000 1.0
C      1  0.4788960000000  0.5031540000000  0.5407160000000 1.0
C      1  0.5366860000000  0.5647890000000  0.4970380000000 1.0
C      1  0.4466500000000  0.4480850000000  0.4583610000000 1.0
C      1  0.4559730000000  0.4593100000000  0.5510880000000 1.0
C      1  0.5782190000000  0.5265900000000  0.4918180000000 1.0
C      1  0.5387040000000  0.5045620000000  0.4422210000000 1.0
C      1  0.5111760000000  0.4644770000000  0.5729870000000 1.0
C      1  0.5370060000000  0.4699840000000  0.4757370000000 1.0
C      1  0.4433060000000  0.5101830000000  0.4590910000000 1.0
C      1  0.4731470000000  0.4389760000000  0.4968010000000 1.0
C      1  0.4909760000000  0.5742130000000  0.4968860000000 1.0
C      1  0.4682870000000  0.5462690000000  0.4664630000000 1.0
C      1  0.5256140000000  0.4816500000000  0.5219260000000 1.0
C      1  0.4666640000000  0.4853520000000  0.5172750000000 1.0
C      1  0.5041390000000  0.4754050000000  0.5028510000000 1.0
C      1  0.4807990000000  0.4677790000000  0.4246450000000 1.0
C      1  0.4896160000000  0.5074030000000  0.5885500000000 1.0
C      1  0.5723550000000  0.4797640000000  0.5088230000000 1.0
C      1  0.5433750000000  0.4449890000000  0.4913150000000 1.0
C      1  0.5519270000000  0.4794930000000  0.4535090000000 1.0
C      1  0.5372790000000  0.4773450000000  0.5718320000000 1.0
C      1  0.4400990000000  0.4907050000000  0.4388140000000 1.0
C      1  0.4957160000000  0.5011410000000  0.4619660000000 1.0
C      1  0.5068330000000  0.4730190000000  0.4730140000000 1.0
C      1  0.4251610000000  0.5107250000000  0.4806750000000 1.0
C      1  0.4403180000000  0.4757410000000  0.5289520000000 1.0
C      1  0.5134720000000  0.5200650000000  0.5825850000000 1.0
C      1  0.5199930000000  0.5178210000000  0.4638960000000 1.0
C      1  0.4745090000000  0.5111360000000  0.5001740000000 1.0
C      1  0.4929770000000  0.5594900000000  0.4723900000000 1.0
C      1  0.4296030000000  0.4706100000000  0.4552280000000 1.0
C      1  0.5073830000000  0.4750190000000  0.4202310000000 1.0
C      1  0.4473470000000  0.4442280000000  0.4873600000000 1.0
C      1  0.5094070000000  0.5057120000000  0.5338490000000 1.0
C      1  0.5724520000000  0.4875810000000  0.5366950000000 1.0
C      1  0.5754180000000  0.4939260000000  0.4610280000000 1.0
C      1  0.5496800000000  0.5218860000000  0.5571570000000 1.0
C      1  0.5823140000000  0.4980320000000  0.4881370000000 1.0
C      1  0.4498040000000  0.5020240000000  0.5655880000000 1.0
C      1  0.4734680000000  0.4490750000000  0.4461440000000 1.0
C      1  0.4665850000000  0.5651270000000  0.5101960000000 1.0
C      1  0.4583110000000  0.5385940000000  0.4157900000000 1.0
C      1  0.4215640000000  0.4822110000000  0.4817370000000 1.0
C      1  0.5057090000000  0.4452610000000  0.5522300000000 1.0
C      1  0.5031100000000  0.5072290000000  0.5050000000000 1.0
C      1  0.5374360000000  0.5054830000000  0.5766720000000 1.0
C      1  0.4976300000000  0.4282870000000  0.4870900000000 1.0
C      1  0.5255900000000  0.4349210000000  0.5329910000000 1.0
C      1  0.5158920000000  0.5479830000000  0.4572090000000 1.0
C      1  0.4680190000000  0.5222970000000  0.5750920000000 1.0
C      1  0.5080620000000  0.5417050000000  0.5638390000000 1.0
C      1  0.4709920000000  0.5150800000000  0.4710520000000 1.0
C      1  0.4725680000000  0.5143710000000  0.4113460000000 1.0
C      1  0.4493880000000  0.5530330000000  0.4897100000000 1.0
C      1  0.4303960000000  0.5318220000000  0.4987720000000 1.0
C      1  0.4938710000000  0.4464830000000  0.4655170000000 1.0
C      1  0.5012150000000  0.5446830000000  0.4313060000000 1.0
C      1  0.5704040000000  0.5152480000000  0.5397470000000 1.0
C      1  0.5426560000000  0.5565070000000  0.4697320000000 1.0
END
