TITL C-85428-1364-1 0.279038153960529 125000 -749.712765710818 0 0 106 (C1) n - 1
REM
REM in /rds/project/t2_vol4/rds-t2-cs072/BORA/CARBON/from-Arr/AIRSS/Generating-Clusters/GAP-ML-2020/Only-C1/SD-CG/HFTN-CG
REM
REM
REM
REM
REM
REM ./C.cell (11c1c37f851c82e70ff6c80c92926a4b)
REM AIRSS Version 0.9.1 bugfix July 2018 build 013d7b7c2542+ Fri, 06 Jul 2018 19:26:36 +0100
REM compiler GCC version 9.3.0
REM options -cpp -mtune=generic -march=x86-64 -g -O0
REM seed -2125165757 -1316732416 -1084658620 -1344493983 -27227920 488043488 -35601545 854326445 924686204 -665195532 -1836141585 -177713249 -107584460 2580000 -724790581 336765841 -205131005 1791716333 -1627422489 -1226749811 2066298568 -271535549 -147850041 -550293745 -946439946 1821885785 238983434 1550203466 -1346170220 -338888302 1405955002 1207848864 -262666349
REM
CELL 1.54180   50.00000   50.00000   50.00000   90.00000   90.00000   90.00000
LATT -1
SFAC C  
C      1  0.4200970000000  0.5134990000000  0.4562890000000 1.0
C      1  0.4223110000000  0.4707250000000  0.5286260000000 1.0
C      1  0.4595280000000  0.4438850000000  0.5376590000000 1.0
C      1  0.5271960000000  0.5393920000000  0.5502440000000 1.0
C      1  0.5584450000000  0.5025900000000  0.4319820000000 1.0
C      1  0.4585970000000  0.5813220000000  0.4718500000000 1.0
C      1  0.5420630000000  0.4251970000000  0.5316670000000 1.0
C      1  0.5654710000000  0.4440830000000  0.5313670000000 1.0
C      1  0.4992490000000  0.4925910000000  0.4698920000000 1.0
C      1  0.5558750000000  0.4663260000000  0.5465580000000 1.0
C      1  0.5840260000000  0.5278520000000  0.5275390000000 1.0
C      1  0.4639530000000  0.5000270000000  0.5029600000000 1.0
C      1  0.5002300000000  0.4678740000000  0.5370280000000 1.0
C      1  0.4667600000000  0.5236690000000  0.5204140000000 1.0
C      1  0.4699750000000  0.5469790000000  0.5052070000000 1.0
C      1  0.4818950000000  0.5133920000000  0.5753530000000 1.0
C      1  0.5179120000000  0.5830020000000  0.5187600000000 1.0
C      1  0.4461710000000  0.4569480000000  0.4586410000000 1.0
C      1  0.4492290000000  0.5351220000000  0.5475660000000 1.0
C      1  0.5740050000000  0.4395600000000  0.4829000000000 1.0
C      1  0.5736950000000  0.4594860000000  0.4626120000000 1.0
C      1  0.5428740000000  0.5833600000000  0.5084230000000 1.0
C      1  0.5022260000000  0.4731080000000  0.4916880000000 1.0
C      1  0.5029010000000  0.4727870000000  0.5674630000000 1.0
C      1  0.4229710000000  0.5420390000000  0.4653350000000 1.0
C      1  0.5544060000000  0.4189510000000  0.4833770000000 1.0
C      1  0.4711420000000  0.4894530000000  0.4258810000000 1.0
C      1  0.4266440000000  0.5587010000000  0.5144370000000 1.0
C      1  0.4538350000000  0.5699380000000  0.5171950000000 1.0
C      1  0.5669030000000  0.5363260000000  0.4552090000000 1.0
C      1  0.5189170000000  0.4314520000000  0.5491710000000 1.0
C      1  0.5128200000000  0.5267420000000  0.5034920000000 1.0
C      1  0.5370770000000  0.4173580000000  0.4611180000000 1.0
C      1  0.4788280000000  0.4846910000000  0.5787300000000 1.0
C      1  0.5365460000000  0.5298400000000  0.5224450000000 1.0
C      1  0.5548690000000  0.5587200000000  0.4693940000000 1.0
C      1  0.4273210000000  0.4555780000000  0.5046980000000 1.0
C      1  0.5378390000000  0.4355420000000  0.4405740000000 1.0
C      1  0.5099180000000  0.4142300000000  0.4685690000000 1.0
C      1  0.4259920000000  0.4657600000000  0.4776090000000 1.0
C      1  0.4421550000000  0.5620780000000  0.4564590000000 1.0
C      1  0.5724050000000  0.5201620000000  0.5537350000000 1.0
C      1  0.5439830000000  0.5001500000000  0.5224690000000 1.0
C      1  0.4518530000000  0.4855050000000  0.5685580000000 1.0
C      1  0.4984060000000  0.5268920000000  0.4371440000000 1.0
C      1  0.4123020000000  0.5473250000000  0.4917200000000 1.0
C      1  0.4047620000000  0.4922400000000  0.5239860000000 1.0
C      1  0.4125890000000  0.4913080000000  0.4742540000000 1.0
C      1  0.4630350000000  0.5618310000000  0.5448840000000 1.0
C      1  0.4735600000000  0.5367330000000  0.4242660000000 1.0
C      1  0.5284970000000  0.5627260000000  0.4582660000000 1.0
C      1  0.4481040000000  0.4380900000000  0.5120040000000 1.0
C      1  0.4032250000000  0.5212750000000  0.5297080000000 1.0
C      1  0.5738840000000  0.4866550000000  0.4758800000000 1.0
C      1  0.5168090000000  0.4737120000000  0.4271390000000 1.0
C      1  0.4926850000000  0.4316570000000  0.4534180000000 1.0
C      1  0.5107150000000  0.4108020000000  0.4968990000000 1.0
C      1  0.5632830000000  0.5422110000000  0.5146960000000 1.0
C      1  0.5759440000000  0.5082930000000  0.4553150000000 1.0
C      1  0.4975780000000  0.5863670000000  0.4979400000000 1.0
C      1  0.4670140000000  0.4378270000000  0.4659190000000 1.0
C      1  0.5137140000000  0.5667810000000  0.5442050000000 1.0
C      1  0.4937770000000  0.5456310000000  0.4886460000000 1.0
C      1  0.4231800000000  0.5403270000000  0.5359310000000 1.0
C      1  0.4343540000000  0.5021020000000  0.4348580000000 1.0
C      1  0.3958670000000  0.5270290000000  0.5019930000000 1.0
C      1  0.5888150000000  0.4803200000000  0.5014370000000 1.0
C      1  0.4981490000000  0.4945140000000  0.4366770000000 1.0
C      1  0.4888790000000  0.4217820000000  0.5099090000000 1.0
C      1  0.5378350000000  0.4137980000000  0.5064880000000 1.0
C      1  0.4680040000000  0.5873660000000  0.4982630000000 1.0
C      1  0.5183330000000  0.4983680000000  0.5698170000000 1.0
C      1  0.5529670000000  0.4826710000000  0.5907170000000 1.0
C      1  0.4570780000000  0.5139900000000  0.4209410000000 1.0
C      1  0.4664610000000  0.4282710000000  0.4933700000000 1.0
C      1  0.5118400000000  0.4460670000000  0.4354420000000 1.0
C      1  0.5445550000000  0.4918190000000  0.4917800000000 1.0
C      1  0.5802010000000  0.4522760000000  0.5077880000000 1.0
C      1  0.5452940000000  0.4782090000000  0.4281920000000 1.0
C      1  0.5478190000000  0.4609340000000  0.5744570000000 1.0
C      1  0.4831050000000  0.5293120000000  0.4668450000000 1.0
C      1  0.5298440000000  0.4735960000000  0.5288330000000 1.0
C      1  0.5234510000000  0.5424620000000  0.4381280000000 1.0
C      1  0.4643280000000  0.5604650000000  0.4372040000000 1.0
C      1  0.5603140000000  0.5650790000000  0.4974600000000 1.0
C      1  0.5904540000000  0.4997690000000  0.5215970000000 1.0
C      1  0.5287060000000  0.4675550000000  0.4990870000000 1.0
C      1  0.4910250000000  0.4375810000000  0.5348490000000 1.0
C      1  0.4883250000000  0.4853010000000  0.5151080000000 1.0
C      1  0.5413900000000  0.5066830000000  0.5837820000000 1.0
C      1  0.5577960000000  0.4556210000000  0.4400390000000 1.0
C      1  0.4432030000000  0.4656960000000  0.5487340000000 1.0
C      1  0.4950730000000  0.5137910000000  0.5253630000000 1.0
C      1  0.5680730000000  0.4936580000000  0.5399500000000 1.0
C      1  0.4809220000000  0.5775050000000  0.4541940000000 1.0
C      1  0.4879540000000  0.5667480000000  0.5519070000000 1.0
C      1  0.5218380000000  0.4494810000000  0.5709660000000 1.0
C      1  0.3977370000000  0.4990840000000  0.4962650000000 1.0
C      1  0.5044740000000  0.5187950000000  0.5555380000000 1.0
C      1  0.5484110000000  0.5296640000000  0.4334150000000 1.0
C      1  0.5220910000000  0.5081770000000  0.4824160000000 1.0
C      1  0.4540920000000  0.5159900000000  0.5688060000000 1.0
C      1  0.5040360000000  0.5722150000000  0.4721030000000 1.0
C      1  0.5506060000000  0.5299990000000  0.5678260000000 1.0
C      1  0.4483160000000  0.4761840000000  0.4375930000000 1.0
C      1  0.4738140000000  0.5053950000000  0.4765020000000 1.0
END
