TITL C-85418-404-4 0.0311874332822875 125000 -701.49292819169 0 0 101 (C1) n - 1
REM
REM in /rds/project/t2_vol4/rds-t2-cs072/BORA/CARBON/from-Arr/AIRSS/Generating-Clusters/GAP-ML-2020/Only-C1/SD-CG/HFTN-CG
REM
REM
REM
REM
REM
REM ./C.cell (11c1c37f851c82e70ff6c80c92926a4b)
REM AIRSS Version 0.9.1 bugfix July 2018 build 013d7b7c2542+ Fri, 06 Jul 2018 19:26:36 +0100
REM compiler GCC version 9.3.0
REM options -cpp -mtune=generic -march=x86-64 -g -O0
REM seed -1251681124 -1508875651 798906043 2123872781 1258815931 1478708205 -1319264966 1587458962 864259609 1472465382 239664005 294450391 -1994984833 -1581479913 -1614814023 1028480699 1428224972 1383006377 -1197459355 -1520949560 -1690924076 -538407949 -758157640 2130099997 69980335 -727369815 1225516746 436844065 -428377047 -444479179 -513973549 -1313960215 864722662
REM
CELL 1.54180   50.00000   50.00000   50.00000   90.00000   90.00000   90.00000
LATT -1
SFAC C  
C      1  0.4862500000000  0.4734560000000  0.5859460000000 1.0
C      1  0.5245030000000  0.4688010000000  0.4228060000000 1.0
C      1  0.5376730000000  0.5482710000000  0.4633710000000 1.0
C      1  0.5249280000000  0.4356180000000  0.4535540000000 1.0
C      1  0.4969270000000  0.4601520000000  0.4262430000000 1.0
C      1  0.4878320000000  0.4679480000000  0.4751790000000 1.0
C      1  0.4976600000000  0.4523540000000  0.5689630000000 1.0
C      1  0.5715130000000  0.4917110000000  0.4502580000000 1.0
C      1  0.4598380000000  0.4858320000000  0.5816330000000 1.0
C      1  0.4207220000000  0.5349570000000  0.4740390000000 1.0
C      1  0.4660300000000  0.5389210000000  0.5439590000000 1.0
C      1  0.4725950000000  0.5383560000000  0.4366130000000 1.0
C      1  0.4824540000000  0.4223980000000  0.4689860000000 1.0
C      1  0.4507400000000  0.5204820000000  0.4335410000000 1.0
C      1  0.5760290000000  0.5333450000000  0.5342730000000 1.0
C      1  0.4174700000000  0.4931880000000  0.4548230000000 1.0
C      1  0.5415970000000  0.4538950000000  0.4409860000000 1.0
C      1  0.5169550000000  0.5783390000000  0.4399040000000 1.0
C      1  0.5667600000000  0.4535700000000  0.4830940000000 1.0
C      1  0.4957490000000  0.5374740000000  0.4205440000000 1.0
C      1  0.4449600000000  0.4289660000000  0.5086880000000 1.0
C      1  0.5291840000000  0.4297230000000  0.5414720000000 1.0
C      1  0.5008840000000  0.4281710000000  0.5072470000000 1.0
C      1  0.5280250000000  0.5005410000000  0.5017630000000 1.0
C      1  0.4617000000000  0.5140680000000  0.5869360000000 1.0
C      1  0.5846690000000  0.5210850000000  0.5101760000000 1.0
C      1  0.4976350000000  0.5270650000000  0.5074090000000 1.0
C      1  0.5085670000000  0.5797160000000  0.4951080000000 1.0
C      1  0.5532430000000  0.4943190000000  0.5669590000000 1.0
C      1  0.5102370000000  0.5627510000000  0.4184990000000 1.0
C      1  0.5114530000000  0.5049920000000  0.4569010000000 1.0
C      1  0.4825010000000  0.4349590000000  0.5501600000000 1.0
C      1  0.4505630000000  0.4803610000000  0.5013840000000 1.0
C      1  0.5096770000000  0.5643600000000  0.5787260000000 1.0
C      1  0.4806490000000  0.5478870000000  0.4644560000000 1.0
C      1  0.4141490000000  0.5170110000000  0.4955910000000 1.0
C      1  0.4331890000000  0.5226120000000  0.5186160000000 1.0
C      1  0.4065560000000  0.4648470000000  0.4971030000000 1.0
C      1  0.4951840000000  0.4924820000000  0.5356700000000 1.0
C      1  0.5038400000000  0.4950780000000  0.5949380000000 1.0
C      1  0.4331850000000  0.5105220000000  0.5486280000000 1.0
C      1  0.5500010000000  0.4342790000000  0.5221110000000 1.0
C      1  0.4967070000000  0.4441530000000  0.4520040000000 1.0
C      1  0.5773740000000  0.4679160000000  0.5058660000000 1.0
C      1  0.4201920000000  0.4425900000000  0.5038700000000 1.0
C      1  0.5648980000000  0.4568990000000  0.5305940000000 1.0
C      1  0.5116510000000  0.4803890000000  0.5148870000000 1.0
C      1  0.5040680000000  0.4128210000000  0.4845110000000 1.0
C      1  0.4875100000000  0.4965510000000  0.4674130000000 1.0
C      1  0.4710260000000  0.4700240000000  0.4193860000000 1.0
C      1  0.5607860000000  0.5527660000000  0.4786420000000 1.0
C      1  0.4590180000000  0.4324640000000  0.4840380000000 1.0
C      1  0.4093320000000  0.4903790000000  0.4824030000000 1.0
C      1  0.5330390000000  0.4957930000000  0.4193940000000 1.0
C      1  0.5559280000000  0.5074950000000  0.4323890000000 1.0
C      1  0.5337190000000  0.5661230000000  0.5642160000000 1.0
C      1  0.4559820000000  0.4386720000000  0.5372250000000 1.0
C      1  0.5627810000000  0.4647820000000  0.4566750000000 1.0
C      1  0.5157110000000  0.5177760000000  0.4299350000000 1.0
C      1  0.4841140000000  0.5810310000000  0.5069980000000 1.0
C      1  0.5264870000000  0.4985080000000  0.5788260000000 1.0
C      1  0.4482760000000  0.5498600000000  0.5241150000000 1.0
C      1  0.5628180000000  0.5208250000000  0.5577080000000 1.0
C      1  0.4273750000000  0.4690600000000  0.5180930000000 1.0
C      1  0.4401520000000  0.4836560000000  0.5594730000000 1.0
C      1  0.5282320000000  0.4499320000000  0.5612670000000 1.0
C      1  0.5870460000000  0.4938970000000  0.4990220000000 1.0
C      1  0.4792790000000  0.5154000000000  0.5265400000000 1.0
C      1  0.4272380000000  0.5197570000000  0.4504400000000 1.0
C      1  0.5246780000000  0.5256680000000  0.5139940000000 1.0
C      1  0.5505170000000  0.4322690000000  0.4932360000000 1.0
C      1  0.4600040000000  0.5684440000000  0.5063010000000 1.0
C      1  0.4384080000000  0.4607700000000  0.5432070000000 1.0
C      1  0.5831450000000  0.5048440000000  0.4722810000000 1.0
C      1  0.5313990000000  0.4991390000000  0.4744450000000 1.0
C      1  0.5050840000000  0.4591240000000  0.4981250000000 1.0
C      1  0.5419970000000  0.5342260000000  0.4380490000000 1.0
C      1  0.5028900000000  0.4223450000000  0.5342270000000 1.0
C      1  0.4584850000000  0.5638170000000  0.4776170000000 1.0
C      1  0.5580050000000  0.5687910000000  0.5012690000000 1.0
C      1  0.5260020000000  0.5263710000000  0.5426860000000 1.0
C      1  0.5120400000000  0.5064150000000  0.5545860000000 1.0
C      1  0.5327850000000  0.5804950000000  0.5104430000000 1.0
C      1  0.4793820000000  0.5196050000000  0.4837970000000 1.0
C      1  0.5377770000000  0.5606970000000  0.4252470000000 1.0
C      1  0.5651250000000  0.5594220000000  0.5275240000000 1.0
C      1  0.5306750000000  0.4206500000000  0.4759960000000 1.0
C      1  0.5790700000000  0.5313790000000  0.4832210000000 1.0
C      1  0.5530020000000  0.4672300000000  0.5557910000000 1.0
C      1  0.4970920000000  0.5462460000000  0.5917010000000 1.0
C      1  0.4493170000000  0.5274820000000  0.5645960000000 1.0
C      1  0.4496480000000  0.4553330000000  0.4325330000000 1.0
C      1  0.5414810000000  0.5740900000000  0.5380440000000 1.0
C      1  0.4614070000000  0.4614360000000  0.4838240000000 1.0
C      1  0.4526120000000  0.4935170000000  0.4224140000000 1.0
C      1  0.4322310000000  0.4768570000000  0.4358780000000 1.0
C      1  0.5421060000000  0.5386740000000  0.5642520000000 1.0
C      1  0.5103730000000  0.5631050000000  0.4671000000000 1.0
C      1  0.4328150000000  0.5586050000000  0.4726020000000 1.0
C      1  0.4877200000000  0.5206140000000  0.5963030000000 1.0
C      1  0.4577150000000  0.5079560000000  0.5055290000000 1.0
END
