TITL C-85612-1145-13 -370.998552492684 125000 -782.866907920554 0 0 113 (C1) n - 1
REM
REM in /rds/project/t2_vol4/rds-t2-cs072/BORA/CARBON/from-Arr/AIRSS/Generating-Clusters/GAP-ML-2020/Only-C1/SD-CG/HFTN-CG
REM
REM
REM
REM
REM
REM ./C.cell (11c1c37f851c82e70ff6c80c92926a4b)
REM AIRSS Version 0.9.1 bugfix July 2018 build 013d7b7c2542+ Fri, 06 Jul 2018 19:26:36 +0100
REM compiler GCC version 9.3.0
REM options -cpp -mtune=generic -march=x86-64 -g -O0
REM seed -1234952327 -1099626356 -1584850622 -1985124606 -1148991599 -452727670 -2025556164 -1054667643 702671111 -110423376 1446902883 -758069801 1986385861 771626287 -383697939 1530345591 1442184718 -1788596929 -71384903 1462856491 -719281157 -456598650 -2016365108 -626421267 1195939482 -456136950 1635931000 -1681537327 1096664530 -1787698513 2123617798 -1659582303 -1829870460
REM
CELL 1.54180   50.00000   50.00000   50.00000   90.00000   90.00000   90.00000
LATT -1
SFAC C  
C      1  0.5311420000000  0.4714040000000  0.4540790000000 1.0
C      1  0.4201140000000  0.5100560000000  0.5230900000000 1.0
C      1  0.4977590000000  0.4089420000000  0.4558530000000 1.0
C      1  0.4343110000000  0.4351780000000  0.4784330000000 1.0
C      1  0.4689700000000  0.4061500000000  0.5011850000000 1.0
C      1  0.4266750000000  0.5017860000000  0.4742300000000 1.0
C      1  0.4670690000000  0.4386030000000  0.4360480000000 1.0
C      1  0.4315950000000  0.4550480000000  0.5254460000000 1.0
C      1  0.5090710000000  0.4816800000000  0.4026240000000 1.0
C      1  0.5515190000000  0.5723620000000  0.5393240000000 1.0
C      1  0.5055890000000  0.5835570000000  0.5467170000000 1.0
C      1  0.5011310000000  0.4540630000000  0.5523780000000 1.0
C      1  0.5275680000000  0.5407020000000  0.5177800000000 1.0
C      1  0.5284370000000  0.5687410000000  0.5570620000000 1.0
C      1  0.4768400000000  0.5781560000000  0.5473750000000 1.0
C      1  0.4739020000000  0.5116730000000  0.5220840000000 1.0
C      1  0.5026390000000  0.4802760000000  0.4633830000000 1.0
C      1  0.5372940000000  0.4937230000000  0.4960440000000 1.0
C      1  0.4998820000000  0.5078900000000  0.5067280000000 1.0
C      1  0.4217330000000  0.5208770000000  0.4968110000000 1.0
C      1  0.5605520000000  0.4760340000000  0.5596240000000 1.0
C      1  0.4925470000000  0.5951930000000  0.4985130000000 1.0
C      1  0.4836860000000  0.5180300000000  0.5833190000000 1.0
C      1  0.4848230000000  0.5352070000000  0.5401280000000 1.0
C      1  0.4367840000000  0.5166710000000  0.5676220000000 1.0
C      1  0.5170660000000  0.4100960000000  0.5511880000000 1.0
C      1  0.5374690000000  0.4782480000000  0.4105400000000 1.0
C      1  0.4550400000000  0.4641460000000  0.4426440000000 1.0
C      1  0.4591430000000  0.5320690000000  0.5763190000000 1.0
C      1  0.4427750000000  0.5644970000000  0.5150770000000 1.0
C      1  0.5724590000000  0.5511530000000  0.5342250000000 1.0
C      1  0.5809560000000  0.4825180000000  0.5092660000000 1.0
C      1  0.5149350000000  0.5033030000000  0.4785280000000 1.0
C      1  0.4975340000000  0.4078340000000  0.5317600000000 1.0
C      1  0.5722610000000  0.5394100000000  0.5583620000000 1.0
C      1  0.4248380000000  0.5285370000000  0.5439860000000 1.0
C      1  0.5729370000000  0.4636080000000  0.4876940000000 1.0
C      1  0.5103680000000  0.4232000000000  0.4353250000000 1.0
C      1  0.5526910000000  0.5281890000000  0.5733100000000 1.0
C      1  0.5374960000000  0.4270650000000  0.4748880000000 1.0
C      1  0.5118260000000  0.4557820000000  0.5230770000000 1.0
C      1  0.4711330000000  0.4533450000000  0.5573060000000 1.0
C      1  0.4592140000000  0.4998990000000  0.4764320000000 1.0
C      1  0.5338050000000  0.4350640000000  0.4454770000000 1.0
C      1  0.4914110000000  0.5343210000000  0.4942070000000 1.0
C      1  0.5084140000000  0.5329930000000  0.4712250000000 1.0
C      1  0.4931340000000  0.5401040000000  0.4452300000000 1.0
C      1  0.4770460000000  0.5632850000000  0.4580930000000 1.0
C      1  0.4765450000000  0.4907450000000  0.5909730000000 1.0
C      1  0.4406530000000  0.5455570000000  0.4922410000000 1.0
C      1  0.4605770000000  0.4745160000000  0.5739780000000 1.0
C      1  0.5399420000000  0.5851520000000  0.5167840000000 1.0
C      1  0.5895280000000  0.5110930000000  0.4713230000000 1.0
C      1  0.5004380000000  0.5081150000000  0.4106270000000 1.0
C      1  0.5195670000000  0.5455310000000  0.4310740000000 1.0
C      1  0.4905780000000  0.4382790000000  0.4197260000000 1.0
C      1  0.5254400000000  0.4899980000000  0.5892080000000 1.0
C      1  0.5218900000000  0.5644240000000  0.4729920000000 1.0
C      1  0.5244640000000  0.5229310000000  0.4148930000000 1.0
C      1  0.4186710000000  0.4735230000000  0.4772790000000 1.0
C      1  0.5232850000000  0.4337650000000  0.5631940000000 1.0
C      1  0.4335070000000  0.4838310000000  0.5341390000000 1.0
C      1  0.4490170000000  0.5558340000000  0.4641980000000 1.0
C      1  0.5010640000000  0.4986990000000  0.6006360000000 1.0
C      1  0.5180590000000  0.4766800000000  0.5625630000000 1.0
C      1  0.4654140000000  0.4772250000000  0.4941930000000 1.0
C      1  0.4785100000000  0.5145420000000  0.4306540000000 1.0
C      1  0.5402300000000  0.5645450000000  0.4965780000000 1.0
C      1  0.4945490000000  0.4592320000000  0.4036670000000 1.0
C      1  0.5383920000000  0.4649780000000  0.5133020000000 1.0
C      1  0.4548590000000  0.4156820000000  0.4786890000000 1.0
C      1  0.5517900000000  0.4447380000000  0.4933970000000 1.0
C      1  0.5556070000000  0.4788590000000  0.4698300000000 1.0
C      1  0.4960030000000  0.5789380000000  0.4734920000000 1.0
C      1  0.5000170000000  0.5483900000000  0.5179170000000 1.0
C      1  0.5185400000000  0.5030740000000  0.5472070000000 1.0
C      1  0.4973000000000  0.4465010000000  0.5020360000000 1.0
C      1  0.4688980000000  0.6070210000000  0.5068070000000 1.0
C      1  0.5412570000000  0.4587250000000  0.4305540000000 1.0
C      1  0.5637430000000  0.4743360000000  0.5307220000000 1.0
C      1  0.4376050000000  0.5398840000000  0.4437780000000 1.0
C      1  0.5791750000000  0.5291550000000  0.4509210000000 1.0
C      1  0.4746950000000  0.4900920000000  0.4497860000000 1.0
C      1  0.5695690000000  0.5083950000000  0.4331090000000 1.0
C      1  0.4488790000000  0.5203410000000  0.4280480000000 1.0
C      1  0.5140870000000  0.4079620000000  0.4797990000000 1.0
C      1  0.5651770000000  0.5538600000000  0.4878380000000 1.0
C      1  0.4223100000000  0.4528620000000  0.4983920000000 1.0
C      1  0.5788450000000  0.5385880000000  0.5078400000000 1.0
C      1  0.5411600000000  0.4562110000000  0.5661900000000 1.0
C      1  0.4382310000000  0.5526290000000  0.5396520000000 1.0
C      1  0.4639290000000  0.5241520000000  0.4945510000000 1.0
C      1  0.4387590000000  0.4889680000000  0.5627750000000 1.0
C      1  0.4634770000000  0.5529370000000  0.5551250000000 1.0
C      1  0.5376760000000  0.5584130000000  0.4491300000000 1.0
C      1  0.4879380000000  0.4633880000000  0.4836510000000 1.0
C      1  0.5258400000000  0.5111700000000  0.5202570000000 1.0
C      1  0.4688150000000  0.4166640000000  0.5283160000000 1.0
C      1  0.4978020000000  0.4008180000000  0.5024410000000 1.0
C      1  0.5039220000000  0.5255800000000  0.5612020000000 1.0
C      1  0.5773910000000  0.4905880000000  0.4550530000000 1.0
C      1  0.4621520000000  0.4861230000000  0.5221580000000 1.0
C      1  0.4626610000000  0.5850400000000  0.5221970000000 1.0
C      1  0.4544310000000  0.4396850000000  0.5380660000000 1.0
C      1  0.5477180000000  0.5047750000000  0.4156840000000 1.0
C      1  0.4279990000000  0.5134100000000  0.4468770000000 1.0
C      1  0.5636380000000  0.5506290000000  0.4596310000000 1.0
C      1  0.5272550000000  0.5433820000000  0.5698920000000 1.0
C      1  0.5135090000000  0.5938440000000  0.5209210000000 1.0
C      1  0.4702010000000  0.4166860000000  0.4548880000000 1.0
C      1  0.5871510000000  0.5112040000000  0.4993860000000 1.0
C      1  0.5510150000000  0.4998620000000  0.5786900000000 1.0
C      1  0.4330720000000  0.4565750000000  0.4588450000000 1.0
END
