TITL C-85411-1298-4 -9.65379921558506 125000 -247.845683827953 0 0 37 (C1) n - 1
REM
REM in /rds/project/t2_vol4/rds-t2-cs072/BORA/CARBON/from-Arr/AIRSS/Generating-Clusters/GAP-ML-2020/Only-C1/SD-CG/HFTN-CG
REM
REM
REM
REM
REM
REM ./C.cell (11c1c37f851c82e70ff6c80c92926a4b)
REM AIRSS Version 0.9.1 bugfix July 2018 build 013d7b7c2542+ Fri, 06 Jul 2018 19:26:36 +0100
REM compiler GCC version 9.3.0
REM options -cpp -mtune=generic -march=x86-64 -g -O0
REM seed -1042561381 1396511729 1897818255 -1121182463 -1433331472 1325067579 1014085535 67433558 -1359422831 1456047541 1883419932 574700144 1038314356 1971894336 -152528512 1159244623 -1556736255 1333980986 1899349773 -835844211 -2075508276 1358510491 618652473 -740176990 -2106584997 -1182975931 -914069732 -993663736 -1561857949 1350174611 -1042973646 221128463 1653477601
REM
CELL 1.54180   50.00000   50.00000   50.00000   90.00000   90.00000   90.00000
LATT -1
SFAC C  
C      1  0.5189190000000  0.4531490000000  0.4649400000000 1.0
C      1  0.4730870000000  0.4252250000000  0.4633570000000 1.0
C      1  0.4461450000000  0.5208300000000  0.5325630000000 1.0
C      1  0.5317120000000  0.5006110000000  0.5377540000000 1.0
C      1  0.4796330000000  0.5369240000000  0.4555710000000 1.0
C      1  0.5140200000000  0.5458420000000  0.5340310000000 1.0
C      1  0.4556160000000  0.4362940000000  0.4797540000000 1.0
C      1  0.4759180000000  0.4870160000000  0.5443300000000 1.0
C      1  0.4856520000000  0.4483300000000  0.5150650000000 1.0
C      1  0.5135830000000  0.5201290000000  0.5457680000000 1.0
C      1  0.5282530000000  0.4504470000000  0.4938160000000 1.0
C      1  0.4867980000000  0.5124600000000  0.5504550000000 1.0
C      1  0.5172420000000  0.5043120000000  0.4509880000000 1.0
C      1  0.4942240000000  0.5083510000000  0.4986650000000 1.0
C      1  0.5463680000000  0.4965050000000  0.5122850000000 1.0
C      1  0.5212560000000  0.4738270000000  0.5356380000000 1.0
C      1  0.4939870000000  0.4669690000000  0.5350930000000 1.0
C      1  0.5311660000000  0.5222720000000  0.4691160000000 1.0
C      1  0.5385690000000  0.5615930000000  0.4938500000000 1.0
C      1  0.4669810000000  0.5118550000000  0.4587610000000 1.0
C      1  0.4817020000000  0.5598180000000  0.4994530000000 1.0
C      1  0.4528390000000  0.4818510000000  0.5016410000000 1.0
C      1  0.4925770000000  0.5534870000000  0.4748000000000 1.0
C      1  0.5176210000000  0.4771970000000  0.4534940000000 1.0
C      1  0.4515680000000  0.4932790000000  0.5281630000000 1.0
C      1  0.4867840000000  0.5523440000000  0.5248990000000 1.0
C      1  0.5204920000000  0.5481150000000  0.4754580000000 1.0
C      1  0.5378580000000  0.4686500000000  0.5121270000000 1.0
C      1  0.5056420000000  0.4335890000000  0.5001400000000 1.0
C      1  0.5493800000000  0.5158390000000  0.4924450000000 1.0
C      1  0.4605740000000  0.4547070000000  0.5002020000000 1.0
C      1  0.4709150000000  0.5013510000000  0.4858860000000 1.0
C      1  0.4693560000000  0.5332450000000  0.5392820000000 1.0
C      1  0.4914120000000  0.5157640000000  0.4435890000000 1.0
C      1  0.5556890000000  0.5414700000000  0.5045430000000 1.0
C      1  0.4987560000000  0.4312220000000  0.4704880000000 1.0
C      1  0.5377090000000  0.5551290000000  0.5215880000000 1.0
END
