TITL C-85409-893-12 -110.832602832561 125000 -608.984046269429 0 0 88 (C1) n - 1
REM
REM in /rds/project/t2_vol4/rds-t2-cs072/BORA/CARBON/from-Arr/AIRSS/Generating-Clusters/GAP-ML-2020/Only-C1/SD-CG/HFTN-CG
REM
REM
REM
REM
REM
REM ./C.cell (11c1c37f851c82e70ff6c80c92926a4b)
REM AIRSS Version 0.9.1 bugfix July 2018 build 013d7b7c2542+ Fri, 06 Jul 2018 19:26:36 +0100
REM compiler GCC version 9.3.0
REM options -cpp -mtune=generic -march=x86-64 -g -O0
REM seed -684471616 1978086390 1278508974 -1750276248 515179285 131749511 -108529634 -1279700041 -590471340 242834205 -2087765199 -50553821 -361457475 -1684559891 1909410016 259152276 511041035 -886903088 260120442 139801470 -704224753 -320420497 -2095604972 -73551666 -1538082400 705312932 -1763446895 -1012026006 -1073036522 -2076739747 -2144157381 -205674421 65714112
REM
CELL 1.54180   50.00000   50.00000   50.00000   90.00000   90.00000   90.00000
LATT -1
SFAC C  
C      1  0.4968430000000  0.5075230000000  0.4148660000000 1.0
C      1  0.5709900000000  0.4793320000000  0.4673260000000 1.0
C      1  0.4706360000000  0.4244540000000  0.5157170000000 1.0
C      1  0.5179950000000  0.5689750000000  0.5436280000000 1.0
C      1  0.5676240000000  0.4675570000000  0.5153050000000 1.0
C      1  0.5769160000000  0.5066000000000  0.4741480000000 1.0
C      1  0.5165500000000  0.4892380000000  0.4690850000000 1.0
C      1  0.4711450000000  0.4923250000000  0.5688810000000 1.0
C      1  0.5117690000000  0.5793580000000  0.4991730000000 1.0
C      1  0.5351940000000  0.4919040000000  0.4402940000000 1.0
C      1  0.5361870000000  0.4921350000000  0.4897560000000 1.0
C      1  0.5204260000000  0.4277190000000  0.5060250000000 1.0
C      1  0.4957090000000  0.5109050000000  0.4743570000000 1.0
C      1  0.4306980000000  0.4554530000000  0.5154190000000 1.0
C      1  0.4839630000000  0.5244330000000  0.4478970000000 1.0
C      1  0.5045230000000  0.5721550000000  0.4728960000000 1.0
C      1  0.4869120000000  0.4396120000000  0.4719300000000 1.0
C      1  0.5566350000000  0.4728630000000  0.4437460000000 1.0
C      1  0.4210510000000  0.4802770000000  0.4773710000000 1.0
C      1  0.4420830000000  0.5363830000000  0.4537420000000 1.0
C      1  0.5556020000000  0.4666200000000  0.4895470000000 1.0
C      1  0.5131250000000  0.4428610000000  0.5578250000000 1.0
C      1  0.5084880000000  0.5282570000000  0.4958350000000 1.0
C      1  0.5037790000000  0.5319630000000  0.4272740000000 1.0
C      1  0.4970160000000  0.5744910000000  0.5235450000000 1.0
C      1  0.5272110000000  0.5414210000000  0.4386630000000 1.0
C      1  0.4371990000000  0.5423460000000  0.4812710000000 1.0
C      1  0.5133570000000  0.4849670000000  0.4215290000000 1.0
C      1  0.4327680000000  0.4860600000000  0.4521510000000 1.0
C      1  0.4904080000000  0.5357390000000  0.5189470000000 1.0
C      1  0.4423850000000  0.5099350000000  0.4402030000000 1.0
C      1  0.5280750000000  0.4362900000000  0.5322220000000 1.0
C      1  0.5500700000000  0.4466920000000  0.4386310000000 1.0
C      1  0.5155540000000  0.4846880000000  0.5866650000000 1.0
C      1  0.5027290000000  0.4402280000000  0.4470150000000 1.0
C      1  0.5698970000000  0.5397660000000  0.5051710000000 1.0
C      1  0.4930540000000  0.4702710000000  0.5068640000000 1.0
C      1  0.4511120000000  0.4390110000000  0.5293920000000 1.0
C      1  0.5368090000000  0.5314810000000  0.5744290000000 1.0
C      1  0.4317140000000  0.4552970000000  0.4870000000000 1.0
C      1  0.4970070000000  0.4621970000000  0.4290190000000 1.0
C      1  0.4517350000000  0.4652390000000  0.4479770000000 1.0
C      1  0.4891320000000  0.4748410000000  0.5815010000000 1.0
C      1  0.4702540000000  0.5583380000000  0.5198080000000 1.0
C      1  0.4710220000000  0.4732350000000  0.4296200000000 1.0
C      1  0.5716160000000  0.5034390000000  0.5457480000000 1.0
C      1  0.4242020000000  0.5382080000000  0.5252420000000 1.0
C      1  0.4464280000000  0.5490990000000  0.5369240000000 1.0
C      1  0.5306770000000  0.4373340000000  0.4550620000000 1.0
C      1  0.5466560000000  0.4583790000000  0.5319310000000 1.0
C      1  0.5275750000000  0.4665890000000  0.5678960000000 1.0
C      1  0.5323860000000  0.4451950000000  0.4839820000000 1.0
C      1  0.4680550000000  0.4751250000000  0.4957590000000 1.0
C      1  0.5529960000000  0.5528030000000  0.4807070000000 1.0
C      1  0.4483320000000  0.4778720000000  0.5605340000000 1.0
C      1  0.5081490000000  0.4632910000000  0.4822530000000 1.0
C      1  0.5289830000000  0.5125200000000  0.5072910000000 1.0
C      1  0.4210630000000  0.4820570000000  0.5229290000000 1.0
C      1  0.4595060000000  0.4535850000000  0.4731000000000 1.0
C      1  0.4914420000000  0.4240390000000  0.4980680000000 1.0
C      1  0.5050210000000  0.5255580000000  0.5440410000000 1.0
C      1  0.4770840000000  0.5651990000000  0.4699850000000 1.0
C      1  0.5154130000000  0.5472940000000  0.5616990000000 1.0
C      1  0.5289290000000  0.4801350000000  0.5419170000000 1.0
C      1  0.4163950000000  0.4981010000000  0.4991040000000 1.0
C      1  0.4689210000000  0.5023740000000  0.4269240000000 1.0
C      1  0.4709540000000  0.5130110000000  0.5185200000000 1.0
C      1  0.5431050000000  0.5677350000000  0.5293240000000 1.0
C      1  0.5307550000000  0.5104200000000  0.5357390000000 1.0
C      1  0.4210070000000  0.5268600000000  0.4992840000000 1.0
C      1  0.5454180000000  0.5204410000000  0.4416820000000 1.0
C      1  0.4301870000000  0.4949600000000  0.5465280000000 1.0
C      1  0.5781610000000  0.4936470000000  0.5217680000000 1.0
C      1  0.5621660000000  0.5473700000000  0.5316990000000 1.0
C      1  0.5391630000000  0.5720540000000  0.5017580000000 1.0
C      1  0.4739040000000  0.5015950000000  0.4922540000000 1.0
C      1  0.5626250000000  0.5284340000000  0.4624420000000 1.0
C      1  0.4673360000000  0.5485190000000  0.4489420000000 1.0
C      1  0.4859940000000  0.4497110000000  0.5670850000000 1.0
C      1  0.5262560000000  0.5094650000000  0.5861920000000 1.0
C      1  0.5805440000000  0.5136180000000  0.5010840000000 1.0
C      1  0.4848040000000  0.5025810000000  0.5437190000000 1.0
C      1  0.5556150000000  0.5259600000000  0.5503440000000 1.0
C      1  0.5280250000000  0.5588300000000  0.4614340000000 1.0
C      1  0.5003810000000  0.4796640000000  0.5322550000000 1.0
C      1  0.4326100000000  0.5241260000000  0.5474840000000 1.0
C      1  0.4590430000000  0.5599040000000  0.4914010000000 1.0
C      1  0.4587670000000  0.4514630000000  0.5542970000000 1.0
END
