TITL C-85601-27-12 38.9013910810248 125000 -529.484188822836 0 0 78 (C1) n - 1
REM
REM in /rds/project/t2_vol4/rds-t2-cs072/BORA/CARBON/from-Arr/AIRSS/Generating-Clusters/GAP-ML-2020/Only-C1/SD-CG/HFTN-CG
REM
REM
REM
REM
REM
REM ./C.cell (11c1c37f851c82e70ff6c80c92926a4b)
REM AIRSS Version 0.9.1 bugfix July 2018 build 013d7b7c2542+ Fri, 06 Jul 2018 19:26:36 +0100
REM compiler GCC version 9.3.0
REM options -cpp -mtune=generic -march=x86-64 -g -O0
REM seed -1768350983 1416504988 1653210501 136678802 1419747780 -1048591654 1878506755 -1483732004 -1130826863 684651535 -605655545 -649121978 -333234492 1064000183 -1147422230 86991594 659939932 -312516827 -1432747973 -355000470 552395240 1044091199 253694845 -1669611227 347922068 -810722209 -1028383565 240023017 -1374451000 1260358497 1299027232 -1099388506 -2057043091
REM
CELL 1.54180   50.00000   50.00000   50.00000   90.00000   90.00000   90.00000
LATT -1
SFAC C  
C      1  0.5527570000000  0.4717620000000  0.5212960000000 1.0
C      1  0.4345070000000  0.5272270000000  0.4505090000000 1.0
C      1  0.4329650000000  0.5065830000000  0.4688930000000 1.0
C      1  0.5233060000000  0.5088880000000  0.5398950000000 1.0
C      1  0.4936520000000  0.5000300000000  0.4187130000000 1.0
C      1  0.5018680000000  0.4756060000000  0.4309070000000 1.0
C      1  0.5097590000000  0.5616840000000  0.5529460000000 1.0
C      1  0.4919220000000  0.5405790000000  0.5626470000000 1.0
C      1  0.5417650000000  0.5009500000000  0.5624660000000 1.0
C      1  0.4649350000000  0.4673500000000  0.5895420000000 1.0
C      1  0.5051490000000  0.4636280000000  0.5626910000000 1.0
C      1  0.4513420000000  0.5182600000000  0.4907960000000 1.0
C      1  0.5385040000000  0.5352560000000  0.5289590000000 1.0
C      1  0.4716470000000  0.5489940000000  0.4416330000000 1.0
C      1  0.5654750000000  0.5253820000000  0.4928020000000 1.0
C      1  0.5620530000000  0.4949010000000  0.5381550000000 1.0
C      1  0.5008920000000  0.5449340000000  0.4400950000000 1.0
C      1  0.5021440000000  0.5691390000000  0.5265980000000 1.0
C      1  0.5636940000000  0.4632920000000  0.4944910000000 1.0
C      1  0.4732970000000  0.4938860000000  0.5876840000000 1.0
C      1  0.4563690000000  0.4749040000000  0.4347140000000 1.0
C      1  0.5203180000000  0.4834840000000  0.5760810000000 1.0
C      1  0.5138770000000  0.5495660000000  0.4806230000000 1.0
C      1  0.5082230000000  0.4220260000000  0.4940720000000 1.0
C      1  0.5241100000000  0.4860610000000  0.5219540000000 1.0
C      1  0.4824350000000  0.4321490000000  0.5018970000000 1.0
C      1  0.5623270000000  0.5201770000000  0.5213230000000 1.0
C      1  0.4959340000000  0.5177860000000  0.5400630000000 1.0
C      1  0.4763820000000  0.4617280000000  0.5661080000000 1.0
C      1  0.4792940000000  0.4580530000000  0.4353650000000 1.0
C      1  0.5112290000000  0.4314520000000  0.4666210000000 1.0
C      1  0.4604420000000  0.5095580000000  0.5679530000000 1.0
C      1  0.4404340000000  0.4800200000000  0.5236050000000 1.0
C      1  0.5468500000000  0.5503200000000  0.4586560000000 1.0
C      1  0.5027500000000  0.5259650000000  0.4666030000000 1.0
C      1  0.4978920000000  0.5237760000000  0.5117360000000 1.0
C      1  0.5338720000000  0.4284070000000  0.5066490000000 1.0
C      1  0.5459370000000  0.4643190000000  0.4526970000000 1.0
C      1  0.4661550000000  0.4379890000000  0.4785180000000 1.0
C      1  0.4906130000000  0.4759180000000  0.4927460000000 1.0
C      1  0.5364150000000  0.5177180000000  0.4263370000000 1.0
C      1  0.4569870000000  0.5580260000000  0.5146930000000 1.0
C      1  0.5224560000000  0.5040120000000  0.4712760000000 1.0
C      1  0.4499740000000  0.5103150000000  0.5207940000000 1.0
C      1  0.4514020000000  0.5376910000000  0.5344650000000 1.0
C      1  0.4503420000000  0.5475000000000  0.4886930000000 1.0
C      1  0.4844720000000  0.4398050000000  0.4567580000000 1.0
C      1  0.5630290000000  0.4791520000000  0.4703050000000 1.0
C      1  0.4604670000000  0.5211800000000  0.4407360000000 1.0
C      1  0.5407100000000  0.4375370000000  0.4614230000000 1.0
C      1  0.4425490000000  0.4556660000000  0.4797940000000 1.0
C      1  0.5358200000000  0.5492560000000  0.5545560000000 1.0
C      1  0.4619100000000  0.5374160000000  0.5614990000000 1.0
C      1  0.4452520000000  0.4789260000000  0.4615640000000 1.0
C      1  0.5217450000000  0.5615130000000  0.4558190000000 1.0
C      1  0.5160670000000  0.5478280000000  0.5094250000000 1.0
C      1  0.5544890000000  0.5071350000000  0.4712120000000 1.0
C      1  0.5362520000000  0.4464720000000  0.5277810000000 1.0
C      1  0.5102880000000  0.5234940000000  0.4205800000000 1.0
C      1  0.5524260000000  0.5244100000000  0.4468100000000 1.0
C      1  0.5640740000000  0.5501890000000  0.4805480000000 1.0
C      1  0.5526490000000  0.4372230000000  0.4868980000000 1.0
C      1  0.5108610000000  0.4596950000000  0.5349710000000 1.0
C      1  0.4721520000000  0.5002540000000  0.5414370000000 1.0
C      1  0.5093880000000  0.5274040000000  0.5839180000000 1.0
C      1  0.4322850000000  0.4643350000000  0.5037250000000 1.0
C      1  0.5365200000000  0.5280940000000  0.5738720000000 1.0
C      1  0.4655970000000  0.5001370000000  0.4228940000000 1.0
C      1  0.4768650000000  0.5764500000000  0.5210160000000 1.0
C      1  0.4760180000000  0.5140870000000  0.4687450000000 1.0
C      1  0.5197920000000  0.4785010000000  0.4537580000000 1.0
C      1  0.5090410000000  0.4978650000000  0.4988170000000 1.0
C      1  0.4498270000000  0.5535890000000  0.4608340000000 1.0
C      1  0.5018590000000  0.5009960000000  0.5893540000000 1.0
C      1  0.4850740000000  0.4564940000000  0.5187670000000 1.0
C      1  0.4661790000000  0.4696090000000  0.5377840000000 1.0
C      1  0.4729920000000  0.4870590000000  0.4735000000000 1.0
C      1  0.5087000000000  0.4609820000000  0.4749400000000 1.0
END
