TITL C-85431-3033-1 -214.446998672636 125000 -852.007781835755 0 0 119 (C1) n - 1
REM
REM in /rds/project/t2_vol4/rds-t2-cs072/BORA/CARBON/from-Arr/AIRSS/Generating-Clusters/GAP-ML-2020/Only-C1/SD-CG/HFTN-CG
REM
REM
REM
REM
REM
REM ./C.cell (11c1c37f851c82e70ff6c80c92926a4b)
REM AIRSS Version 0.9.1 bugfix July 2018 build 013d7b7c2542+ Fri, 06 Jul 2018 19:26:36 +0100
REM compiler GCC version 9.3.0
REM options -cpp -mtune=generic -march=x86-64 -g -O0
REM seed 66112314 719276778 68210380 1314302490 -1426700353 -1240952976 1919271183 -495486846 -1950142714 -687021780 374726912 2136397764 -1068418474 -2046819655 2131874980 1516881597 -2084621930 -791861629 -2116273604 -1492924884 -885380025 -1704655403 1828027182 602085856 -1620442582 -903687974 213749603 -1943181340 -563705730 -94064462 63776244 -1953694136 1981358503
REM
CELL 1.54180   50.00000   50.00000   50.00000   90.00000   90.00000   90.00000
LATT -1
SFAC C  
C      1  0.5349690000000  0.5677580000000  0.5387990000000 1.0
C      1  0.5625330000000  0.4910800000000  0.5370740000000 1.0
C      1  0.5202620000000  0.4185860000000  0.4560990000000 1.0
C      1  0.5106170000000  0.4375880000000  0.4372390000000 1.0
C      1  0.4168140000000  0.4733100000000  0.4744910000000 1.0
C      1  0.5211150000000  0.5711680000000  0.4436180000000 1.0
C      1  0.4760600000000  0.5601450000000  0.4455400000000 1.0
C      1  0.4996060000000  0.4832940000000  0.5980650000000 1.0
C      1  0.5449140000000  0.5376950000000  0.5418390000000 1.0
C      1  0.5265130000000  0.4589410000000  0.4247360000000 1.0
C      1  0.5103970000000  0.5408840000000  0.5048420000000 1.0
C      1  0.5127380000000  0.4833370000000  0.4137090000000 1.0
C      1  0.5652850000000  0.5680480000000  0.4634290000000 1.0
C      1  0.4520150000000  0.5458950000000  0.4413790000000 1.0
C      1  0.4956750000000  0.4110220000000  0.5264730000000 1.0
C      1  0.4077960000000  0.4958040000000  0.5408520000000 1.0
C      1  0.4383460000000  0.5633220000000  0.5304940000000 1.0
C      1  0.4562940000000  0.5656900000000  0.5527530000000 1.0
C      1  0.5167900000000  0.4626520000000  0.4823550000000 1.0
C      1  0.5800710000000  0.5478260000000  0.4957030000000 1.0
C      1  0.5167030000000  0.5243160000000  0.5276840000000 1.0
C      1  0.4715900000000  0.5864240000000  0.4936670000000 1.0
C      1  0.4244820000000  0.5166520000000  0.5516300000000 1.0
C      1  0.4574720000000  0.5087030000000  0.5930730000000 1.0
C      1  0.5440910000000  0.4163520000000  0.4961070000000 1.0
C      1  0.4851600000000  0.4475450000000  0.5708470000000 1.0
C      1  0.5155690000000  0.5062830000000  0.5959090000000 1.0
C      1  0.5128720000000  0.5671320000000  0.5588660000000 1.0
C      1  0.5542830000000  0.4580520000000  0.4350530000000 1.0
C      1  0.5722950000000  0.5081290000000  0.4326060000000 1.0
C      1  0.5458480000000  0.4197740000000  0.4677950000000 1.0
C      1  0.5394950000000  0.4810220000000  0.5194380000000 1.0
C      1  0.4330050000000  0.5458280000000  0.4634460000000 1.0
C      1  0.4694000000000  0.4959750000000  0.4994630000000 1.0
C      1  0.4783330000000  0.5162970000000  0.4127270000000 1.0
C      1  0.4023700000000  0.4997130000000  0.5140570000000 1.0
C      1  0.5667060000000  0.5205580000000  0.5331530000000 1.0
C      1  0.5015830000000  0.4124900000000  0.4768220000000 1.0
C      1  0.5401230000000  0.5827740000000  0.5139440000000 1.0
C      1  0.5406970000000  0.5283100000000  0.4713960000000 1.0
C      1  0.5369090000000  0.4508120000000  0.5236970000000 1.0
C      1  0.5023730000000  0.5314700000000  0.5946300000000 1.0
C      1  0.4592790000000  0.4770940000000  0.4243900000000 1.0
C      1  0.4467010000000  0.5063830000000  0.5119930000000 1.0
C      1  0.4230180000000  0.5398070000000  0.5293930000000 1.0
C      1  0.4855260000000  0.5567570000000  0.5518120000000 1.0
C      1  0.5420030000000  0.5330890000000  0.5709230000000 1.0
C      1  0.5586310000000  0.4356890000000  0.5110240000000 1.0
C      1  0.5891970000000  0.4759580000000  0.4607100000000 1.0
C      1  0.4345240000000  0.5660280000000  0.4815440000000 1.0
C      1  0.4931180000000  0.5275770000000  0.5440800000000 1.0
C      1  0.4272180000000  0.4464040000000  0.4742570000000 1.0
C      1  0.5080410000000  0.4608850000000  0.5833250000000 1.0
C      1  0.4694920000000  0.4720010000000  0.4839470000000 1.0
C      1  0.5866820000000  0.5213640000000  0.4547050000000 1.0
C      1  0.4999510000000  0.5016790000000  0.4648040000000 1.0
C      1  0.5283440000000  0.5050560000000  0.4718190000000 1.0
C      1  0.4844300000000  0.5672610000000  0.4735360000000 1.0
C      1  0.5546530000000  0.5475400000000  0.4223250000000 1.0
C      1  0.5399920000000  0.5064860000000  0.5800760000000 1.0
C      1  0.5490520000000  0.5666930000000  0.4401400000000 1.0
C      1  0.5843530000000  0.5469470000000  0.4672200000000 1.0
C      1  0.4881180000000  0.4539550000000  0.5193060000000 1.0
C      1  0.5501870000000  0.4842730000000  0.5651080000000 1.0
C      1  0.4356040000000  0.5024300000000  0.5758520000000 1.0
C      1  0.4199930000000  0.4569740000000  0.5192600000000 1.0
C      1  0.4217620000000  0.5214460000000  0.4735420000000 1.0
C      1  0.4418630000000  0.4976230000000  0.4351040000000 1.0
C      1  0.5003520000000  0.5557210000000  0.4311900000000 1.0
C      1  0.5132970000000  0.4461640000000  0.5052290000000 1.0
C      1  0.5928970000000  0.5003910000000  0.5013610000000 1.0
C      1  0.4244880000000  0.4968150000000  0.4591210000000 1.0
C      1  0.5839420000000  0.4781560000000  0.5167990000000 1.0
C      1  0.4932950000000  0.4719540000000  0.4676740000000 1.0
C      1  0.5328420000000  0.4607220000000  0.5689090000000 1.0
C      1  0.5621820000000  0.4401750000000  0.4567800000000 1.0
C      1  0.4859530000000  0.5410920000000  0.4911450000000 1.0
C      1  0.5310830000000  0.5501180000000  0.4863150000000 1.0
C      1  0.4732070000000  0.5325340000000  0.5923710000000 1.0
C      1  0.5511360000000  0.5210970000000  0.4174910000000 1.0
C      1  0.5137280000000  0.4160600000000  0.5030510000000 1.0
C      1  0.5256330000000  0.4428970000000  0.5487130000000 1.0
C      1  0.5815890000000  0.4528090000000  0.4742580000000 1.0
C      1  0.4788470000000  0.4283570000000  0.4736700000000 1.0
C      1  0.5155470000000  0.4954830000000  0.5214940000000 1.0
C      1  0.4589350000000  0.4510770000000  0.4361150000000 1.0
C      1  0.4674890000000  0.4463050000000  0.4971800000000 1.0
C      1  0.4380490000000  0.4387610000000  0.5038050000000 1.0
C      1  0.5179500000000  0.5933370000000  0.4964480000000 1.0
C      1  0.4076130000000  0.4753240000000  0.5006850000000 1.0
C      1  0.4613520000000  0.4623100000000  0.5785400000000 1.0
C      1  0.5735200000000  0.4799330000000  0.4371640000000 1.0
C      1  0.5840710000000  0.5254130000000  0.5120000000000 1.0
C      1  0.5337690000000  0.4840860000000  0.4901490000000 1.0
C      1  0.4465640000000  0.4121220000000  0.5133750000000 1.0
C      1  0.4835220000000  0.4881670000000  0.4129490000000 1.0
C      1  0.4816530000000  0.5155820000000  0.4811240000000 1.0
C      1  0.4206170000000  0.5203130000000  0.5041350000000 1.0
C      1  0.4926510000000  0.6033850000000  0.5011740000000 1.0
C      1  0.5797270000000  0.4527750000000  0.5027710000000 1.0
C      1  0.4455520000000  0.5756760000000  0.5043120000000 1.0
C      1  0.4959990000000  0.4366150000000  0.5451680000000 1.0
C      1  0.4646810000000  0.5522650000000  0.5745590000000 1.0
C      1  0.4382450000000  0.4417630000000  0.4508260000000 1.0
C      1  0.4366890000000  0.4733070000000  0.5683140000000 1.0
C      1  0.4196210000000  0.4698620000000  0.5452280000000 1.0
C      1  0.4780850000000  0.5038920000000  0.5439020000000 1.0
C      1  0.4884420000000  0.4850680000000  0.5229020000000 1.0
C      1  0.5024250000000  0.5309710000000  0.4151860000000 1.0
C      1  0.4702340000000  0.4044090000000  0.5195530000000 1.0
C      1  0.4539240000000  0.5221930000000  0.4263270000000 1.0
C      1  0.5564440000000  0.5662780000000  0.4936120000000 1.0
C      1  0.5203880000000  0.5488680000000  0.5800300000000 1.0
C      1  0.4510910000000  0.5087240000000  0.5384870000000 1.0
C      1  0.4713180000000  0.4840530000000  0.5961900000000 1.0
C      1  0.4844910000000  0.4449020000000  0.4491990000000 1.0
C      1  0.5239400000000  0.5109750000000  0.4123830000000 1.0
C      1  0.5950760000000  0.5002980000000  0.4729870000000 1.0
C      1  0.5139520000000  0.5743890000000  0.4719540000000 1.0
END
