TITL C-85413-3323-3 0.014641578959904 125000 -125.626781661515 0 0 20 (C1) n - 1
REM
REM in /rds/project/t2_vol4/rds-t2-cs072/BORA/CARBON/from-Arr/AIRSS/Generating-Clusters/GAP-ML-2020/Only-C1/SD-CG/HFTN-CG
REM
REM
REM
REM
REM
REM ./C.cell (11c1c37f851c82e70ff6c80c92926a4b)
REM AIRSS Version 0.9.1 bugfix July 2018 build 013d7b7c2542+ Fri, 06 Jul 2018 19:26:36 +0100
REM compiler GCC version 9.3.0
REM options -cpp -mtune=generic -march=x86-64 -g -O0
REM seed -1196946894 -522912153 -924087183 -1883979665 653022084 1721836663 1237283938 -725811017 -1016866373 -265395106 1496922712 2140418979 1447809545 -1405808248 614737622 -1195819689 6567449 -334194153 -1945971843 1634604228 -1180045789 -283328115 1337490868 -1318143296 41720833 1792247543 -1602399730 1213391376 -1134336574 967258457 1180818893 1242215331 991338935
REM
CELL 1.54180   50.00000   50.00000   50.00000   90.00000   90.00000   90.00000
LATT -1
SFAC C  
C      1  0.5091830000000  0.5581810000000  0.5333730000000 1.0
C      1  0.4732160000000  0.4752220000000  0.4600920000000 1.0
C      1  0.4856840000000  0.4591010000000  0.5231890000000 1.0
C      1  0.5154310000000  0.4672420000000  0.5139590000000 1.0
C      1  0.4674720000000  0.4869930000000  0.4844300000000 1.0
C      1  0.4914230000000  0.5424000000000  0.5254610000000 1.0
C      1  0.5349680000000  0.5042320000000  0.5383610000000 1.0
C      1  0.4970740000000  0.5175690000000  0.4635140000000 1.0
C      1  0.5194300000000  0.4788860000000  0.4905000000000 1.0
C      1  0.4658400000000  0.4753850000000  0.5105980000000 1.0
C      1  0.5185650000000  0.4825050000000  0.5382190000000 1.0
C      1  0.4791480000000  0.5203900000000  0.5139660000000 1.0
C      1  0.4808350000000  0.5121620000000  0.4869620000000 1.0
C      1  0.5477090000000  0.5265850000000  0.4686890000000 1.0
C      1  0.4900780000000  0.4812730000000  0.5448850000000 1.0
C      1  0.4902590000000  0.4964940000000  0.4460880000000 1.0
C      1  0.4716510000000  0.4972000000000  0.5292310000000 1.0
C      1  0.4915520000000  0.4704490000000  0.4402640000000 1.0
C      1  0.5231900000000  0.5268690000000  0.4640360000000 1.0
C      1  0.5472900000000  0.5208640000000  0.5241830000000 1.0
END
