TITL C-85585-93-9 3.246216447075 125000 -104.01628026047 0 0 17 (C1) n - 1
REM
REM in /rds/project/t2_vol4/rds-t2-cs072/BORA/CARBON/from-Arr/AIRSS/Generating-Clusters/GAP-ML-2020/Only-C1/SD-CG/HFTN-CG
REM
REM
REM
REM
REM
REM ./C.cell (11c1c37f851c82e70ff6c80c92926a4b)
REM AIRSS Version 0.9.1 bugfix July 2018 build 013d7b7c2542+ Fri, 06 Jul 2018 19:26:36 +0100
REM compiler GCC version 9.3.0
REM options -cpp -mtune=generic -march=x86-64 -g -O0
REM seed -1787203937 -700658835 -29392575 1974395300 57095764 -2052122191 874916075 -2146292813 -2004982207 1805755256 -1209355311 184839547 894080762 -915717412 -1238300752 1979861775 -1885658005 385175326 1991002392 1879131983 1597166455 -940404332 -2111665913 -737984203 -1800946084 -2009339523 395495072 -2023592931 1483068086 1558898146 -302857266 389641073 440438755
REM
CELL 1.54180   50.00000   50.00000   50.00000   90.00000   90.00000   90.00000
LATT -1
SFAC C  
C      1  0.4624180000000  0.4948560000000  0.5207480000000 1.0
C      1  0.5176390000000  0.4942380000000  0.4570520000000 1.0
C      1  0.5281740000000  0.4840080000000  0.5120070000000 1.0
C      1  0.5048960000000  0.4715640000000  0.5223900000000 1.0
C      1  0.4947390000000  0.5280810000000  0.5224910000000 1.0
C      1  0.5116260000000  0.4651300000000  0.4960780000000 1.0
C      1  0.4849100000000  0.4856240000000  0.5370950000000 1.0
C      1  0.4688610000000  0.5214780000000  0.5123120000000 1.0
C      1  0.5011290000000  0.4790910000000  0.4727060000000 1.0
C      1  0.5304260000000  0.5209680000000  0.4855130000000 1.0
C      1  0.5061430000000  0.5318470000000  0.4944770000000 1.0
C      1  0.5336200000000  0.5146800000000  0.4573980000000 1.0
C      1  0.4781560000000  0.5214950000000  0.4848940000000 1.0
C      1  0.5430330000000  0.5049670000000  0.5054000000000 1.0
C      1  0.4766440000000  0.4914160000000  0.4788980000000 1.0
C      1  0.4987620000000  0.5102140000000  0.5427370000000 1.0
C      1  0.4588260000000  0.4803430000000  0.4978020000000 1.0
END
