TITL C-85433-3157-2 -0.0855761117723989 125000 -371.051523490258 0 0 56 (C1) n - 1
REM
REM in /rds/project/t2_vol4/rds-t2-cs072/BORA/CARBON/from-Arr/AIRSS/Generating-Clusters/GAP-ML-2020/Only-C1/SD-CG/HFTN-CG
REM
REM
REM
REM
REM
REM ./C.cell (11c1c37f851c82e70ff6c80c92926a4b)
REM AIRSS Version 0.9.1 bugfix July 2018 build 013d7b7c2542+ Fri, 06 Jul 2018 19:26:36 +0100
REM compiler GCC version 9.3.0
REM options -cpp -mtune=generic -march=x86-64 -g -O0
REM seed 1800218778 1840906167 757464316 712844344 626823092 -134858750 -898412798 1173367199 -1061380313 1517522449 1168374243 -589330645 -1687891460 -97314911 1113733791 309652782 1249897305 803490507 247671226 422745566 614819709 -1485706979 1682072053 -1216835489 -2115657791 -1662033032 1217629078 -279786090 1434663411 584295468 1687472033 1280731866 115825425
REM
CELL 1.54180   50.00000   50.00000   50.00000   90.00000   90.00000   90.00000
LATT -1
SFAC C  
C      1  0.5544730000000  0.5187330000000  0.5496650000000 1.0
C      1  0.4564690000000  0.5292900000000  0.4522570000000 1.0
C      1  0.5081190000000  0.5233520000000  0.4706530000000 1.0
C      1  0.4512470000000  0.4544910000000  0.4888510000000 1.0
C      1  0.4888890000000  0.4703300000000  0.4330210000000 1.0
C      1  0.5092820000000  0.4456770000000  0.4724870000000 1.0
C      1  0.4397910000000  0.5391500000000  0.5323970000000 1.0
C      1  0.5342240000000  0.5617530000000  0.5381060000000 1.0
C      1  0.4625250000000  0.5511490000000  0.5243600000000 1.0
C      1  0.4455610000000  0.5036290000000  0.4960970000000 1.0
C      1  0.4725350000000  0.5519860000000  0.4981560000000 1.0
C      1  0.4882080000000  0.4861980000000  0.4783960000000 1.0
C      1  0.5590300000000  0.5019490000000  0.4761990000000 1.0
C      1  0.4499500000000  0.5156360000000  0.5431090000000 1.0
C      1  0.4606740000000  0.4492860000000  0.4623660000000 1.0
C      1  0.5593450000000  0.4707730000000  0.5450880000000 1.0
C      1  0.5408660000000  0.4852860000000  0.4611080000000 1.0
C      1  0.4651440000000  0.4865560000000  0.4350630000000 1.0
C      1  0.5149720000000  0.5369340000000  0.4444150000000 1.0
C      1  0.4603840000000  0.4994270000000  0.5214630000000 1.0
C      1  0.4877190000000  0.4495990000000  0.4537590000000 1.0
C      1  0.5064400000000  0.4355320000000  0.4993930000000 1.0
C      1  0.5615590000000  0.4954510000000  0.5338470000000 1.0
C      1  0.5383820000000  0.5432500000000  0.4606300000000 1.0
C      1  0.4409740000000  0.4812870000000  0.4805170000000 1.0
C      1  0.4985880000000  0.4824900000000  0.5055910000000 1.0
C      1  0.4660120000000  0.4478230000000  0.5111040000000 1.0
C      1  0.4761050000000  0.4726810000000  0.5253340000000 1.0
C      1  0.4714700000000  0.5151210000000  0.4345730000000 1.0
C      1  0.5345280000000  0.4570320000000  0.5429130000000 1.0
C      1  0.5523750000000  0.5426090000000  0.5328560000000 1.0
C      1  0.4735650000000  0.5228950000000  0.5596650000000 1.0
C      1  0.4482450000000  0.4750050000000  0.4535640000000 1.0
C      1  0.4823750000000  0.4248440000000  0.5067710000000 1.0
C      1  0.4996130000000  0.5189210000000  0.4271500000000 1.0
C      1  0.5071340000000  0.5532560000000  0.5309760000000 1.0
C      1  0.5262550000000  0.4493460000000  0.5167580000000 1.0
C      1  0.5136690000000  0.4952530000000  0.4607270000000 1.0
C      1  0.5128870000000  0.5229530000000  0.5295020000000 1.0
C      1  0.4846240000000  0.5159290000000  0.4854450000000 1.0
C      1  0.4902680000000  0.5104360000000  0.5140400000000 1.0
C      1  0.5146890000000  0.4951820000000  0.5713740000000 1.0
C      1  0.5290370000000  0.4744580000000  0.5023250000000 1.0
C      1  0.5604590000000  0.5262150000000  0.4639070000000 1.0
C      1  0.5265290000000  0.5143370000000  0.5548930000000 1.0
C      1  0.5361710000000  0.5255250000000  0.5105960000000 1.0
C      1  0.4823370000000  0.5475100000000  0.5451860000000 1.0
C      1  0.4857050000000  0.4993580000000  0.5671850000000 1.0
C      1  0.5492800000000  0.4986000000000  0.5053630000000 1.0
C      1  0.4859490000000  0.4740830000000  0.5530070000000 1.0
C      1  0.5008540000000  0.5563910000000  0.5018750000000 1.0
C      1  0.5238880000000  0.5416550000000  0.4880460000000 1.0
C      1  0.4586830000000  0.5288140000000  0.4808030000000 1.0
C      1  0.5070860000000  0.4915750000000  0.4328110000000 1.0
C      1  0.5142590000000  0.4690490000000  0.5597580000000 1.0
C      1  0.5305990000000  0.4639500000000  0.4744940000000 1.0
END
