TITL C-85431-3033-6 0.0114684208148477 125000 -159.902447375352 0 0 24 (C1) n - 1
REM
REM in /rds/project/t2_vol4/rds-t2-cs072/BORA/CARBON/from-Arr/AIRSS/Generating-Clusters/GAP-ML-2020/Only-C1/SD-CG/HFTN-CG
REM
REM
REM
REM
REM
REM ./C.cell (11c1c37f851c82e70ff6c80c92926a4b)
REM AIRSS Version 0.9.1 bugfix July 2018 build 013d7b7c2542+ Fri, 06 Jul 2018 19:26:36 +0100
REM compiler GCC version 9.3.0
REM options -cpp -mtune=generic -march=x86-64 -g -O0
REM seed -1279698368 1871813151 -1541776528 -855734498 1366805657 -855024100 1411414809 -1727183535 1609075965 -1757108959 1121219032 -551521241 -319290714 1603879607 -516543168 -583179243 490363296 505330555 -623145203 202071129 49035011 1307509845 1290519120 -1104172410 1823001439 476508809 -1565176521 837197443 -766339309 1167655993 2136825233 912459390 -1243197469
REM
CELL 1.54180   50.00000   50.00000   50.00000   90.00000   90.00000   90.00000
LATT -1
SFAC C  
C      1  0.5018920000000  0.4962510000000  0.5532130000000 1.0
C      1  0.4422430000000  0.5142610000000  0.4802960000000 1.0
C      1  0.5133790000000  0.4711690000000  0.5425120000000 1.0
C      1  0.4686600000000  0.5190990000000  0.5270240000000 1.0
C      1  0.5385990000000  0.5058140000000  0.4856300000000 1.0
C      1  0.4905410000000  0.4674770000000  0.5241030000000 1.0
C      1  0.4539550000000  0.4992590000000  0.4629270000000 1.0
C      1  0.4567030000000  0.5263110000000  0.4998230000000 1.0
C      1  0.4892730000000  0.5391690000000  0.5223660000000 1.0
C      1  0.5234820000000  0.5114400000000  0.5404860000000 1.0
C      1  0.5247730000000  0.5294680000000  0.4944600000000 1.0
C      1  0.5409350000000  0.4830440000000  0.5037190000000 1.0
C      1  0.5253460000000  0.4964490000000  0.4622080000000 1.0
C      1  0.5353460000000  0.4865810000000  0.5307900000000 1.0
C      1  0.4983710000000  0.4579840000000  0.4978780000000 1.0
C      1  0.4801050000000  0.5420580000000  0.4943750000000 1.0
C      1  0.5274650000000  0.4601830000000  0.4914670000000 1.0
C      1  0.5008990000000  0.5330890000000  0.4773660000000 1.0
C      1  0.4783360000000  0.4934690000000  0.5362350000000 1.0
C      1  0.4922750000000  0.4651840000000  0.4689400000000 1.0
C      1  0.5166970000000  0.5318770000000  0.5220630000000 1.0
C      1  0.5006640000000  0.5110210000000  0.4586340000000 1.0
C      1  0.4793360000000  0.4907710000000  0.4588330000000 1.0
C      1  0.5207260000000  0.4685730000000  0.4646510000000 1.0
END
