TITL C-85615-2680-6 -54.2830374997384 125000 -718.50824794189 0 0 104 (C1) n - 1
REM
REM in /rds/project/t2_vol4/rds-t2-cs072/BORA/CARBON/from-Arr/AIRSS/Generating-Clusters/GAP-ML-2020/Only-C1/SD-CG/HFTN-CG
REM
REM
REM
REM
REM
REM ./C.cell (11c1c37f851c82e70ff6c80c92926a4b)
REM AIRSS Version 0.9.1 bugfix July 2018 build 013d7b7c2542+ Fri, 06 Jul 2018 19:26:36 +0100
REM compiler GCC version 9.3.0
REM options -cpp -mtune=generic -march=x86-64 -g -O0
REM seed 1006277554 1888109077 -229709398 -732174977 387688846 -733355972 728834835 1259031076 -2059975495 -647359600 -245851828 -231082397 1761695730 1072899794 1836451483 555893347 -452517422 -271545916 -1595674030 942684112 -2136304910 -1246631837 1273328592 408788218 -501687095 185605696 950669921 1677837050 -731727176 -241272912 -389540777 167627920 2003474220
REM
CELL 1.54180   50.00000   50.00000   50.00000   90.00000   90.00000   90.00000
LATT -1
SFAC C  
C      1  0.5648500000000  0.5273840000000  0.4661550000000 1.0
C      1  0.5294500000000  0.5867700000000  0.5101930000000 1.0
C      1  0.4718360000000  0.4269350000000  0.5107830000000 1.0
C      1  0.4628360000000  0.4997030000000  0.5222900000000 1.0
C      1  0.5213830000000  0.5586570000000  0.5583250000000 1.0
C      1  0.5562080000000  0.5028810000000  0.4214010000000 1.0
C      1  0.4836460000000  0.4773230000000  0.5185830000000 1.0
C      1  0.4525950000000  0.4888120000000  0.4331010000000 1.0
C      1  0.4956060000000  0.5817570000000  0.4737820000000 1.0
C      1  0.5318010000000  0.5291620000000  0.5053900000000 1.0
C      1  0.4991660000000  0.4730320000000  0.4588580000000 1.0
C      1  0.5526230000000  0.4861490000000  0.5652510000000 1.0
C      1  0.5574410000000  0.4337430000000  0.5142860000000 1.0
C      1  0.5068850000000  0.5422550000000  0.5128960000000 1.0
C      1  0.5039710000000  0.5903260000000  0.5235490000000 1.0
C      1  0.5356890000000  0.4686000000000  0.5790630000000 1.0
C      1  0.4685130000000  0.4372770000000  0.5637070000000 1.0
C      1  0.5379280000000  0.5657540000000  0.4668130000000 1.0
C      1  0.4124790000000  0.5034150000000  0.4885620000000 1.0
C      1  0.5303610000000  0.4647500000000  0.5273150000000 1.0
C      1  0.4362520000000  0.4842080000000  0.5234640000000 1.0
C      1  0.5682460000000  0.5172390000000  0.4392040000000 1.0
C      1  0.4905500000000  0.4720910000000  0.5931110000000 1.0
C      1  0.5467420000000  0.5132100000000  0.5687040000000 1.0
C      1  0.5136170000000  0.4852160000000  0.5891590000000 1.0
C      1  0.5820620000000  0.5329490000000  0.5077230000000 1.0
C      1  0.4698280000000  0.5522350000000  0.4462730000000 1.0
C      1  0.4927210000000  0.5537490000000  0.4650570000000 1.0
C      1  0.5036010000000  0.4919670000000  0.5013410000000 1.0
C      1  0.4801010000000  0.4540280000000  0.5023460000000 1.0
C      1  0.5030850000000  0.4350300000000  0.4218080000000 1.0
C      1  0.4661030000000  0.5202780000000  0.4988170000000 1.0
C      1  0.5019020000000  0.4520880000000  0.4831230000000 1.0
C      1  0.5203970000000  0.5421170000000  0.4577610000000 1.0
C      1  0.4460840000000  0.5723530000000  0.4818440000000 1.0
C      1  0.5765620000000  0.5197320000000  0.5315310000000 1.0
C      1  0.5118180000000  0.4189370000000  0.5344020000000 1.0
C      1  0.4554230000000  0.5552990000000  0.5497090000000 1.0
C      1  0.5606290000000  0.5319060000000  0.5523710000000 1.0
C      1  0.4301380000000  0.5407330000000  0.5454700000000 1.0
C      1  0.5551860000000  0.4784100000000  0.5387540000000 1.0
C      1  0.5232020000000  0.4704860000000  0.4973620000000 1.0
C      1  0.5389670000000  0.4445990000000  0.5664970000000 1.0
C      1  0.4102150000000  0.5261760000000  0.5030650000000 1.0
C      1  0.5217640000000  0.4122410000000  0.4615900000000 1.0
C      1  0.5424270000000  0.4510170000000  0.4466220000000 1.0
C      1  0.4323960000000  0.4819720000000  0.4526980000000 1.0
C      1  0.4708870000000  0.5886070000000  0.4863360000000 1.0
C      1  0.4678990000000  0.4220250000000  0.4817030000000 1.0
C      1  0.4995010000000  0.4142040000000  0.5092680000000 1.0
C      1  0.4777290000000  0.4456730000000  0.4250310000000 1.0
C      1  0.4443700000000  0.5537520000000  0.4592600000000 1.0
C      1  0.4922340000000  0.4964220000000  0.4741600000000 1.0
C      1  0.5228650000000  0.5843590000000  0.4823400000000 1.0
C      1  0.4568510000000  0.4348360000000  0.4399730000000 1.0
C      1  0.5403090000000  0.4885150000000  0.4784890000000 1.0
C      1  0.5296380000000  0.4776030000000  0.4514950000000 1.0
C      1  0.5137090000000  0.5131400000000  0.5198720000000 1.0
C      1  0.5237800000000  0.4300440000000  0.4380470000000 1.0
C      1  0.4301130000000  0.4907700000000  0.5516160000000 1.0
C      1  0.4192090000000  0.5059280000000  0.4610510000000 1.0
C      1  0.5468180000000  0.4157340000000  0.4749630000000 1.0
C      1  0.4335040000000  0.4622710000000  0.4743640000000 1.0
C      1  0.5069100000000  0.5655680000000  0.5352720000000 1.0
C      1  0.4765310000000  0.5905930000000  0.5143790000000 1.0
C      1  0.5588370000000  0.4414680000000  0.4679370000000 1.0
C      1  0.5702700000000  0.5587040000000  0.5020100000000 1.0
C      1  0.4801860000000  0.4756910000000  0.4311980000000 1.0
C      1  0.5806710000000  0.5138040000000  0.4864540000000 1.0
C      1  0.5037160000000  0.5396090000000  0.5713590000000 1.0
C      1  0.4231090000000  0.5170580000000  0.5568150000000 1.0
C      1  0.5523440000000  0.4108010000000  0.5009840000000 1.0
C      1  0.5523710000000  0.5710760000000  0.5213350000000 1.0
C      1  0.4564500000000  0.4870070000000  0.5651910000000 1.0
C      1  0.4242030000000  0.4770420000000  0.4983830000000 1.0
C      1  0.5359440000000  0.5199200000000  0.4773780000000 1.0
C      1  0.5282420000000  0.4978670000000  0.4292850000000 1.0
C      1  0.4552780000000  0.5761050000000  0.5281300000000 1.0
C      1  0.4888440000000  0.4213170000000  0.5525820000000 1.0
C      1  0.5713450000000  0.4927160000000  0.5223340000000 1.0
C      1  0.4483060000000  0.5167120000000  0.4291520000000 1.0
C      1  0.5482060000000  0.5570120000000  0.5472300000000 1.0
C      1  0.4351810000000  0.5691990000000  0.5086160000000 1.0
C      1  0.4195020000000  0.5466700000000  0.5181850000000 1.0
C      1  0.4736250000000  0.5083570000000  0.5516800000000 1.0
C      1  0.4493070000000  0.4379070000000  0.4664780000000 1.0
C      1  0.5360590000000  0.4366900000000  0.5380630000000 1.0
C      1  0.4685460000000  0.5087650000000  0.4737760000000 1.0
C      1  0.5040220000000  0.5026140000000  0.5477090000000 1.0
C      1  0.5678340000000  0.4546610000000  0.4914360000000 1.0
C      1  0.5691450000000  0.4862940000000  0.4934640000000 1.0
C      1  0.4943350000000  0.5216120000000  0.4189220000000 1.0
C      1  0.5000390000000  0.4209130000000  0.4796030000000 1.0
C      1  0.4690110000000  0.4644910000000  0.5773140000000 1.0
C      1  0.5184250000000  0.5268470000000  0.4334150000000 1.0
C      1  0.4312650000000  0.5290050000000  0.4490610000000 1.0
C      1  0.5173110000000  0.5127510000000  0.5734420000000 1.0
C      1  0.4839580000000  0.5422460000000  0.4958150000000 1.0
C      1  0.4702890000000  0.5337170000000  0.4248100000000 1.0
C      1  0.4994970000000  0.4938990000000  0.4173750000000 1.0
C      1  0.4632780000000  0.4255920000000  0.5390310000000 1.0
C      1  0.5046350000000  0.4745780000000  0.5403820000000 1.0
C      1  0.5626670000000  0.5567480000000  0.4748410000000 1.0
C      1  0.4756050000000  0.5375370000000  0.5610920000000 1.0
END
