TITL C-85415-2875-9 -25.8622936674366 125000 -172.160817885451 0 0 27 (C1) n - 1
REM
REM in /rds/project/t2_vol4/rds-t2-cs072/BORA/CARBON/from-Arr/AIRSS/Generating-Clusters/GAP-ML-2020/Only-C1/SD-CG/HFTN-CG
REM
REM
REM
REM
REM
REM ./C.cell (11c1c37f851c82e70ff6c80c92926a4b)
REM AIRSS Version 0.9.1 bugfix July 2018 build 013d7b7c2542+ Fri, 06 Jul 2018 19:26:36 +0100
REM compiler GCC version 9.3.0
REM options -cpp -mtune=generic -march=x86-64 -g -O0
REM seed -698036208 119799006 1085963667 1586396437 442639959 -274571720 -2108556100 1869232403 -990535830 2119774272 870574230 -1355520495 -1650496310 -1779106649 302918231 1448475821 -1688587667 -870885467 -1455811572 -537375269 -1043543633 2077916998 -627254607 321731389 -1818555645 -473638085 1759331393 -1438414651 1372836902 932304477 -306354293 -799755289 819234769
REM
CELL 1.54180   50.00000   50.00000   50.00000   90.00000   90.00000   90.00000
LATT -1
SFAC C  
C      1  0.5361770000000  0.5167670000000  0.5360430000000 1.0
C      1  0.4493980000000  0.5352280000000  0.5278120000000 1.0
C      1  0.5304060000000  0.4592690000000  0.5075330000000 1.0
C      1  0.4840340000000  0.4547100000000  0.5025770000000 1.0
C      1  0.4659640000000  0.4641530000000  0.5182470000000 1.0
C      1  0.5278400000000  0.4673160000000  0.5365050000000 1.0
C      1  0.4988540000000  0.4872530000000  0.5115990000000 1.0
C      1  0.4654020000000  0.4912630000000  0.5283260000000 1.0
C      1  0.5444620000000  0.4914170000000  0.5306960000000 1.0
C      1  0.5305810000000  0.5257280000000  0.4780930000000 1.0
C      1  0.5114970000000  0.5225750000000  0.5268810000000 1.0
C      1  0.4655550000000  0.5102940000000  0.4843410000000 1.0
C      1  0.4817290000000  0.5138220000000  0.4405950000000 1.0
C      1  0.4603990000000  0.5141980000000  0.4574040000000 1.0
C      1  0.5105120000000  0.4858460000000  0.4704550000000 1.0
C      1  0.5366010000000  0.4978410000000  0.4823100000000 1.0
C      1  0.4920870000000  0.4983710000000  0.5392820000000 1.0
C      1  0.5082340000000  0.4586430000000  0.4886030000000 1.0
C      1  0.5198100000000  0.5249400000000  0.4512190000000 1.0
C      1  0.5475730000000  0.4833580000000  0.5029630000000 1.0
C      1  0.5101550000000  0.5249850000000  0.4979580000000 1.0
C      1  0.5002400000000  0.5374560000000  0.4371320000000 1.0
C      1  0.4608500000000  0.5454740000000  0.5480960000000 1.0
C      1  0.4561770000000  0.5125950000000  0.5122430000000 1.0
C      1  0.5072450000000  0.4970550000000  0.4446620000000 1.0
C      1  0.4924090000000  0.5044460000000  0.4882280000000 1.0
C      1  0.5058100000000  0.4749970000000  0.5501970000000 1.0
END
