TITL C-85614-1972-6 0.0701860516465937 125000 -186.730506654534 0 0 29 (C1) n - 1
REM
REM in /rds/project/t2_vol4/rds-t2-cs072/BORA/CARBON/from-Arr/AIRSS/Generating-Clusters/GAP-ML-2020/Only-C1/SD-CG/HFTN-CG
REM
REM
REM
REM
REM
REM ./C.cell (11c1c37f851c82e70ff6c80c92926a4b)
REM AIRSS Version 0.9.1 bugfix July 2018 build 013d7b7c2542+ Fri, 06 Jul 2018 19:26:36 +0100
REM compiler GCC version 9.3.0
REM options -cpp -mtune=generic -march=x86-64 -g -O0
REM seed -1848628805 -61343402 1524854184 -790612351 -1662157833 1923182625 286666924 -1012513759 -1353656559 -875143508 626101406 2080993670 -3712465 -652375766 -1467742697 -1805067647 -1590894854 1139147349 -1437172948 1463666931 1092075764 1280093809 -1716988125 164228852 579006115 1917489524 -1055665251 25105052 1720148242 824366908 -335584425 -894926060 -2053480817
REM
CELL 1.54180   50.00000   50.00000   50.00000   90.00000   90.00000   90.00000
LATT -1
SFAC C  
C      1  0.4881730000000  0.4664980000000  0.5033000000000 1.0
C      1  0.4784230000000  0.5414970000000  0.4683720000000 1.0
C      1  0.5339280000000  0.5007890000000  0.4681350000000 1.0
C      1  0.5183980000000  0.4731200000000  0.4630790000000 1.0
C      1  0.4820140000000  0.4948030000000  0.5458880000000 1.0
C      1  0.5228110000000  0.4751350000000  0.5365180000000 1.0
C      1  0.4823800000000  0.4948720000000  0.5155400000000 1.0
C      1  0.5068500000000  0.4880160000000  0.5545110000000 1.0
C      1  0.4548000000000  0.5009750000000  0.5059060000000 1.0
C      1  0.5594930000000  0.4984070000000  0.4789850000000 1.0
C      1  0.5361940000000  0.4556330000000  0.4959800000000 1.0
C      1  0.5077160000000  0.5311380000000  0.5311540000000 1.0
C      1  0.4924680000000  0.4744300000000  0.4738880000000 1.0
C      1  0.5145090000000  0.4587050000000  0.5150440000000 1.0
C      1  0.5317290000000  0.4940590000000  0.5180380000000 1.0
C      1  0.4874690000000  0.5147520000000  0.4635250000000 1.0
C      1  0.5052430000000  0.5494150000000  0.4786170000000 1.0
C      1  0.4441610000000  0.4734620000000  0.5051510000000 1.0
C      1  0.4440860000000  0.5238120000000  0.4946450000000 1.0
C      1  0.5087390000000  0.5104210000000  0.5092030000000 1.0
C      1  0.4992770000000  0.5161430000000  0.5539830000000 1.0
C      1  0.4612860000000  0.4542200000000  0.5059580000000 1.0
C      1  0.5099760000000  0.5667950000000  0.4992410000000 1.0
C      1  0.5089020000000  0.5569560000000  0.5235870000000 1.0
C      1  0.5510080000000  0.4829760000000  0.4998590000000 1.0
C      1  0.5134800000000  0.5193740000000  0.4800450000000 1.0
C      1  0.4519840000000  0.5428760000000  0.4792420000000 1.0
C      1  0.4746940000000  0.4915580000000  0.4618780000000 1.0
C      1  0.5298090000000  0.4491650000000  0.4707290000000 1.0
END
