TITL C-85438-3165-6 114.166036720234 125000 -149.284656212719 0 0 23 (C1) n - 1
REM
REM in /rds/project/t2_vol4/rds-t2-cs072/BORA/CARBON/from-Arr/AIRSS/Generating-Clusters/GAP-ML-2020/Only-C1/SD-CG/HFTN-CG
REM
REM
REM
REM
REM
REM ./C.cell (11c1c37f851c82e70ff6c80c92926a4b)
REM AIRSS Version 0.9.1 bugfix July 2018 build 013d7b7c2542+ Fri, 06 Jul 2018 19:26:36 +0100
REM compiler GCC version 9.3.0
REM options -cpp -mtune=generic -march=x86-64 -g -O0
REM seed -1990262004 -1470304446 -928256085 1987705962 222463888 -1953413729 -1635838479 -62409537 1967764950 1126572641 -2114047220 -189651236 501014228 -696440186 -460948820 540351325 -231245333 -1974185202 354388035 885275315 2082226244 828434970 -598700645 1371275885 -1660690329 1064377494 -724180213 -1507874526 -120006498 -169477883 1252134702 -2030484979 910800997
REM
CELL 1.54180   50.00000   50.00000   50.00000   90.00000   90.00000   90.00000
LATT -1
SFAC C  
C      1  0.4596280000000  0.4883200000000  0.4970550000000 1.0
C      1  0.5329190000000  0.5502600000000  0.5118480000000 1.0
C      1  0.5154010000000  0.5517680000000  0.4901760000000 1.0
C      1  0.5052890000000  0.5322700000000  0.4716420000000 1.0
C      1  0.4962340000000  0.4538670000000  0.4937120000000 1.0
C      1  0.4686640000000  0.5144390000000  0.5016470000000 1.0
C      1  0.5352350000000  0.4684240000000  0.4674210000000 1.0
C      1  0.5393810000000  0.4985540000000  0.4596240000000 1.0
C      1  0.5099870000000  0.4472990000000  0.5166560000000 1.0
C      1  0.4885430000000  0.5538730000000  0.5023290000000 1.0
C      1  0.4944040000000  0.4745090000000  0.5519780000000 1.0
C      1  0.4970730000000  0.4865330000000  0.4558130000000 1.0
C      1  0.4761820000000  0.4908300000000  0.5397770000000 1.0
C      1  0.5073610000000  0.4543060000000  0.5413040000000 1.0
C      1  0.4580300000000  0.4743920000000  0.5221680000000 1.0
C      1  0.5572740000000  0.4831440000000  0.4726370000000 1.0
C      1  0.5182470000000  0.5463540000000  0.5346260000000 1.0
C      1  0.4693310000000  0.4627420000000  0.4992320000000 1.0
C      1  0.4795480000000  0.5337430000000  0.4845400000000 1.0
C      1  0.4771150000000  0.5174020000000  0.5284480000000 1.0
C      1  0.4911830000000  0.5421530000000  0.5287760000000 1.0
C      1  0.5084160000000  0.4650460000000  0.4706790000000 1.0
C      1  0.5145560000000  0.5097720000000  0.4579130000000 1.0
END
