TITL C-85437-1521-1 -0.0380409011576113 125000 -167.116255270019 0 0 26 (C1) n - 1
REM
REM in /rds/project/t2_vol4/rds-t2-cs072/BORA/CARBON/from-Arr/AIRSS/Generating-Clusters/GAP-ML-2020/Only-C1/SD-CG/HFTN-CG
REM
REM
REM
REM
REM
REM ./C.cell (11c1c37f851c82e70ff6c80c92926a4b)
REM AIRSS Version 0.9.1 bugfix July 2018 build 013d7b7c2542+ Fri, 06 Jul 2018 19:26:36 +0100
REM compiler GCC version 9.3.0
REM options -cpp -mtune=generic -march=x86-64 -g -O0
REM seed 589788924 535385619 2118914055 1254372406 -1349636695 1343036746 -2067952059 -265512367 768077801 -506844394 -1916586037 -1049467482 -1030863132 1913405182 2007074478 1872374003 741416325 -1128471696 769245269 -224472764 762036666 2028833550 -1977861303 -1804606066 1474979050 830445155 1835951674 -832210467 65633894 -8959993 1480813015 619987402 414315420
REM
CELL 1.54180   50.00000   50.00000   50.00000   90.00000   90.00000   90.00000
LATT -1
SFAC C  
C      1  0.4749870000000  0.5013280000000  0.4701130000000 1.0
C      1  0.5369100000000  0.4656250000000  0.4823060000000 1.0
C      1  0.5083900000000  0.4641970000000  0.4723250000000 1.0
C      1  0.5625120000000  0.5128600000000  0.4843590000000 1.0
C      1  0.4609980000000  0.5190250000000  0.5133480000000 1.0
C      1  0.4589260000000  0.4980970000000  0.5470830000000 1.0
C      1  0.5288970000000  0.4535630000000  0.5079790000000 1.0
C      1  0.5447900000000  0.4928150000000  0.4758110000000 1.0
C      1  0.5070990000000  0.5606470000000  0.4819400000000 1.0
C      1  0.4989680000000  0.4869700000000  0.4599020000000 1.0
C      1  0.5191070000000  0.5040910000000  0.4700460000000 1.0
C      1  0.4817520000000  0.5044740000000  0.4989330000000 1.0
C      1  0.5201460000000  0.4559040000000  0.5536260000000 1.0
C      1  0.5372510000000  0.4502900000000  0.5339620000000 1.0
C      1  0.4645010000000  0.5488940000000  0.4593860000000 1.0
C      1  0.4782400000000  0.4769830000000  0.5407520000000 1.0
C      1  0.5499390000000  0.5337780000000  0.4919690000000 1.0
C      1  0.4644480000000  0.5231710000000  0.4590170000000 1.0
C      1  0.5223090000000  0.5410080000000  0.4942180000000 1.0
C      1  0.4844760000000  0.5629410000000  0.4708350000000 1.0
C      1  0.4965670000000  0.4648610000000  0.5580140000000 1.0
C      1  0.4998610000000  0.4562500000000  0.4991610000000 1.0
C      1  0.4396490000000  0.5040320000000  0.5244010000000 1.0
C      1  0.4840550000000  0.4769210000000  0.5128460000000 1.0
C      1  0.4667340000000  0.5251960000000  0.5437140000000 1.0
C      1  0.5084850000000  0.5160780000000  0.4939520000000 1.0
END
