TITL C-85612-1145-10 -0.0379261185984222 125000 -201.618517939749 0 0 31 (C1) n - 1
REM
REM in /rds/project/t2_vol4/rds-t2-cs072/BORA/CARBON/from-Arr/AIRSS/Generating-Clusters/GAP-ML-2020/Only-C1/SD-CG/HFTN-CG
REM
REM
REM
REM
REM
REM ./C.cell (11c1c37f851c82e70ff6c80c92926a4b)
REM AIRSS Version 0.9.1 bugfix July 2018 build 013d7b7c2542+ Fri, 06 Jul 2018 19:26:36 +0100
REM compiler GCC version 9.3.0
REM options -cpp -mtune=generic -march=x86-64 -g -O0
REM seed -1357856656 1238670972 -1401838185 -426882276 1907585137 -1551316406 734393726 1280569587 193353302 -2067285316 1644292825 669441788 994030750 -2129848479 -381715135 -2003766269 -2015331762 -626761199 -1411684972 -649224033 2031439331 586470659 966851895 -1410684001 1138845481 -238740377 -1127983081 -646426479 523266678 61432077 -1956103396 290202796 -1766302784
REM
CELL 1.54180   50.00000   50.00000   50.00000   90.00000   90.00000   90.00000
LATT -1
SFAC C  
C      1  0.5472150000000  0.4819010000000  0.4686440000000 1.0
C      1  0.5522300000000  0.5053550000000  0.4802250000000 1.0
C      1  0.5262270000000  0.5562040000000  0.5334990000000 1.0
C      1  0.5127680000000  0.5191330000000  0.4787730000000 1.0
C      1  0.4899380000000  0.5064810000000  0.5182090000000 1.0
C      1  0.5448510000000  0.5058730000000  0.5099940000000 1.0
C      1  0.5385830000000  0.5501510000000  0.4935540000000 1.0
C      1  0.4816470000000  0.5310550000000  0.5314190000000 1.0
C      1  0.5164910000000  0.5034370000000  0.5046500000000 1.0
C      1  0.4721430000000  0.4629190000000  0.4561990000000 1.0
C      1  0.4520820000000  0.5317340000000  0.5256550000000 1.0
C      1  0.5067540000000  0.4786400000000  0.4892180000000 1.0
C      1  0.4881080000000  0.4615920000000  0.5045120000000 1.0
C      1  0.4506970000000  0.5232490000000  0.4989550000000 1.0
C      1  0.4770810000000  0.4786230000000  0.5243530000000 1.0
C      1  0.5158110000000  0.5630990000000  0.5037000000000 1.0
C      1  0.5281270000000  0.4630720000000  0.4739550000000 1.0
C      1  0.5483270000000  0.5435790000000  0.5201940000000 1.0
C      1  0.4908200000000  0.4990360000000  0.4711980000000 1.0
C      1  0.4821130000000  0.4383040000000  0.4887960000000 1.0
C      1  0.4351660000000  0.5229310000000  0.5458420000000 1.0
C      1  0.4743640000000  0.5116260000000  0.4924700000000 1.0
C      1  0.5379340000000  0.5304600000000  0.4732690000000 1.0
C      1  0.5047590000000  0.4245150000000  0.4815260000000 1.0
C      1  0.4414690000000  0.4973180000000  0.5497300000000 1.0
C      1  0.5595850000000  0.5202940000000  0.5278650000000 1.0
C      1  0.4557040000000  0.4777300000000  0.5408070000000 1.0
C      1  0.5005880000000  0.5501760000000  0.5253180000000 1.0
C      1  0.5262890000000  0.4344590000000  0.4724940000000 1.0
C      1  0.4787530000000  0.4867500000000  0.4480300000000 1.0
C      1  0.4633750000000  0.4403030000000  0.4669450000000 1.0
END
