TITL C-85413-3323-9 -17.3431210171356 125000 -263.612561731206 0 0 40 (C1) n - 1
REM
REM in /rds/project/t2_vol4/rds-t2-cs072/BORA/CARBON/from-Arr/AIRSS/Generating-Clusters/GAP-ML-2020/Only-C1/SD-CG/HFTN-CG
REM
REM
REM
REM
REM
REM ./C.cell (11c1c37f851c82e70ff6c80c92926a4b)
REM AIRSS Version 0.9.1 bugfix July 2018 build 013d7b7c2542+ Fri, 06 Jul 2018 19:26:36 +0100
REM compiler GCC version 9.3.0
REM options -cpp -mtune=generic -march=x86-64 -g -O0
REM seed 1800737701 1937830028 131938592 -522076981 955822270 1876161407 734188398 634538683 -1276830129 1103285029 -720897023 -605087758 -1147905058 650004276 -1176950167 456081309 -649499347 -1793125826 1946842705 696750916 509801064 1421217141 811171224 2092290140 1160315590 626316309 -521393974 1981452666 397845875 1856881244 1188737633 1266196374 1523539232
REM
CELL 1.54180   50.00000   50.00000   50.00000   90.00000   90.00000   90.00000
LATT -1
SFAC C  
C      1  0.5278440000000  0.4523130000000  0.5246990000000 1.0
C      1  0.5446740000000  0.5042350000000  0.4560560000000 1.0
C      1  0.4413590000000  0.4962770000000  0.5351820000000 1.0
C      1  0.5071080000000  0.5471560000000  0.4786930000000 1.0
C      1  0.4932800000000  0.4858900000000  0.5516520000000 1.0
C      1  0.4981270000000  0.4480910000000  0.5237600000000 1.0
C      1  0.4451640000000  0.5208110000000  0.5378930000000 1.0
C      1  0.4838450000000  0.4652740000000  0.4530080000000 1.0
C      1  0.5178600000000  0.5291950000000  0.5573980000000 1.0
C      1  0.5269360000000  0.4918310000000  0.4957190000000 1.0
C      1  0.4409130000000  0.4744030000000  0.4700610000000 1.0
C      1  0.4555560000000  0.4754900000000  0.5220370000000 1.0
C      1  0.5068370000000  0.4780520000000  0.4416300000000 1.0
C      1  0.5508330000000  0.5059170000000  0.4837880000000 1.0
C      1  0.4526790000000  0.5016520000000  0.4334260000000 1.0
C      1  0.4794570000000  0.4666510000000  0.5359670000000 1.0
C      1  0.5404150000000  0.4565700000000  0.4699580000000 1.0
C      1  0.5275840000000  0.4995460000000  0.5245960000000 1.0
C      1  0.5633340000000  0.5207700000000  0.5031970000000 1.0
C      1  0.5001690000000  0.4529100000000  0.4965480000000 1.0
C      1  0.4870220000000  0.5272120000000  0.5203390000000 1.0
C      1  0.4571890000000  0.4776840000000  0.4473380000000 1.0
C      1  0.5328760000000  0.4764030000000  0.4526850000000 1.0
C      1  0.5402240000000  0.5381530000000  0.5485580000000 1.0
C      1  0.5237570000000  0.5229210000000  0.4499710000000 1.0
C      1  0.5483710000000  0.5217300000000  0.5264340000000 1.0
C      1  0.4845620000000  0.4724880000000  0.4823880000000 1.0
C      1  0.4659120000000  0.5917160000000  0.5460640000000 1.0
C      1  0.5005150000000  0.4994870000000  0.4810220000000 1.0
C      1  0.5287250000000  0.4605800000000  0.4951990000000 1.0
C      1  0.5021290000000  0.5107700000000  0.5387160000000 1.0
C      1  0.5198260000000  0.5495080000000  0.4560890000000 1.0
C      1  0.5321450000000  0.4743080000000  0.5419600000000 1.0
C      1  0.4651170000000  0.5406340000000  0.5325660000000 1.0
C      1  0.4949330000000  0.5270680000000  0.4937260000000 1.0
C      1  0.5168100000000  0.4759860000000  0.5646450000000 1.0
C      1  0.4564080000000  0.4732810000000  0.4925930000000 1.0
C      1  0.5000860000000  0.5057890000000  0.4506930000000 1.0
C      1  0.4732370000000  0.5138890000000  0.4444330000000 1.0
C      1  0.4661800000000  0.5673590000000  0.5393130000000 1.0
END
