TITL C-85605-1055-7 -831.35043143128 125000 -323.076156095662 0 0 48 (C1) n - 1
REM
REM in /rds/project/t2_vol4/rds-t2-cs072/BORA/CARBON/from-Arr/AIRSS/Generating-Clusters/GAP-ML-2020/Only-C1/SD-CG/HFTN-CG
REM
REM
REM
REM
REM
REM ./C.cell (11c1c37f851c82e70ff6c80c92926a4b)
REM AIRSS Version 0.9.1 bugfix July 2018 build 013d7b7c2542+ Fri, 06 Jul 2018 19:26:36 +0100
REM compiler GCC version 9.3.0
REM options -cpp -mtune=generic -march=x86-64 -g -O0
REM seed 2112089553 1378550895 -1779973060 -1640673225 -1660831574 1213673053 -162515860 1132271206 -1728597705 -836205485 -1940766692 -279962375 1874242730 565295291 -1165345155 404879125 2080018336 -150682493 2066272589 -316673335 -855393231 -277852272 -629664782 2123381754 55279196 417887354 -1877889363 1481684804 428205800 1605381589 2120406261 1774591642 1443704287
REM
CELL 1.54180   50.00000   50.00000   50.00000   90.00000   90.00000   90.00000
LATT -1
SFAC C  
C      1  0.5071350000000  0.4517580000000  0.5456130000000 1.0
C      1  0.4992980000000  0.5159500000000  0.5551840000000 1.0
C      1  0.5431750000000  0.5428740000000  0.4822400000000 1.0
C      1  0.4487150000000  0.5520280000000  0.5108770000000 1.0
C      1  0.4577550000000  0.5029510000000  0.5379460000000 1.0
C      1  0.4497910000000  0.4702400000000  0.4980010000000 1.0
C      1  0.5013230000000  0.5420580000000  0.4627090000000 1.0
C      1  0.5130610000000  0.4915990000000  0.4419110000000 1.0
C      1  0.4784860000000  0.4532930000000  0.4649570000000 1.0
C      1  0.5344460000000  0.4637450000000  0.5426400000000 1.0
C      1  0.4645180000000  0.5301410000000  0.5269510000000 1.0
C      1  0.5604190000000  0.4790690000000  0.4831920000000 1.0
C      1  0.5423550000000  0.5370190000000  0.5502840000000 1.0
C      1  0.4520020000000  0.4888100000000  0.4764050000000 1.0
C      1  0.5284240000000  0.5345730000000  0.4591750000000 1.0
C      1  0.4411150000000  0.5417750000000  0.4847420000000 1.0
C      1  0.4568940000000  0.5785040000000  0.5126610000000 1.0
C      1  0.4862680000000  0.4992210000000  0.4438540000000 1.0
C      1  0.4829670000000  0.4657330000000  0.5514860000000 1.0
C      1  0.4879220000000  0.5370560000000  0.5421670000000 1.0
C      1  0.5103830000000  0.4369890000000  0.5209870000000 1.0
C      1  0.5253350000000  0.5537120000000  0.5023020000000 1.0
C      1  0.4812910000000  0.5231760000000  0.5020850000000 1.0
C      1  0.4795590000000  0.5719920000000  0.5006880000000 1.0
C      1  0.5470230000000  0.4534910000000  0.4908090000000 1.0
C      1  0.4664130000000  0.4479800000000  0.4916670000000 1.0
C      1  0.5280650000000  0.4492050000000  0.4693600000000 1.0
C      1  0.4477330000000  0.4782490000000  0.5255240000000 1.0
C      1  0.5410370000000  0.5406400000000  0.5239160000000 1.0
C      1  0.4556270000000  0.5371100000000  0.4619160000000 1.0
C      1  0.4804920000000  0.5268730000000  0.4512220000000 1.0
C      1  0.4913180000000  0.4348900000000  0.5004860000000 1.0
C      1  0.5181190000000  0.4914640000000  0.4941760000000 1.0
C      1  0.4696940000000  0.4787830000000  0.4562290000000 1.0
C      1  0.5496910000000  0.4985850000000  0.4999720000000 1.0
C      1  0.5379720000000  0.4476060000000  0.5169710000000 1.0
C      1  0.4597630000000  0.4564020000000  0.5394090000000 1.0
C      1  0.5552350000000  0.5255930000000  0.5013070000000 1.0
C      1  0.5512540000000  0.4877220000000  0.4577250000000 1.0
C      1  0.4961430000000  0.5497820000000  0.4925560000000 1.0
C      1  0.4800250000000  0.4950730000000  0.5539140000000 1.0
C      1  0.4990900000000  0.5004630000000  0.5089930000000 1.0
C      1  0.5022690000000  0.4393040000000  0.4734180000000 1.0
C      1  0.5396530000000  0.4876010000000  0.5533240000000 1.0
C      1  0.5283980000000  0.5126700000000  0.5563440000000 1.0
C      1  0.5351140000000  0.5099520000000  0.4488180000000 1.0
C      1  0.4573360000000  0.5168090000000  0.4832820000000 1.0
C      1  0.5298960000000  0.4694890000000  0.4496060000000 1.0
END
