TITL C-85595-124-6 -57.8463814460706 125000 -379.843164241334 0 0 56 (C1) n - 1
REM
REM in /rds/project/t2_vol4/rds-t2-cs072/BORA/CARBON/from-Arr/AIRSS/Generating-Clusters/GAP-ML-2020/Only-C1/SD-CG/HFTN-CG
REM
REM
REM
REM
REM
REM ./C.cell (11c1c37f851c82e70ff6c80c92926a4b)
REM AIRSS Version 0.9.1 bugfix July 2018 build 013d7b7c2542+ Fri, 06 Jul 2018 19:26:36 +0100
REM compiler GCC version 9.3.0
REM options -cpp -mtune=generic -march=x86-64 -g -O0
REM seed 1943434344 779083683 232815956 -1242403374 1877689195 -505081967 -2064007409 996180186 -2102809781 384714441 89990960 648455556 253134177 -1612117054 1353709360 1385611399 -1238886096 -913787549 -1616861828 -1459557336 -1829606532 -709083999 847857903 -844204692 -1142352688 1183139066 742889643 234944781 -1043154333 -427147596 -1363540992 1650478068 -580777857
REM
CELL 1.54180   50.00000   50.00000   50.00000   90.00000   90.00000   90.00000
LATT -1
SFAC C  
C      1  0.4861320000000  0.4768280000000  0.5007040000000 1.0
C      1  0.4376970000000  0.5241410000000  0.5199420000000 1.0
C      1  0.5194670000000  0.4566170000000  0.4576470000000 1.0
C      1  0.5433250000000  0.4963830000000  0.4462890000000 1.0
C      1  0.5612330000000  0.5069120000000  0.4674940000000 1.0
C      1  0.4797300000000  0.5661790000000  0.5109250000000 1.0
C      1  0.4677720000000  0.5026610000000  0.4609500000000 1.0
C      1  0.5067380000000  0.5268890000000  0.4998370000000 1.0
C      1  0.5187590000000  0.5123120000000  0.4521710000000 1.0
C      1  0.4970480000000  0.4740990000000  0.5521570000000 1.0
C      1  0.4731590000000  0.4589200000000  0.5464860000000 1.0
C      1  0.5574720000000  0.4592570000000  0.5217420000000 1.0
C      1  0.4658190000000  0.5433160000000  0.5234130000000 1.0
C      1  0.4517880000000  0.5049410000000  0.5599630000000 1.0
C      1  0.4538610000000  0.4528150000000  0.4795370000000 1.0
C      1  0.4886490000000  0.5407900000000  0.4444550000000 1.0
C      1  0.4590920000000  0.5262250000000  0.4786640000000 1.0
C      1  0.4781240000000  0.5233930000000  0.5039980000000 1.0
C      1  0.4881160000000  0.4253530000000  0.4922990000000 1.0
C      1  0.5268850000000  0.4567050000000  0.4866210000000 1.0
C      1  0.5205950000000  0.4609290000000  0.5447380000000 1.0
C      1  0.4755940000000  0.4980190000000  0.5180950000000 1.0
C      1  0.5072460000000  0.5458950000000  0.5416940000000 1.0
C      1  0.5376700000000  0.4699740000000  0.4412960000000 1.0
C      1  0.5171140000000  0.5192280000000  0.5314700000000 1.0
C      1  0.4756650000000  0.4350860000000  0.4687890000000 1.0
C      1  0.4760210000000  0.5165720000000  0.5611330000000 1.0
C      1  0.4904670000000  0.4558750000000  0.4564710000000 1.0
C      1  0.5131860000000  0.4819330000000  0.4958620000000 1.0
C      1  0.5111160000000  0.4380910000000  0.5299630000000 1.0
C      1  0.5438000000000  0.4762580000000  0.5380340000000 1.0
C      1  0.4830580000000  0.4347620000000  0.5363330000000 1.0
C      1  0.4493830000000  0.4488170000000  0.5078290000000 1.0
C      1  0.5457630000000  0.5550560000000  0.4863460000000 1.0
C      1  0.5548930000000  0.4627820000000  0.4949250000000 1.0
C      1  0.5173730000000  0.5414760000000  0.4471740000000 1.0
C      1  0.5585760000000  0.5303980000000  0.4872110000000 1.0
C      1  0.4834620000000  0.5692330000000  0.4829490000000 1.0
C      1  0.4500530000000  0.4678790000000  0.5304090000000 1.0
C      1  0.4341170000000  0.5278770000000  0.4937750000000 1.0
C      1  0.5174980000000  0.5072140000000  0.4835240000000 1.0
C      1  0.5611070000000  0.5102170000000  0.5088370000000 1.0
C      1  0.5652090000000  0.4886160000000  0.4896520000000 1.0
C      1  0.4885380000000  0.5116980000000  0.4438830000000 1.0
C      1  0.4943370000000  0.5009940000000  0.5423460000000 1.0
C      1  0.5132710000000  0.4349930000000  0.5017840000000 1.0
C      1  0.5265210000000  0.5717350000000  0.5025530000000 1.0
C      1  0.4686080000000  0.4280880000000  0.5134360000000 1.0
C      1  0.5065310000000  0.5670030000000  0.5226040000000 1.0
C      1  0.5280210000000  0.5611510000000  0.4629890000000 1.0
C      1  0.4798400000000  0.5413680000000  0.5490910000000 1.0
C      1  0.5102620000000  0.5769670000000  0.4784540000000 1.0
C      1  0.4715180000000  0.4762620000000  0.4723610000000 1.0
C      1  0.4470600000000  0.4975100000000  0.5325370000000 1.0
C      1  0.5437250000000  0.5049950000000  0.5308880000000 1.0
C      1  0.4719380000000  0.5503120000000  0.4652710000000 1.0
END
