TITL C-85411-1298-2 207.066918625817 125000 -598.728255110185 0 0 86 (C1) n - 1
REM
REM in /rds/project/t2_vol4/rds-t2-cs072/BORA/CARBON/from-Arr/AIRSS/Generating-Clusters/GAP-ML-2020/Only-C1/SD-CG/HFTN-CG
REM
REM
REM
REM
REM
REM ./C.cell (11c1c37f851c82e70ff6c80c92926a4b)
REM AIRSS Version 0.9.1 bugfix July 2018 build 013d7b7c2542+ Fri, 06 Jul 2018 19:26:36 +0100
REM compiler GCC version 9.3.0
REM options -cpp -mtune=generic -march=x86-64 -g -O0
REM seed 553477223 646709591 -1476613468 -647887203 320709257 1331455405 -10526074 -780539159 -297172461 -1167852437 145599461 1841545713 -1838720914 -1838155735 436005236 783695856 1977319350 -1754984809 -2116419822 1352213455 -794585484 883697691 -163486690 1826573906 1696322575 2115414067 -19301639 681354184 -1486831531 1646238043 -56044059 -562048841 -1857599222
REM
CELL 1.54180   50.00000   50.00000   50.00000   90.00000   90.00000   90.00000
LATT -1
SFAC C  
C      1  0.5539600000000  0.4803230000000  0.5700710000000 1.0
C      1  0.4047960000000  0.5072340000000  0.4741200000000 1.0
C      1  0.4256770000000  0.4894450000000  0.4887940000000 1.0
C      1  0.5635400000000  0.4588790000000  0.4735210000000 1.0
C      1  0.5021210000000  0.4800410000000  0.5276030000000 1.0
C      1  0.5374500000000  0.4767660000000  0.4373960000000 1.0
C      1  0.4108460000000  0.4952930000000  0.5146740000000 1.0
C      1  0.4426990000000  0.5121240000000  0.5479140000000 1.0
C      1  0.4744670000000  0.5484130000000  0.5391830000000 1.0
C      1  0.4109730000000  0.5414620000000  0.5033850000000 1.0
C      1  0.4628210000000  0.4980030000000  0.5645810000000 1.0
C      1  0.5029670000000  0.4873710000000  0.4836750000000 1.0
C      1  0.5360580000000  0.4584110000000  0.5751890000000 1.0
C      1  0.4508470000000  0.4735490000000  0.4501820000000 1.0
C      1  0.5139380000000  0.5757460000000  0.5242900000000 1.0
C      1  0.5192530000000  0.4540290000000  0.4417760000000 1.0
C      1  0.5602160000000  0.5629110000000  0.5110250000000 1.0
C      1  0.4472020000000  0.5107670000000  0.4864930000000 1.0
C      1  0.4805550000000  0.4987090000000  0.5205370000000 1.0
C      1  0.4866630000000  0.4759440000000  0.4101800000000 1.0
C      1  0.4399490000000  0.5370340000000  0.5041470000000 1.0
C      1  0.4932460000000  0.4576300000000  0.4297080000000 1.0
C      1  0.5393300000000  0.5658900000000  0.5291370000000 1.0
C      1  0.5306950000000  0.5244720000000  0.4998150000000 1.0
C      1  0.5133630000000  0.4986650000000  0.5729010000000 1.0
C      1  0.5201860000000  0.5222990000000  0.5284540000000 1.0
C      1  0.4807600000000  0.5000150000000  0.4231790000000 1.0
C      1  0.5038130000000  0.5176370000000  0.4247740000000 1.0
C      1  0.5738490000000  0.5034950000000  0.4660770000000 1.0
C      1  0.3970230000000  0.5181110000000  0.5000860000000 1.0
C      1  0.4515190000000  0.4454320000000  0.4871530000000 1.0
C      1  0.4765640000000  0.5756200000000  0.4950070000000 1.0
C      1  0.5277290000000  0.5552680000000  0.4466870000000 1.0
C      1  0.4454910000000  0.5212300000000  0.4564990000000 1.0
C      1  0.5011680000000  0.4234780000000  0.5324770000000 1.0
C      1  0.5777560000000  0.5174680000000  0.5114820000000 1.0
C      1  0.5670650000000  0.5311590000000  0.4667440000000 1.0
C      1  0.4591280000000  0.5475160000000  0.4600980000000 1.0
C      1  0.4375750000000  0.4671170000000  0.4749500000000 1.0
C      1  0.4610010000000  0.4474170000000  0.5412560000000 1.0
C      1  0.4613310000000  0.4385170000000  0.5133060000000 1.0
C      1  0.5377020000000  0.4371380000000  0.5587830000000 1.0
C      1  0.5424300000000  0.5065150000000  0.5769400000000 1.0
C      1  0.4640930000000  0.4693990000000  0.5619260000000 1.0
C      1  0.5633180000000  0.5387920000000  0.4964200000000 1.0
C      1  0.5035280000000  0.5450690000000  0.4349610000000 1.0
C      1  0.4850460000000  0.4350700000000  0.5525930000000 1.0
C      1  0.4701670000000  0.4528230000000  0.4452790000000 1.0
C      1  0.5598200000000  0.4644110000000  0.5194100000000 1.0
C      1  0.5355630000000  0.5415340000000  0.5451100000000 1.0
C      1  0.4714960000000  0.4367100000000  0.4679660000000 1.0
C      1  0.5298380000000  0.5027760000000  0.4255200000000 1.0
C      1  0.4858400000000  0.5330150000000  0.4944050000000 1.0
C      1  0.5259840000000  0.5024930000000  0.4828240000000 1.0
C      1  0.4484180000000  0.5362900000000  0.5327170000000 1.0
C      1  0.5546500000000  0.4846290000000  0.5403630000000 1.0
C      1  0.5829080000000  0.4969300000000  0.4925190000000 1.0
C      1  0.5507330000000  0.5201680000000  0.4256150000000 1.0
C      1  0.4921330000000  0.5769590000000  0.4703350000000 1.0
C      1  0.4874800000000  0.5725150000000  0.5220110000000 1.0
C      1  0.4955590000000  0.4273940000000  0.4792930000000 1.0
C      1  0.5118680000000  0.5417180000000  0.4867450000000 1.0
C      1  0.5609910000000  0.4793690000000  0.4537880000000 1.0
C      1  0.5183330000000  0.5661700000000  0.4719880000000 1.0
C      1  0.5104670000000  0.4675460000000  0.5043950000000 1.0
C      1  0.5546720000000  0.5256370000000  0.5582250000000 1.0
C      1  0.4604150000000  0.5525500000000  0.4886640000000 1.0
C      1  0.4820310000000  0.5591370000000  0.4494390000000 1.0
C      1  0.5685660000000  0.5106260000000  0.5371470000000 1.0
C      1  0.4564360000000  0.4989700000000  0.4394880000000 1.0
C      1  0.5372430000000  0.4482200000000  0.5103040000000 1.0
C      1  0.5517260000000  0.5401230000000  0.4446040000000 1.0
C      1  0.5106560000000  0.4700100000000  0.5803210000000 1.0
C      1  0.5225790000000  0.4948410000000  0.5404990000000 1.0
C      1  0.4213160000000  0.4977670000000  0.5385310000000 1.0
C      1  0.4776640000000  0.5037770000000  0.4916320000000 1.0
C      1  0.5752870000000  0.4706430000000  0.4970780000000 1.0
C      1  0.5283060000000  0.4317060000000  0.5338840000000 1.0
C      1  0.4160820000000  0.5217820000000  0.4547510000000 1.0
C      1  0.4880260000000  0.4566530000000  0.5717780000000 1.0
C      1  0.4871540000000  0.5129980000000  0.5719810000000 1.0
C      1  0.4864300000000  0.5381750000000  0.5627630000000 1.0
C      1  0.5429230000000  0.4413960000000  0.4815280000000 1.0
C      1  0.4874850000000  0.4251790000000  0.5076370000000 1.0
C      1  0.5201060000000  0.4368900000000  0.4652550000000 1.0
C      1  0.4909400000000  0.5265940000000  0.5240600000000 1.0
END
