TITL C-85438-3165-4 0.0839750095218357 125000 -248.480339284836 0 0 38 (C1) n - 1
REM
REM in /rds/project/t2_vol4/rds-t2-cs072/BORA/CARBON/from-Arr/AIRSS/Generating-Clusters/GAP-ML-2020/Only-C1/SD-CG/HFTN-CG
REM
REM
REM
REM
REM
REM ./C.cell (11c1c37f851c82e70ff6c80c92926a4b)
REM AIRSS Version 0.9.1 bugfix July 2018 build 013d7b7c2542+ Fri, 06 Jul 2018 19:26:36 +0100
REM compiler GCC version 9.3.0
REM options -cpp -mtune=generic -march=x86-64 -g -O0
REM seed -1019133184 -1771223338 -1561964463 -1864786230 336940188 -511955119 535108309 -559623446 -30304808 -1460936418 84294263 -264378134 748843953 -508731163 -540686390 -1812425372 -859433694 -87247795 -1709891911 -1648341482 -518736869 1751398551 -1025401850 -2143907145 811486848 -308346139 -240384855 -1251392359 2014528401 -2057542234 -1467804635 -1144107628 837840535
REM
CELL 1.54180   50.00000   50.00000   50.00000   90.00000   90.00000   90.00000
LATT -1
SFAC C  
C      1  0.4487960000000  0.5160540000000  0.4931720000000 1.0
C      1  0.5121990000000  0.5143600000000  0.5305280000000 1.0
C      1  0.4886190000000  0.5176000000000  0.5140390000000 1.0
C      1  0.4902420000000  0.4297420000000  0.4819300000000 1.0
C      1  0.5100570000000  0.4675160000000  0.5499360000000 1.0
C      1  0.4805580000000  0.4750760000000  0.4924850000000 1.0
C      1  0.5055950000000  0.5626390000000  0.5256700000000 1.0
C      1  0.4679250000000  0.4977040000000  0.5088400000000 1.0
C      1  0.4432830000000  0.5368340000000  0.5091210000000 1.0
C      1  0.5223490000000  0.5366160000000  0.4593980000000 1.0
C      1  0.5404870000000  0.4502490000000  0.4647740000000 1.0
C      1  0.5032290000000  0.4651470000000  0.4536360000000 1.0
C      1  0.4805510000000  0.5549840000000  0.5142430000000 1.0
C      1  0.5029190000000  0.5185490000000  0.4455410000000 1.0
C      1  0.4633120000000  0.4613270000000  0.5427620000000 1.0
C      1  0.5577490000000  0.5241100000000  0.5165790000000 1.0
C      1  0.4776810000000  0.4441140000000  0.5255950000000 1.0
C      1  0.4845160000000  0.4822540000000  0.4643940000000 1.0
C      1  0.4532420000000  0.5585420000000  0.5189780000000 1.0
C      1  0.5247210000000  0.5262680000000  0.4335530000000 1.0
C      1  0.4684740000000  0.5253580000000  0.4739670000000 1.0
C      1  0.5038250000000  0.4941260000000  0.5510240000000 1.0
C      1  0.5384270000000  0.5047430000000  0.5134920000000 1.0
C      1  0.5457420000000  0.5478940000000  0.5228100000000 1.0
C      1  0.5214380000000  0.5432380000000  0.5395040000000 1.0
C      1  0.5541010000000  0.4654570000000  0.4826960000000 1.0
C      1  0.5109810000000  0.4467200000000  0.4763710000000 1.0
C      1  0.4774660000000  0.4828700000000  0.5561720000000 1.0
C      1  0.5267550000000  0.5615800000000  0.5046190000000 1.0
C      1  0.5285140000000  0.4667940000000  0.4435690000000 1.0
C      1  0.5373050000000  0.4797720000000  0.4993410000000 1.0
C      1  0.4581330000000  0.4871830000000  0.5350430000000 1.0
C      1  0.5144270000000  0.5468790000000  0.4836640000000 1.0
C      1  0.5106250000000  0.4655940000000  0.5007980000000 1.0
C      1  0.4798010000000  0.5078890000000  0.4555300000000 1.0
C      1  0.4722040000000  0.4444100000000  0.4973990000000 1.0
C      1  0.4887840000000  0.5371740000000  0.4918980000000 1.0
C      1  0.5049630000000  0.4526330000000  0.5269300000000 1.0
END
