TITL C-85426-1190-2 20.7207510991896 125000 -806.653300499346 0 0 115 (C1) n - 1
REM
REM in /rds/project/t2_vol4/rds-t2-cs072/BORA/CARBON/from-Arr/AIRSS/Generating-Clusters/GAP-ML-2020/Only-C1/SD-CG/HFTN-CG
REM
REM
REM
REM
REM
REM ./C.cell (11c1c37f851c82e70ff6c80c92926a4b)
REM AIRSS Version 0.9.1 bugfix July 2018 build 013d7b7c2542+ Fri, 06 Jul 2018 19:26:36 +0100
REM compiler GCC version 9.3.0
REM options -cpp -mtune=generic -march=x86-64 -g -O0
REM seed -945844708 -1027930780 -845564704 863622848 -1647475500 684825690 -1170673650 -816335976 1627603545 734342888 -7628137 -2096042070 847537415 -1583180076 -2023417357 -1229336010 -1114946890 1708950010 1466048466 682312883 174579029 -655429623 234542261 -323288163 870814863 -844615426 -40161048 1250936647 1498835927 -1861548654 516984046 110897484 -810922945
REM
CELL 1.54180   50.00000   50.00000   50.00000   90.00000   90.00000   90.00000
LATT -1
SFAC C  
C      1  0.5654630000000  0.5509080000000  0.5023080000000 1.0
C      1  0.4762830000000  0.5831330000000  0.4915010000000 1.0
C      1  0.4423860000000  0.4524150000000  0.5125600000000 1.0
C      1  0.5812140000000  0.4733480000000  0.4808670000000 1.0
C      1  0.5516960000000  0.4383390000000  0.5480270000000 1.0
C      1  0.4096620000000  0.4838000000000  0.5241150000000 1.0
C      1  0.5688990000000  0.5330200000000  0.4530150000000 1.0
C      1  0.5285310000000  0.5349770000000  0.4316580000000 1.0
C      1  0.5537970000000  0.4832150000000  0.5694050000000 1.0
C      1  0.5381650000000  0.5704740000000  0.4652640000000 1.0
C      1  0.5236940000000  0.4328370000000  0.4464020000000 1.0
C      1  0.4712910000000  0.4790570000000  0.4770810000000 1.0
C      1  0.4664420000000  0.5843480000000  0.4620120000000 1.0
C      1  0.4891290000000  0.4989240000000  0.5429830000000 1.0
C      1  0.5625680000000  0.4820430000000  0.4360930000000 1.0
C      1  0.5173520000000  0.4806150000000  0.4553340000000 1.0
C      1  0.4483540000000  0.4459810000000  0.4505000000000 1.0
C      1  0.5791880000000  0.4704680000000  0.5270870000000 1.0
C      1  0.5041000000000  0.5908360000000  0.4886030000000 1.0
C      1  0.4893880000000  0.5780230000000  0.4470610000000 1.0
C      1  0.5109960000000  0.4187640000000  0.5476110000000 1.0
C      1  0.4388300000000  0.5531630000000  0.4764650000000 1.0
C      1  0.4508400000000  0.5020210000000  0.4756670000000 1.0
C      1  0.4699570000000  0.5518150000000  0.4840310000000 1.0
C      1  0.5785760000000  0.4554170000000  0.5027970000000 1.0
C      1  0.4885790000000  0.4799900000000  0.4534240000000 1.0
C      1  0.4538640000000  0.5133600000000  0.5062520000000 1.0
C      1  0.4744320000000  0.4536950000000  0.4356920000000 1.0
C      1  0.4497820000000  0.4308370000000  0.4733550000000 1.0
C      1  0.5840140000000  0.4976790000000  0.5198240000000 1.0
C      1  0.5711390000000  0.5282620000000  0.4820430000000 1.0
C      1  0.4014140000000  0.5093320000000  0.5171870000000 1.0
C      1  0.5221240000000  0.4128580000000  0.5218370000000 1.0
C      1  0.5034590000000  0.4142330000000  0.4951200000000 1.0
C      1  0.4443700000000  0.5648480000000  0.4522050000000 1.0
C      1  0.5325180000000  0.4838610000000  0.4283300000000 1.0
C      1  0.5142670000000  0.4551510000000  0.5774080000000 1.0
C      1  0.5113040000000  0.4784220000000  0.5336730000000 1.0
C      1  0.5645120000000  0.4633430000000  0.5507870000000 1.0
C      1  0.5206320000000  0.5297870000000  0.5821680000000 1.0
C      1  0.5481110000000  0.5311050000000  0.5728050000000 1.0
C      1  0.4517090000000  0.5573040000000  0.5294240000000 1.0
C      1  0.4465260000000  0.4222810000000  0.5171820000000 1.0
C      1  0.4539550000000  0.4092010000000  0.4910590000000 1.0
C      1  0.4878390000000  0.4863450000000  0.4105370000000 1.0
C      1  0.4824200000000  0.5538600000000  0.4319650000000 1.0
C      1  0.5219480000000  0.5481280000000  0.4776730000000 1.0
C      1  0.4267210000000  0.4854070000000  0.5466420000000 1.0
C      1  0.4239820000000  0.4881730000000  0.4778610000000 1.0
C      1  0.5519810000000  0.5522470000000  0.5536590000000 1.0
C      1  0.4300570000000  0.5122830000000  0.5559650000000 1.0
C      1  0.5828010000000  0.5010080000000  0.4915030000000 1.0
C      1  0.5702870000000  0.4633450000000  0.4551710000000 1.0
C      1  0.5165610000000  0.5853310000000  0.5361860000000 1.0
C      1  0.4085230000000  0.5146380000000  0.4905330000000 1.0
C      1  0.5307310000000  0.4813370000000  0.4797020000000 1.0
C      1  0.4686890000000  0.4714000000000  0.5660200000000 1.0
C      1  0.5232180000000  0.4184140000000  0.4720710000000 1.0
C      1  0.5115220000000  0.4690780000000  0.4133790000000 1.0
C      1  0.4603310000000  0.5484350000000  0.5576160000000 1.0
C      1  0.5665190000000  0.5099720000000  0.4358610000000 1.0
C      1  0.4862720000000  0.4504810000000  0.5711420000000 1.0
C      1  0.4204130000000  0.4694700000000  0.5022580000000 1.0
C      1  0.5277660000000  0.5010200000000  0.5247910000000 1.0
C      1  0.4856490000000  0.4872680000000  0.4998190000000 1.0
C      1  0.5259010000000  0.4811500000000  0.5812210000000 1.0
C      1  0.4515850000000  0.4718560000000  0.5393580000000 1.0
C      1  0.5126370000000  0.5840040000000  0.4625930000000 1.0
C      1  0.4844760000000  0.4269880000000  0.5543680000000 1.0
C      1  0.4954320000000  0.5353380000000  0.4699960000000 1.0
C      1  0.4634120000000  0.4724280000000  0.4155790000000 1.0
C      1  0.4554560000000  0.5444610000000  0.4351980000000 1.0
C      1  0.5286730000000  0.5685820000000  0.5559050000000 1.0
C      1  0.5504670000000  0.5749100000000  0.4928900000000 1.0
C      1  0.4633440000000  0.4513110000000  0.4901070000000 1.0
C      1  0.4195040000000  0.5416630000000  0.4925030000000 1.0
C      1  0.4997960000000  0.5143090000000  0.4917980000000 1.0
C      1  0.4140680000000  0.5276470000000  0.5367500000000 1.0
C      1  0.4714240000000  0.4253000000000  0.5299420000000 1.0
C      1  0.4678420000000  0.5814720000000  0.5208060000000 1.0
C      1  0.5284220000000  0.4346590000000  0.5632190000000 1.0
C      1  0.5160790000000  0.5548360000000  0.5044960000000 1.0
C      1  0.5481920000000  0.5516330000000  0.4450040000000 1.0
C      1  0.5644440000000  0.4304550000000  0.5007110000000 1.0
C      1  0.4431530000000  0.4884210000000  0.4305290000000 1.0
C      1  0.5487090000000  0.4235050000000  0.5233760000000 1.0
C      1  0.5405880000000  0.5117540000000  0.4229880000000 1.0
C      1  0.4787230000000  0.3969820000000  0.4908150000000 1.0
C      1  0.5529520000000  0.4399750000000  0.4532310000000 1.0
C      1  0.4242800000000  0.5486110000000  0.5214500000000 1.0
C      1  0.5637650000000  0.5092830000000  0.5643040000000 1.0
C      1  0.5033230000000  0.4641820000000  0.5102940000000 1.0
C      1  0.5035630000000  0.4447980000000  0.4285420000000 1.0
C      1  0.4880820000000  0.5831430000000  0.5406420000000 1.0
C      1  0.5085620000000  0.5198800000000  0.5356760000000 1.0
C      1  0.5413770000000  0.5278000000000  0.4849980000000 1.0
C      1  0.4556990000000  0.5133090000000  0.4417270000000 1.0
C      1  0.5281620000000  0.5052180000000  0.4952780000000 1.0
C      1  0.5093950000000  0.5551570000000  0.5725730000000 1.0
C      1  0.5248330000000  0.5832460000000  0.5079810000000 1.0
C      1  0.4317340000000  0.4724260000000  0.4507100000000 1.0
C      1  0.5079240000000  0.5038810000000  0.5843660000000 1.0
C      1  0.5514890000000  0.4237700000000  0.4766370000000 1.0
C      1  0.4994310000000  0.5314750000000  0.4388800000000 1.0
C      1  0.4865440000000  0.4396090000000  0.5060530000000 1.0
C      1  0.4678030000000  0.4938440000000  0.5228290000000 1.0
C      1  0.4836220000000  0.5637190000000  0.5625640000000 1.0
C      1  0.4974080000000  0.5346570000000  0.5143850000000 1.0
C      1  0.4681730000000  0.5388840000000  0.5099330000000 1.0
C      1  0.5772960000000  0.5174000000000  0.5389800000000 1.0
C      1  0.5684440000000  0.5435370000000  0.5307550000000 1.0
C      1  0.4553260000000  0.5214120000000  0.5666700000000 1.0
C      1  0.4844860000000  0.5054340000000  0.4341600000000 1.0
C      1  0.4784470000000  0.4995680000000  0.5707150000000 1.0
C      1  0.5278120000000  0.4609850000000  0.4969370000000 1.0
END
