TITL C-85414-1962-3 93.0356411974684 125000 -752.404325578241 0 0 106 (C1) n - 1
REM
REM in /rds/project/t2_vol4/rds-t2-cs072/BORA/CARBON/from-Arr/AIRSS/Generating-Clusters/GAP-ML-2020/Only-C1/SD-CG/HFTN-CG
REM
REM
REM
REM
REM
REM ./C.cell (11c1c37f851c82e70ff6c80c92926a4b)
REM AIRSS Version 0.9.1 bugfix July 2018 build 013d7b7c2542+ Fri, 06 Jul 2018 19:26:36 +0100
REM compiler GCC version 9.3.0
REM options -cpp -mtune=generic -march=x86-64 -g -O0
REM seed -2082940573 108951839 901879381 199441904 782102872 -1008761545 -964972661 -1392828676 -1740241089 -920874924 807302374 405740563 838746069 -1939739710 -1301029363 412665119 -672150729 1089425343 913537797 1028904190 -1918256966 -1569139603 2053514156 -111524330 -27649339 811391548 1981911317 485606056 1653182107 1644074632 2049385868 -1688326803 -1523982594
REM
CELL 1.54180   50.00000   50.00000   50.00000   90.00000   90.00000   90.00000
LATT -1
SFAC C  
C      1  0.5495030000000  0.5497850000000  0.5199350000000 1.0
C      1  0.4580270000000  0.5710970000000  0.4630860000000 1.0
C      1  0.5372170000000  0.4858030000000  0.5912870000000 1.0
C      1  0.5665200000000  0.5223250000000  0.4611710000000 1.0
C      1  0.5221470000000  0.3985800000000  0.5078100000000 1.0
C      1  0.5240620000000  0.5929770000000  0.5003210000000 1.0
C      1  0.5810180000000  0.5318680000000  0.4855990000000 1.0
C      1  0.5291400000000  0.4886350000000  0.4106440000000 1.0
C      1  0.5079670000000  0.5367930000000  0.4228370000000 1.0
C      1  0.5115440000000  0.4830070000000  0.5303680000000 1.0
C      1  0.5187830000000  0.4152140000000  0.4632290000000 1.0
C      1  0.4359480000000  0.4621620000000  0.4708190000000 1.0
C      1  0.4295950000000  0.4506240000000  0.5186630000000 1.0
C      1  0.4840920000000  0.5688170000000  0.4496940000000 1.0
C      1  0.4650500000000  0.4831620000000  0.5132270000000 1.0
C      1  0.5529250000000  0.5470710000000  0.4518300000000 1.0
C      1  0.5085550000000  0.5100170000000  0.4120510000000 1.0
C      1  0.4758130000000  0.4970810000000  0.5787800000000 1.0
C      1  0.5062920000000  0.4047690000000  0.4862320000000 1.0
C      1  0.5425970000000  0.5325470000000  0.5815640000000 1.0
C      1  0.5548590000000  0.5674260000000  0.4729320000000 1.0
C      1  0.5561200000000  0.4633100000000  0.4991980000000 1.0
C      1  0.4054160000000  0.4851230000000  0.4960690000000 1.0
C      1  0.4683930000000  0.4159790000000  0.5124600000000 1.0
C      1  0.4961480000000  0.5170390000000  0.5854740000000 1.0
C      1  0.4822440000000  0.4204520000000  0.5392840000000 1.0
C      1  0.4105770000000  0.5196160000000  0.4606830000000 1.0
C      1  0.5551430000000  0.4948040000000  0.4596670000000 1.0
C      1  0.4450660000000  0.4706620000000  0.5334600000000 1.0
C      1  0.4487040000000  0.4650620000000  0.4311510000000 1.0
C      1  0.4527790000000  0.4439950000000  0.4514280000000 1.0
C      1  0.4171150000000  0.4600610000000  0.4946680000000 1.0
C      1  0.4877660000000  0.5419510000000  0.5738300000000 1.0
C      1  0.5268520000000  0.5506440000000  0.4400870000000 1.0
C      1  0.5044610000000  0.4315950000000  0.5520210000000 1.0
C      1  0.5958620000000  0.5204540000000  0.5064540000000 1.0
C      1  0.5243340000000  0.5119290000000  0.5900260000000 1.0
C      1  0.4603610000000  0.4880860000000  0.4180820000000 1.0
C      1  0.4405500000000  0.5555570000000  0.4462870000000 1.0
C      1  0.4767320000000  0.4680160000000  0.5747370000000 1.0
C      1  0.5005890000000  0.5582020000000  0.5296490000000 1.0
C      1  0.5134770000000  0.5512200000000  0.4859510000000 1.0
C      1  0.5377390000000  0.4207440000000  0.5145630000000 1.0
C      1  0.4583770000000  0.4821120000000  0.4828740000000 1.0
C      1  0.5496160000000  0.4362180000000  0.4926660000000 1.0
C      1  0.4623260000000  0.5391970000000  0.5600440000000 1.0
C      1  0.4876360000000  0.4890090000000  0.4116680000000 1.0
C      1  0.5241160000000  0.5636060000000  0.5118340000000 1.0
C      1  0.5542240000000  0.4761890000000  0.4379150000000 1.0
C      1  0.4997310000000  0.4268720000000  0.4458410000000 1.0
C      1  0.5012890000000  0.4516100000000  0.5731150000000 1.0
C      1  0.5310500000000  0.4358150000000  0.5398040000000 1.0
C      1  0.5473750000000  0.4472970000000  0.5628440000000 1.0
C      1  0.5559370000000  0.4842380000000  0.4101310000000 1.0
C      1  0.5068600000000  0.4730820000000  0.4849600000000 1.0
C      1  0.5148530000000  0.5109250000000  0.5309530000000 1.0
C      1  0.5328580000000  0.5553380000000  0.5662110000000 1.0
C      1  0.5056600000000  0.5247300000000  0.4892270000000 1.0
C      1  0.5339570000000  0.4645860000000  0.5304900000000 1.0
C      1  0.4641180000000  0.5142700000000  0.5137840000000 1.0
C      1  0.4819590000000  0.5492810000000  0.4284650000000 1.0
C      1  0.4862380000000  0.5128210000000  0.4712120000000 1.0
C      1  0.5974860000000  0.5152910000000  0.5312710000000 1.0
C      1  0.4928920000000  0.5273410000000  0.5185550000000 1.0
C      1  0.4491110000000  0.5515930000000  0.5375080000000 1.0
C      1  0.5284190000000  0.4596110000000  0.5807100000000 1.0
C      1  0.5670060000000  0.5324410000000  0.5649870000000 1.0
C      1  0.4070380000000  0.5106700000000  0.4884220000000 1.0
C      1  0.4939870000000  0.4729150000000  0.5116130000000 1.0
C      1  0.5313980000000  0.5108950000000  0.4945610000000 1.0
C      1  0.4582730000000  0.5121530000000  0.5632030000000 1.0
C      1  0.5846240000000  0.5117090000000  0.5561450000000 1.0
C      1  0.5699830000000  0.4634730000000  0.5527720000000 1.0
C      1  0.5007030000000  0.6015420000000  0.5108560000000 1.0
C      1  0.4788200000000  0.4137290000000  0.4859960000000 1.0
C      1  0.4439830000000  0.4272850000000  0.5238800000000 1.0
C      1  0.5625410000000  0.4697400000000  0.5258910000000 1.0
C      1  0.5555440000000  0.5539510000000  0.5485010000000 1.0
C      1  0.4452230000000  0.5120590000000  0.4252030000000 1.0
C      1  0.4836400000000  0.5817340000000  0.5206930000000 1.0
C      1  0.5122180000000  0.5682360000000  0.4595260000000 1.0
C      1  0.5075770000000  0.4683480000000  0.4140410000000 1.0
C      1  0.5400730000000  0.4507320000000  0.4440550000000 1.0
C      1  0.4189070000000  0.5464240000000  0.4613390000000 1.0
C      1  0.5652540000000  0.4874450000000  0.5929120000000 1.0
C      1  0.4173450000000  0.5327050000000  0.5052870000000 1.0
C      1  0.5669660000000  0.5549650000000  0.4952600000000 1.0
C      1  0.4567790000000  0.5726850000000  0.5174550000000 1.0
C      1  0.4232180000000  0.5034670000000  0.4413700000000 1.0
C      1  0.4870010000000  0.4843420000000  0.4691330000000 1.0
C      1  0.4456250000000  0.5710420000000  0.4905410000000 1.0
C      1  0.5148100000000  0.4470010000000  0.4308930000000 1.0
C      1  0.5062230000000  0.5576650000000  0.5594400000000 1.0
C      1  0.4220270000000  0.5551140000000  0.4884560000000 1.0
C      1  0.5418300000000  0.4315940000000  0.4656250000000 1.0
C      1  0.4576670000000  0.4312990000000  0.5496260000000 1.0
C      1  0.5383710000000  0.4847480000000  0.4833170000000 1.0
C      1  0.4384530000000  0.5284700000000  0.5245890000000 1.0
C      1  0.4606380000000  0.5126010000000  0.4835300000000 1.0
C      1  0.4736910000000  0.4263980000000  0.4590410000000 1.0
C      1  0.4563460000000  0.4578880000000  0.5574870000000 1.0
C      1  0.4265160000000  0.4760320000000  0.4459490000000 1.0
C      1  0.5329960000000  0.5867700000000  0.4733300000000 1.0
C      1  0.4546790000000  0.5393550000000  0.4274330000000 1.0
C      1  0.5399530000000  0.5192650000000  0.5197340000000 1.0
C      1  0.5779100000000  0.4858210000000  0.5685150000000 1.0
END
