TITL C-85409-893-4 -0.0479536847449291 125000 -139.192328879169 0 0 22 (C1) n - 1
REM
REM in /rds/project/t2_vol4/rds-t2-cs072/BORA/CARBON/from-Arr/AIRSS/Generating-Clusters/GAP-ML-2020/Only-C1/SD-CG/HFTN-CG
REM
REM
REM
REM
REM
REM ./C.cell (11c1c37f851c82e70ff6c80c92926a4b)
REM AIRSS Version 0.9.1 bugfix July 2018 build 013d7b7c2542+ Fri, 06 Jul 2018 19:26:36 +0100
REM compiler GCC version 9.3.0
REM options -cpp -mtune=generic -march=x86-64 -g -O0
REM seed 1665830162 2118398720 242952286 951655695 602893058 -200764993 63895271 -1865418479 -76667692 -438155649 -30918345 1545178999 1579284040 1646441354 1556331495 -2100086010 -625271121 -1242841846 -62699680 1303139485 639149559 -499980027 -536415553 -1176102896 -60785745 -888690252 1454042030 695224297 -1551161035 -267125987 1153341347 506650407 1179652149
REM
CELL 1.54180   50.00000   50.00000   50.00000   90.00000   90.00000   90.00000
LATT -1
SFAC C  
C      1  0.4984490000000  0.4896610000000  0.4652480000000 1.0
C      1  0.5266000000000  0.5582150000000  0.5114570000000 1.0
C      1  0.5258400000000  0.4858580000000  0.4608460000000 1.0
C      1  0.4921020000000  0.4960860000000  0.4918300000000 1.0
C      1  0.4410610000000  0.5152980000000  0.5005470000000 1.0
C      1  0.4607730000000  0.5292350000000  0.4829630000000 1.0
C      1  0.5083120000000  0.4883880000000  0.5503810000000 1.0
C      1  0.4567720000000  0.5073170000000  0.4630220000000 1.0
C      1  0.5073910000000  0.5405760000000  0.5020800000000 1.0
C      1  0.4489250000000  0.4888020000000  0.5075310000000 1.0
C      1  0.4864620000000  0.5247490000000  0.4940190000000 1.0
C      1  0.4942150000000  0.4727250000000  0.5301050000000 1.0
C      1  0.5475220000000  0.5102740000000  0.5225720000000 1.0
C      1  0.5460300000000  0.4858630000000  0.4761420000000 1.0
C      1  0.4761890000000  0.4955400000000  0.4484390000000 1.0
C      1  0.5331920000000  0.5321460000000  0.5136760000000 1.0
C      1  0.4383480000000  0.4938420000000  0.4805470000000 1.0
C      1  0.4757780000000  0.4824160000000  0.5101480000000 1.0
C      1  0.5152150000000  0.4545640000000  0.5219360000000 1.0
C      1  0.5495920000000  0.4872460000000  0.5029620000000 1.0
C      1  0.5379940000000  0.4689910000000  0.5221350000000 1.0
C      1  0.5332370000000  0.4922090000000  0.5414160000000 1.0
END
