TITL C-85597-944-1 -0.0328054802245657 125000 -399.098549890576 0 0 59 (C1) n - 1
REM
REM in /rds/project/t2_vol4/rds-t2-cs072/BORA/CARBON/from-Arr/AIRSS/Generating-Clusters/GAP-ML-2020/Only-C1/SD-CG/HFTN-CG
REM
REM
REM
REM
REM
REM ./C.cell (11c1c37f851c82e70ff6c80c92926a4b)
REM AIRSS Version 0.9.1 bugfix July 2018 build 013d7b7c2542+ Fri, 06 Jul 2018 19:26:36 +0100
REM compiler GCC version 9.3.0
REM options -cpp -mtune=generic -march=x86-64 -g -O0
REM seed 268060079 924057648 -1765169476 -727473845 -2059370279 -5292466 -5447587 -1044233743 -1504511604 1773667845 -844397377 1722741435 -1775424774 436853002 -563724248 -813722658 -1854193579 42056975 -419790998 1159369947 -1950866095 1860706253 1485357671 -1919964456 -1388341029 -446917263 -477360212 -71500488 -1200786213 -1597235809 -929782178 -1236608221 1078395571
REM
CELL 1.54180   50.00000   50.00000   50.00000   90.00000   90.00000   90.00000
LATT -1
SFAC C  
C      1  0.5385650000000  0.5195220000000  0.4478680000000 1.0
C      1  0.5266060000000  0.4734550000000  0.5363320000000 1.0
C      1  0.4571320000000  0.5424630000000  0.5346590000000 1.0
C      1  0.5234260000000  0.5321600000000  0.4299460000000 1.0
C      1  0.4515630000000  0.4385760000000  0.4788530000000 1.0
C      1  0.4864580000000  0.5656790000000  0.5156360000000 1.0
C      1  0.4989570000000  0.4690340000000  0.4922280000000 1.0
C      1  0.4970280000000  0.5332500000000  0.4392750000000 1.0
C      1  0.4812010000000  0.5570520000000  0.5428980000000 1.0
C      1  0.5684060000000  0.4882300000000  0.5105430000000 1.0
C      1  0.4649520000000  0.5479950000000  0.5064100000000 1.0
C      1  0.5632700000000  0.5374140000000  0.4905180000000 1.0
C      1  0.4922010000000  0.4432600000000  0.5440660000000 1.0
C      1  0.5765450000000  0.5159190000000  0.5067240000000 1.0
C      1  0.5692460000000  0.5307780000000  0.5304200000000 1.0
C      1  0.4828570000000  0.4751230000000  0.5138380000000 1.0
C      1  0.4754880000000  0.4634190000000  0.4484680000000 1.0
C      1  0.5176420000000  0.4465650000000  0.5327200000000 1.0
C      1  0.5492640000000  0.4890670000000  0.5327990000000 1.0
C      1  0.5615750000000  0.4792220000000  0.4627990000000 1.0
C      1  0.4710190000000  0.4338590000000  0.4968920000000 1.0
C      1  0.4623400000000  0.4948770000000  0.5070870000000 1.0
C      1  0.5154910000000  0.5527790000000  0.4787830000000 1.0
C      1  0.5021240000000  0.4895150000000  0.5316360000000 1.0
C      1  0.5137980000000  0.4878180000000  0.4788880000000 1.0
C      1  0.5462870000000  0.4474860000000  0.4927030000000 1.0
C      1  0.4185270000000  0.4899170000000  0.4960230000000 1.0
C      1  0.4925830000000  0.4895250000000  0.5597400000000 1.0
C      1  0.4507780000000  0.5168170000000  0.4374990000000 1.0
C      1  0.4523670000000  0.5154620000000  0.4646890000000 1.0
C      1  0.5146350000000  0.4788080000000  0.4511120000000 1.0
C      1  0.5589550000000  0.5536150000000  0.5151430000000 1.0
C      1  0.4553690000000  0.5174170000000  0.5490740000000 1.0
C      1  0.4700200000000  0.5341920000000  0.4793280000000 1.0
C      1  0.4712830000000  0.4486060000000  0.5247580000000 1.0
C      1  0.4528380000000  0.4637180000000  0.4659960000000 1.0
C      1  0.4186020000000  0.4925860000000  0.5213790000000 1.0
C      1  0.5241230000000  0.5087410000000  0.4928460000000 1.0
C      1  0.4450350000000  0.4925870000000  0.5348580000000 1.0
C      1  0.5373770000000  0.5310840000000  0.4764440000000 1.0
C      1  0.4453540000000  0.4904740000000  0.4807670000000 1.0
C      1  0.4777660000000  0.5115460000000  0.4333190000000 1.0
C      1  0.4983390000000  0.4405920000000  0.4849640000000 1.0
C      1  0.4793450000000  0.4648710000000  0.5619490000000 1.0
C      1  0.4924150000000  0.5453980000000  0.4642780000000 1.0
C      1  0.4782760000000  0.5195300000000  0.5049500000000 1.0
C      1  0.5470550000000  0.5167970000000  0.5415910000000 1.0
C      1  0.5221890000000  0.4404340000000  0.5036070000000 1.0
C      1  0.5425690000000  0.4890830000000  0.4467980000000 1.0
C      1  0.4563530000000  0.4662810000000  0.5457430000000 1.0
C      1  0.5069830000000  0.5145470000000  0.5158050000000 1.0
C      1  0.4809420000000  0.5151070000000  0.5617760000000 1.0
C      1  0.5632400000000  0.4687550000000  0.4886790000000 1.0
C      1  0.5220300000000  0.5328140000000  0.5378790000000 1.0
C      1  0.5001050000000  0.4509240000000  0.4571220000000 1.0
C      1  0.5118720000000  0.5647970000000  0.5041670000000 1.0
C      1  0.4978810000000  0.5381170000000  0.5554700000000 1.0
C      1  0.4892910000000  0.4855080000000  0.4364270000000 1.0
C      1  0.5320640000000  0.5568320000000  0.5228290000000 1.0
END
