TITL C-85586-8-4 -1547.53031841887 125000 -1140.94718719016 0 0 163 (C1) n - 1
REM
REM in /rds/project/t2_vol4/rds-t2-cs072/BORA/CARBON/from-Arr/AIRSS/Generating-Clusters/GAP-ML-2020/Only-C1/SD-CG/HFTN-CG
REM
REM
REM
REM
REM
REM ./C.cell (11c1c37f851c82e70ff6c80c92926a4b)
REM AIRSS Version 0.9.1 bugfix July 2018 build 013d7b7c2542+ Fri, 06 Jul 2018 19:26:36 +0100
REM compiler GCC version 9.3.0
REM options -cpp -mtune=generic -march=x86-64 -g -O0
REM seed 1544727260 -1097981274 -1526287986 -377776132 2069103499 -866817371 274343483 -793606893 235181276 458947331 -1870076436 -1679679653 -299028851 -1829991626 782831785 1568991153 -1339920766 966485753 -713692758 -1230959896 1625688131 -1986422307 -724793052 -1689333934 -729987043 -1586988996 1743204063 382139939 210674086 1293124280 -1426456624 -1819288465 719759811
REM
CELL 1.54180   50.00000   50.00000   50.00000   90.00000   90.00000   90.00000
LATT -1
SFAC C  
C      1  0.4297940000000  0.4574820000000  0.5486540000000 1.0
C      1  0.6057500000000  0.4891930000000  0.5127520000000 1.0
C      1  0.4651300000000  0.4917300000000  0.5363210000000 1.0
C      1  0.5707960000000  0.4792270000000  0.5769200000000 1.0
C      1  0.4450820000000  0.5265660000000  0.5089690000000 1.0
C      1  0.4864070000000  0.5556410000000  0.5190840000000 1.0
C      1  0.4560960000000  0.4983060000000  0.5090070000000 1.0
C      1  0.3966750000000  0.4733070000000  0.4816450000000 1.0
C      1  0.4216500000000  0.4906710000000  0.4459240000000 1.0
C      1  0.4492270000000  0.4136900000000  0.5274030000000 1.0
C      1  0.5395440000000  0.4427900000000  0.4222670000000 1.0
C      1  0.4198960000000  0.5035470000000  0.5557890000000 1.0
C      1  0.5145640000000  0.4471680000000  0.4928300000000 1.0
C      1  0.4412710000000  0.5935690000000  0.5061970000000 1.0
C      1  0.5445480000000  0.5168880000000  0.5186250000000 1.0
C      1  0.4856690000000  0.6074330000000  0.4904930000000 1.0
C      1  0.5664360000000  0.5293840000000  0.5661330000000 1.0
C      1  0.5088280000000  0.4820060000000  0.5170310000000 1.0
C      1  0.6050520000000  0.5017940000000  0.4848090000000 1.0
C      1  0.5026080000000  0.4851040000000  0.5635370000000 1.0
C      1  0.4914750000000  0.5858790000000  0.5605400000000 1.0
C      1  0.4670600000000  0.4581740000000  0.4862330000000 1.0
C      1  0.4194180000000  0.5384310000000  0.4641210000000 1.0
C      1  0.4852950000000  0.5682870000000  0.5824220000000 1.0
C      1  0.4753000000000  0.4308490000000  0.5569440000000 1.0
C      1  0.5456730000000  0.4257690000000  0.5488340000000 1.0
C      1  0.6021140000000  0.5321370000000  0.5318770000000 1.0
C      1  0.4072420000000  0.5124330000000  0.4620200000000 1.0
C      1  0.5991180000000  0.5056750000000  0.5367310000000 1.0
C      1  0.4166550000000  0.4394770000000  0.4619180000000 1.0
C      1  0.5042000000000  0.5234870000000  0.4920570000000 1.0
C      1  0.4899070000000  0.5484690000000  0.4929300000000 1.0
C      1  0.4889600000000  0.5266390000000  0.5964110000000 1.0
C      1  0.5440520000000  0.4657420000000  0.4581960000000 1.0
C      1  0.5181160000000  0.4507950000000  0.4629190000000 1.0
C      1  0.4827830000000  0.4122030000000  0.4661310000000 1.0
C      1  0.5748570000000  0.4940110000000  0.4220850000000 1.0
C      1  0.5123390000000  0.5513100000000  0.5346280000000 1.0
C      1  0.4949070000000  0.4763760000000  0.6093750000000 1.0
C      1  0.4941360000000  0.4316590000000  0.5104670000000 1.0
C      1  0.5445390000000  0.4802360000000  0.5871430000000 1.0
C      1  0.5513400000000  0.4981400000000  0.4857600000000 1.0
C      1  0.5625300000000  0.4262780000000  0.5070570000000 1.0
C      1  0.4384130000000  0.5299700000000  0.4186500000000 1.0
C      1  0.4901780000000  0.4750030000000  0.5386330000000 1.0
C      1  0.5672840000000  0.5669140000000  0.4832790000000 1.0
C      1  0.4762990000000  0.5177860000000  0.5469120000000 1.0
C      1  0.4462900000000  0.4341860000000  0.5477130000000 1.0
C      1  0.4583110000000  0.4868890000000  0.5830660000000 1.0
C      1  0.5362610000000  0.4922960000000  0.4446600000000 1.0
C      1  0.3955140000000  0.5011730000000  0.4852130000000 1.0
C      1  0.5480250000000  0.5302270000000  0.5878630000000 1.0
C      1  0.5155510000000  0.5873100000000  0.4505840000000 1.0
C      1  0.4809490000000  0.4418710000000  0.5849940000000 1.0
C      1  0.4482900000000  0.5329240000000  0.4798690000000 1.0
C      1  0.4291950000000  0.5492150000000  0.4381980000000 1.0
C      1  0.4800790000000  0.5116230000000  0.4057810000000 1.0
C      1  0.4583130000000  0.6025480000000  0.4840680000000 1.0
C      1  0.5410420000000  0.5609950000000  0.4952450000000 1.0
C      1  0.4419710000000  0.4832920000000  0.5591600000000 1.0
C      1  0.5564190000000  0.4694810000000  0.4845200000000 1.0
C      1  0.3984070000000  0.5116740000000  0.5115540000000 1.0
C      1  0.5415430000000  0.5696590000000  0.5634350000000 1.0
C      1  0.5231560000000  0.5056610000000  0.5589410000000 1.0
C      1  0.4974870000000  0.5176850000000  0.4314870000000 1.0
C      1  0.5836320000000  0.4733720000000  0.4400910000000 1.0
C      1  0.4951660000000  0.4447300000000  0.5387360000000 1.0
C      1  0.4724160000000  0.5488500000000  0.4714880000000 1.0
C      1  0.4428270000000  0.4190430000000  0.5002590000000 1.0
C      1  0.5638410000000  0.5617300000000  0.4555850000000 1.0
C      1  0.5973240000000  0.4806300000000  0.4652860000000 1.0
C      1  0.4933420000000  0.4739320000000  0.4899940000000 1.0
C      1  0.5220410000000  0.4266470000000  0.4421740000000 1.0
C      1  0.5149080000000  0.5111230000000  0.5160000000000 1.0
C      1  0.4976840000000  0.4020910000000  0.5144520000000 1.0
C      1  0.4928230000000  0.4211400000000  0.4394480000000 1.0
C      1  0.4466310000000  0.5720920000000  0.4395080000000 1.0
C      1  0.5660920000000  0.4230830000000  0.4544990000000 1.0
C      1  0.5833340000000  0.4399170000000  0.5239850000000 1.0
C      1  0.4814470000000  0.5019640000000  0.4895900000000 1.0
C      1  0.5054980000000  0.5233580000000  0.5421090000000 1.0
C      1  0.4647740000000  0.5487120000000  0.5890370000000 1.0
C      1  0.4362480000000  0.5003250000000  0.4203390000000 1.0
C      1  0.4792110000000  0.4636480000000  0.4060660000000 1.0
C      1  0.5102240000000  0.5984400000000  0.4767020000000 1.0
C      1  0.5231630000000  0.5597130000000  0.4215510000000 1.0
C      1  0.4614260000000  0.4891460000000  0.4090960000000 1.0
C      1  0.4200210000000  0.4338970000000  0.4900960000000 1.0
C      1  0.4421210000000  0.5875950000000  0.4639700000000 1.0
C      1  0.5251980000000  0.4477100000000  0.5494570000000 1.0
C      1  0.5048060000000  0.4998650000000  0.3909490000000 1.0
C      1  0.5724700000000  0.4376750000000  0.5512870000000 1.0
C      1  0.5062460000000  0.5512880000000  0.5926310000000 1.0
C      1  0.4037840000000  0.4941900000000  0.5338690000000 1.0
C      1  0.4130920000000  0.5366290000000  0.5124940000000 1.0
C      1  0.5053730000000  0.5027640000000  0.6059900000000 1.0
C      1  0.5744950000000  0.5021660000000  0.5560370000000 1.0
C      1  0.4750380000000  0.5985890000000  0.5405580000000 1.0
C      1  0.4419070000000  0.5497780000000  0.5724040000000 1.0
C      1  0.5612140000000  0.5527890000000  0.5462380000000 1.0
C      1  0.4250840000000  0.5788760000000  0.4864200000000 1.0
C      1  0.5862750000000  0.4635410000000  0.4847590000000 1.0
C      1  0.4102200000000  0.4662490000000  0.5296450000000 1.0
C      1  0.5640890000000  0.4150400000000  0.4795660000000 1.0
C      1  0.5321260000000  0.5058060000000  0.5906070000000 1.0
C      1  0.5630590000000  0.4489080000000  0.4403190000000 1.0
C      1  0.4166610000000  0.5480680000000  0.5388610000000 1.0
C      1  0.5080410000000  0.4932500000000  0.4429540000000 1.0
C      1  0.5816700000000  0.5186560000000  0.4316410000000 1.0
C      1  0.4693160000000  0.4292100000000  0.4895070000000 1.0
C      1  0.5669860000000  0.5130980000000  0.5020200000000 1.0
C      1  0.4659510000000  0.4644300000000  0.4563370000000 1.0
C      1  0.4467850000000  0.4858940000000  0.4628000000000 1.0
C      1  0.5416620000000  0.4534860000000  0.5044560000000 1.0
C      1  0.5267670000000  0.5876990000000  0.4975600000000 1.0
C      1  0.5976350000000  0.4613820000000  0.5107750000000 1.0
C      1  0.5224070000000  0.4629800000000  0.5755770000000 1.0
C      1  0.5398990000000  0.4086760000000  0.4596100000000 1.0
C      1  0.5463570000000  0.4964230000000  0.5412620000000 1.0
C      1  0.5884820000000  0.5279650000000  0.4834980000000 1.0
C      1  0.5728990000000  0.5322840000000  0.4551230000000 1.0
C      1  0.4698130000000  0.4661370000000  0.5978030000000 1.0
C      1  0.4978260000000  0.3958500000000  0.4835550000000 1.0
C      1  0.4964810000000  0.4721140000000  0.4582160000000 1.0
C      1  0.4117570000000  0.5545670000000  0.4880660000000 1.0
C      1  0.5055220000000  0.4523210000000  0.5962640000000 1.0
C      1  0.4918850000000  0.6071690000000  0.5189680000000 1.0
C      1  0.4350240000000  0.4278100000000  0.4464470000000 1.0
C      1  0.4757220000000  0.4050430000000  0.5360440000000 1.0
C      1  0.4553520000000  0.4425220000000  0.4375170000000 1.0
C      1  0.5316630000000  0.4643770000000  0.4064110000000 1.0
C      1  0.5864720000000  0.5537540000000  0.5277220000000 1.0
C      1  0.4438450000000  0.4763850000000  0.4923640000000 1.0
C      1  0.5196060000000  0.5326050000000  0.4160530000000 1.0
C      1  0.4641270000000  0.5391220000000  0.4095490000000 1.0
C      1  0.5404340000000  0.5471750000000  0.5225740000000 1.0
C      1  0.5344100000000  0.4690670000000  0.5289550000000 1.0
C      1  0.4137480000000  0.4600130000000  0.5014600000000 1.0
C      1  0.4625970000000  0.5411780000000  0.5303860000000 1.0
C      1  0.4215870000000  0.5310660000000  0.5613720000000 1.0
C      1  0.5875620000000  0.5537830000000  0.4980710000000 1.0
C      1  0.5464070000000  0.4098750000000  0.5254250000000 1.0
C      1  0.5262200000000  0.3950670000000  0.4825010000000 1.0
C      1  0.5790690000000  0.4532840000000  0.5728760000000 1.0
C      1  0.4060070000000  0.4658610000000  0.4562120000000 1.0
C      1  0.4420320000000  0.5626630000000  0.5447470000000 1.0
C      1  0.5270590000000  0.5361720000000  0.4763840000000 1.0
C      1  0.5051500000000  0.4721000000000  0.3955310000000 1.0
C      1  0.5337570000000  0.5545420000000  0.5861090000000 1.0
C      1  0.5175060000000  0.5960890000000  0.5229540000000 1.0
C      1  0.4640280000000  0.5093090000000  0.4669000000000 1.0
C      1  0.4713350000000  0.5655540000000  0.4231700000000 1.0
C      1  0.5178330000000  0.5799000000000  0.5480370000000 1.0
C      1  0.5292530000000  0.5113770000000  0.3994700000000 1.0
C      1  0.5395020000000  0.5714290000000  0.4433090000000 1.0
C      1  0.4990020000000  0.5742640000000  0.4288930000000 1.0
C      1  0.4788020000000  0.5286140000000  0.4504970000000 1.0
C      1  0.4487060000000  0.5894740000000  0.5334990000000 1.0
C      1  0.4772290000000  0.4379830000000  0.4207490000000 1.0
C      1  0.5265900000000  0.3954100000000  0.5126500000000 1.0
C      1  0.5460560000000  0.4906740000000  0.4126720000000 1.0
C      1  0.5454050000000  0.5154330000000  0.4631750000000 1.0
C      1  0.4794180000000  0.5059900000000  0.5761550000000 1.0
END
