TITL C-85597-944-2 0.0668039642605873 125000 -427.561591174782 0 0 61 (C1) n - 1
REM
REM in /rds/project/t2_vol4/rds-t2-cs072/BORA/CARBON/from-Arr/AIRSS/Generating-Clusters/GAP-ML-2020/Only-C1/SD-CG/HFTN-CG
REM
REM
REM
REM
REM
REM ./C.cell (11c1c37f851c82e70ff6c80c92926a4b)
REM AIRSS Version 0.9.1 bugfix July 2018 build 013d7b7c2542+ Fri, 06 Jul 2018 19:26:36 +0100
REM compiler GCC version 9.3.0
REM options -cpp -mtune=generic -march=x86-64 -g -O0
REM seed 1915524758 -804628617 -1491079450 1424013831 1112992719 864353161 2057447300 -1221020187 -286482222 -1213841270 -346218297 1716778836 324421092 1240285549 -1626741106 564377232 -487062658 -1197061514 -225349157 1512059189 -1968583754 408622624 -134330693 75904789 -261716348 1161737147 1574136515 -2060506129 1351680166 -1873682249 -999915129 -1021086863 29914307
REM
CELL 1.54180   50.00000   50.00000   50.00000   90.00000   90.00000   90.00000
LATT -1
SFAC C  
C      1  0.4594910000000  0.5317050000000  0.4521080000000 1.0
C      1  0.5383420000000  0.4717580000000  0.4534990000000 1.0
C      1  0.4393920000000  0.4553530000000  0.4861850000000 1.0
C      1  0.5378490000000  0.5491220000000  0.5566620000000 1.0
C      1  0.4878600000000  0.4725560000000  0.5474740000000 1.0
C      1  0.4945320000000  0.5586430000000  0.4845080000000 1.0
C      1  0.4692850000000  0.5181610000000  0.5394520000000 1.0
C      1  0.4468550000000  0.5061660000000  0.4878650000000 1.0
C      1  0.5349030000000  0.4513130000000  0.4742800000000 1.0
C      1  0.5646850000000  0.5368620000000  0.5200740000000 1.0
C      1  0.4500740000000  0.4803130000000  0.4731590000000 1.0
C      1  0.4792540000000  0.4732020000000  0.4785570000000 1.0
C      1  0.4942030000000  0.4934100000000  0.4900740000000 1.0
C      1  0.5158140000000  0.4968050000000  0.5051900000000 1.0
C      1  0.5096010000000  0.4130780000000  0.4897050000000 1.0
C      1  0.5490970000000  0.5242010000000  0.5614710000000 1.0
C      1  0.5648130000000  0.5154620000000  0.5396010000000 1.0
C      1  0.5096040000000  0.5473780000000  0.5572600000000 1.0
C      1  0.4424500000000  0.4729630000000  0.5228450000000 1.0
C      1  0.4833040000000  0.5000960000000  0.5566280000000 1.0
C      1  0.4568950000000  0.4811470000000  0.4448110000000 1.0
C      1  0.5004390000000  0.4771140000000  0.4289300000000 1.0
C      1  0.5296270000000  0.5045390000000  0.5676280000000 1.0
C      1  0.4373350000000  0.5520280000000  0.4910270000000 1.0
C      1  0.5161330000000  0.4638500000000  0.5437050000000 1.0
C      1  0.4506320000000  0.5500250000000  0.5140380000000 1.0
C      1  0.5476890000000  0.5580580000000  0.5308640000000 1.0
C      1  0.5041190000000  0.5173270000000  0.5661700000000 1.0
C      1  0.4440940000000  0.5254430000000  0.5303140000000 1.0
C      1  0.5032070000000  0.4305780000000  0.5102150000000 1.0
C      1  0.5068210000000  0.5245790000000  0.4484700000000 1.0
C      1  0.5334580000000  0.5232670000000  0.4576610000000 1.0
C      1  0.5624620000000  0.5002520000000  0.4868430000000 1.0
C      1  0.5600410000000  0.4789270000000  0.5073710000000 1.0
C      1  0.4405020000000  0.5014910000000  0.5161380000000 1.0
C      1  0.4627190000000  0.4378670000000  0.4862780000000 1.0
C      1  0.5166320000000  0.5192210000000  0.5194860000000 1.0
C      1  0.4837510000000  0.4464220000000  0.4656650000000 1.0
C      1  0.4246790000000  0.4570260000000  0.5084030000000 1.0
C      1  0.4382510000000  0.5311430000000  0.4732330000000 1.0
C      1  0.5253070000000  0.5675250000000  0.5171930000000 1.0
C      1  0.5416190000000  0.5422410000000  0.4775060000000 1.0
C      1  0.4679810000000  0.4594880000000  0.5315940000000 1.0
C      1  0.5365520000000  0.4809820000000  0.5524650000000 1.0
C      1  0.4935520000000  0.5056480000000  0.4322990000000 1.0
C      1  0.5264680000000  0.4687290000000  0.4278850000000 1.0
C      1  0.5009910000000  0.5639140000000  0.5333770000000 1.0
C      1  0.4856620000000  0.5376790000000  0.4660930000000 1.0
C      1  0.5584160000000  0.4882710000000  0.5340500000000 1.0
C      1  0.4806040000000  0.5572340000000  0.5130890000000 1.0
C      1  0.5103090000000  0.4347100000000  0.4729530000000 1.0
C      1  0.4773110000000  0.5165870000000  0.4905860000000 1.0
C      1  0.5235120000000  0.4475100000000  0.5214560000000 1.0
C      1  0.5616690000000  0.5286640000000  0.4936570000000 1.0
C      1  0.5222260000000  0.5605520000000  0.4895590000000 1.0
C      1  0.5473780000000  0.4977850000000  0.4629870000000 1.0
C      1  0.5430520000000  0.4568240000000  0.5011610000000 1.0
C      1  0.4755780000000  0.4384870000000  0.5129450000000 1.0
C      1  0.4788620000000  0.4618040000000  0.4403210000000 1.0
C      1  0.4869610000000  0.5286400000000  0.5172710000000 1.0
C      1  0.4650940000000  0.5078750000000  0.4377060000000 1.0
END
