TITL C-85420-933-6 -0.157103644510054 125000 -251.327734409242 0 0 38 (C1) n - 1
REM
REM in /rds/project/t2_vol4/rds-t2-cs072/BORA/CARBON/from-Arr/AIRSS/Generating-Clusters/GAP-ML-2020/Only-C1/SD-CG/HFTN-CG
REM
REM
REM
REM
REM
REM ./C.cell (11c1c37f851c82e70ff6c80c92926a4b)
REM AIRSS Version 0.9.1 bugfix July 2018 build 013d7b7c2542+ Fri, 06 Jul 2018 19:26:36 +0100
REM compiler GCC version 9.3.0
REM options -cpp -mtune=generic -march=x86-64 -g -O0
REM seed 1053756470 1171204628 -48747696 -355264434 -142154995 1918839249 868513859 -1241116029 -659488660 2015176876 -781769961 -233687038 2097370135 -924433789 2062103535 2133519655 1302676188 556240606 708619071 -2046678861 -98952876 -430115446 180651668 -412934463 -2086516992 710154126 805420281 -1483869943 205691041 1782926257 -1828931485 1402573364 2133493750
REM
CELL 1.54180   50.00000   50.00000   50.00000   90.00000   90.00000   90.00000
LATT -1
SFAC C  
C      1  0.5343610000000  0.4590440000000  0.4774010000000 1.0
C      1  0.5513670000000  0.5025260000000  0.4886500000000 1.0
C      1  0.4944040000000  0.4410940000000  0.5077480000000 1.0
C      1  0.4805260000000  0.5099230000000  0.4818680000000 1.0
C      1  0.5264490000000  0.4986510000000  0.5407320000000 1.0
C      1  0.5440920000000  0.4762320000000  0.4979420000000 1.0
C      1  0.5584440000000  0.5278530000000  0.4998830000000 1.0
C      1  0.4895550000000  0.4600010000000  0.5506360000000 1.0
C      1  0.5065250000000  0.5011920000000  0.4725220000000 1.0
C      1  0.5328090000000  0.4700720000000  0.4522190000000 1.0
C      1  0.4629550000000  0.4641720000000  0.4611980000000 1.0
C      1  0.4551790000000  0.5098270000000  0.4666830000000 1.0
C      1  0.5066530000000  0.4543400000000  0.5300490000000 1.0
C      1  0.4622890000000  0.4920010000000  0.5238040000000 1.0
C      1  0.4807980000000  0.4853190000000  0.5445400000000 1.0
C      1  0.4728380000000  0.5170050000000  0.5104000000000 1.0
C      1  0.5472080000000  0.5158970000000  0.5450970000000 1.0
C      1  0.4902270000000  0.4596650000000  0.4589970000000 1.0
C      1  0.5314420000000  0.5169790000000  0.4719850000000 1.0
C      1  0.4903360000000  0.5278350000000  0.5321430000000 1.0
C      1  0.4701040000000  0.5660450000000  0.4965020000000 1.0
C      1  0.5055710000000  0.4525430000000  0.4835800000000 1.0
C      1  0.4519220000000  0.4556650000000  0.4859310000000 1.0
C      1  0.4410460000000  0.5323670000000  0.4765600000000 1.0
C      1  0.4664960000000  0.4453000000000  0.5070510000000 1.0
C      1  0.5318290000000  0.5568060000000  0.5248670000000 1.0
C      1  0.5509470000000  0.5357730000000  0.5268670000000 1.0
C      1  0.5080760000000  0.4813360000000  0.4502940000000 1.0
C      1  0.4958520000000  0.5641920000000  0.5031830000000 1.0
C      1  0.5247420000000  0.5635730000000  0.4960350000000 1.0
C      1  0.5041690000000  0.5518740000000  0.5292070000000 1.0
C      1  0.4996800000000  0.5064060000000  0.5474920000000 1.0
C      1  0.5382080000000  0.5425230000000  0.4828460000000 1.0
C      1  0.4559580000000  0.5421930000000  0.4976530000000 1.0
C      1  0.4514640000000  0.4877510000000  0.4510550000000 1.0
C      1  0.4526520000000  0.4693640000000  0.5101490000000 1.0
C      1  0.5256430000000  0.4760810000000  0.5211260000000 1.0
C      1  0.5071790000000  0.4805800000000  0.4951060000000 1.0
END
