TITL C-85413-3323-5 0.0235272233577711 125000 -652.154432919172 0 0 92 (C1) n - 1
REM
REM in /rds/project/t2_vol4/rds-t2-cs072/BORA/CARBON/from-Arr/AIRSS/Generating-Clusters/GAP-ML-2020/Only-C1/SD-CG/HFTN-CG
REM
REM
REM
REM
REM
REM ./C.cell (11c1c37f851c82e70ff6c80c92926a4b)
REM AIRSS Version 0.9.1 bugfix July 2018 build 013d7b7c2542+ Fri, 06 Jul 2018 19:26:36 +0100
REM compiler GCC version 9.3.0
REM options -cpp -mtune=generic -march=x86-64 -g -O0
REM seed -1207768383 -2032017831 456660107 785554970 -1871023429 904770153 305979867 -834182532 -98966109 -2023181769 922658239 -1068219329 -1884906371 -81443396 1052242039 924420888 335276212 -1561648107 -554709708 -2140478558 398296631 -777087699 -1481418434 -1321794755 362692456 937639499 1948621649 1302521208 1987895742 2000107476 130979529 -2095920996 -282353083
REM
CELL 1.54180   50.00000   50.00000   50.00000   90.00000   90.00000   90.00000
LATT -1
SFAC C  
C      1  0.4383090000000  0.5346030000000  0.4582210000000 1.0
C      1  0.5272150000000  0.5545280000000  0.4481030000000 1.0
C      1  0.5716100000000  0.5302620000000  0.4593600000000 1.0
C      1  0.4898200000000  0.5125990000000  0.5263870000000 1.0
C      1  0.5427060000000  0.4400120000000  0.5635570000000 1.0
C      1  0.4910330000000  0.5258410000000  0.4691840000000 1.0
C      1  0.5695990000000  0.5041940000000  0.4483800000000 1.0
C      1  0.5506730000000  0.4649860000000  0.4342270000000 1.0
C      1  0.4238680000000  0.5221200000000  0.4804250000000 1.0
C      1  0.4951920000000  0.5763900000000  0.5349560000000 1.0
C      1  0.5240450000000  0.5086550000000  0.4978630000000 1.0
C      1  0.4284680000000  0.4666250000000  0.4894630000000 1.0
C      1  0.4399160000000  0.4609630000000  0.5411680000000 1.0
C      1  0.4258520000000  0.5403120000000  0.5032460000000 1.0
C      1  0.5739260000000  0.4849830000000  0.4693830000000 1.0
C      1  0.4671800000000  0.4082140000000  0.5191070000000 1.0
C      1  0.5529690000000  0.4929780000000  0.4285490000000 1.0
C      1  0.4683770000000  0.4363140000000  0.4773720000000 1.0
C      1  0.5799690000000  0.4983530000000  0.4942510000000 1.0
C      1  0.5405950000000  0.4900340000000  0.5691330000000 1.0
C      1  0.4921670000000  0.5366150000000  0.5098500000000 1.0
C      1  0.5496430000000  0.4407550000000  0.4823780000000 1.0
C      1  0.4403960000000  0.4882520000000  0.5486900000000 1.0
C      1  0.5180650000000  0.4721120000000  0.5189870000000 1.0
C      1  0.5513620000000  0.4684890000000  0.5259610000000 1.0
C      1  0.4719340000000  0.4564280000000  0.5029070000000 1.0
C      1  0.4799580000000  0.4150150000000  0.4957620000000 1.0
C      1  0.4835070000000  0.4424310000000  0.4524980000000 1.0
C      1  0.4719220000000  0.5085680000000  0.4304510000000 1.0
C      1  0.4379630000000  0.5637380000000  0.4933820000000 1.0
C      1  0.5825250000000  0.5255230000000  0.4858240000000 1.0
C      1  0.4780360000000  0.4815770000000  0.5772350000000 1.0
C      1  0.5256380000000  0.4924640000000  0.5916160000000 1.0
C      1  0.5100000000000  0.4812430000000  0.4190530000000 1.0
C      1  0.5276370000000  0.5049360000000  0.4212980000000 1.0
C      1  0.5185620000000  0.5609830000000  0.5450730000000 1.0
C      1  0.4747660000000  0.5875810000000  0.4938180000000 1.0
C      1  0.4983760000000  0.5889800000000  0.5089050000000 1.0
C      1  0.5310650000000  0.4241450000000  0.5205900000000 1.0
C      1  0.4974650000000  0.4499070000000  0.5200970000000 1.0
C      1  0.4949940000000  0.4370780000000  0.5477730000000 1.0
C      1  0.5421800000000  0.5635310000000  0.5286310000000 1.0
C      1  0.4771690000000  0.5743050000000  0.4685630000000 1.0
C      1  0.4575770000000  0.4991450000000  0.5682200000000 1.0
C      1  0.4686940000000  0.5030490000000  0.5078110000000 1.0
C      1  0.4948520000000  0.5260010000000  0.5745390000000 1.0
C      1  0.5232150000000  0.4728720000000  0.4662290000000 1.0
C      1  0.5118130000000  0.4449860000000  0.4526830000000 1.0
C      1  0.4821660000000  0.4828650000000  0.4234730000000 1.0
C      1  0.5756250000000  0.5472990000000  0.5013970000000 1.0
C      1  0.5241480000000  0.4568250000000  0.4275230000000 1.0
C      1  0.5542340000000  0.5539410000000  0.4594300000000 1.0
C      1  0.4663620000000  0.5689120000000  0.5361060000000 1.0
C      1  0.5494490000000  0.4655270000000  0.5557620000000 1.0
C      1  0.5123410000000  0.5316290000000  0.4891750000000 1.0
C      1  0.5177910000000  0.5305770000000  0.4327550000000 1.0
C      1  0.5566730000000  0.4623620000000  0.4638310000000 1.0
C      1  0.5153650000000  0.5005210000000  0.5282790000000 1.0
C      1  0.5629520000000  0.5433430000000  0.5264400000000 1.0
C      1  0.4693910000000  0.4603060000000  0.4356400000000 1.0
C      1  0.4433710000000  0.4635630000000  0.4463140000000 1.0
C      1  0.4425350000000  0.4576740000000  0.5129790000000 1.0
C      1  0.5602770000000  0.5651420000000  0.4850780000000 1.0
C      1  0.5078230000000  0.5723060000000  0.4637710000000 1.0
C      1  0.4546200000000  0.5778860000000  0.5109690000000 1.0
C      1  0.5351730000000  0.5124110000000  0.5499880000000 1.0
C      1  0.4996860000000  0.4994910000000  0.5852670000000 1.0
C      1  0.5514740000000  0.4414070000000  0.5106100000000 1.0
C      1  0.5089360000000  0.4252710000000  0.5004550000000 1.0
C      1  0.4460140000000  0.5131800000000  0.4407170000000 1.0
C      1  0.4326230000000  0.4897990000000  0.4494110000000 1.0
C      1  0.4545530000000  0.4421580000000  0.5563820000000 1.0
C      1  0.4542350000000  0.5451970000000  0.5475470000000 1.0
C      1  0.4348730000000  0.5325430000000  0.5294970000000 1.0
C      1  0.5603060000000  0.5166070000000  0.5354310000000 1.0
C      1  0.5675950000000  0.4930920000000  0.5196120000000 1.0
C      1  0.4394560000000  0.5050810000000  0.5265800000000 1.0
C      1  0.5179330000000  0.5839490000000  0.4894270000000 1.0
C      1  0.5415460000000  0.5766430000000  0.5021650000000 1.0
C      1  0.4411590000000  0.4492520000000  0.4702410000000 1.0
C      1  0.5108680000000  0.4834390000000  0.4896110000000 1.0
C      1  0.5238340000000  0.4275470000000  0.5484650000000 1.0
C      1  0.4804560000000  0.4825440000000  0.4916120000000 1.0
C      1  0.5239310000000  0.4308580000000  0.4757840000000 1.0
C      1  0.4221900000000  0.4932250000000  0.4759120000000 1.0
C      1  0.4782520000000  0.4544940000000  0.5669670000000 1.0
C      1  0.4502030000000  0.5600390000000  0.4667950000000 1.0
C      1  0.4701500000000  0.4203390000000  0.5428580000000 1.0
C      1  0.4665150000000  0.5268350000000  0.5667000000000 1.0
C      1  0.5174920000000  0.5366770000000  0.5602330000000 1.0
C      1  0.4714690000000  0.5271770000000  0.4903660000000 1.0
C      1  0.4911510000000  0.5263920000000  0.4412870000000 1.0
END
