TITL C-85587-917-6 -11.662569029041 125000 -227.617907190905 0 0 35 (C1) n - 1
REM
REM in /rds/project/t2_vol4/rds-t2-cs072/BORA/CARBON/from-Arr/AIRSS/Generating-Clusters/GAP-ML-2020/Only-C1/SD-CG/HFTN-CG
REM
REM
REM
REM
REM
REM ./C.cell (11c1c37f851c82e70ff6c80c92926a4b)
REM AIRSS Version 0.9.1 bugfix July 2018 build 013d7b7c2542+ Fri, 06 Jul 2018 19:26:36 +0100
REM compiler GCC version 9.3.0
REM options -cpp -mtune=generic -march=x86-64 -g -O0
REM seed -1048179892 -902488734 1174708131 -1130743379 -1274118686 961719647 -1130961629 -1945147138 853051930 340167057 257175908 1454216696 -2081781333 1778248475 -1983332365 -965861437 -1277577342 -789543396 -1800211747 -1201731004 1968466528 183766784 407685007 -464988036 2009753010 1499835521 -576677172 -933873274 1251380653 1415401131 -129271982 1235030765 -1416968141
REM
CELL 1.54180   50.00000   50.00000   50.00000   90.00000   90.00000   90.00000
LATT -1
SFAC C  
C      1  0.4717050000000  0.4801430000000  0.4488650000000 1.0
C      1  0.4705200000000  0.4659620000000  0.5143950000000 1.0
C      1  0.4973380000000  0.5226920000000  0.4696120000000 1.0
C      1  0.4955650000000  0.5136820000000  0.4428860000000 1.0
C      1  0.4546450000000  0.4696190000000  0.4671340000000 1.0
C      1  0.5197440000000  0.5375140000000  0.4786970000000 1.0
C      1  0.4890680000000  0.5032990000000  0.4892160000000 1.0
C      1  0.4995620000000  0.4731600000000  0.4543140000000 1.0
C      1  0.5030030000000  0.4761910000000  0.4830310000000 1.0
C      1  0.4963670000000  0.5091350000000  0.5167120000000 1.0
C      1  0.5240160000000  0.5115840000000  0.5281660000000 1.0
C      1  0.4598000000000  0.5051970000000  0.4909520000000 1.0
C      1  0.4976350000000  0.5523510000000  0.5414690000000 1.0
C      1  0.5163330000000  0.4449410000000  0.5152170000000 1.0
C      1  0.5160260000000  0.4944700000000  0.4457360000000 1.0
C      1  0.5389010000000  0.4973450000000  0.4635610000000 1.0
C      1  0.5494590000000  0.4765670000000  0.5280540000000 1.0
C      1  0.4821810000000  0.4829440000000  0.5353000000000 1.0
C      1  0.5433490000000  0.5252020000000  0.4694300000000 1.0
C      1  0.5436160000000  0.4994000000000  0.5102940000000 1.0
C      1  0.4542080000000  0.4772530000000  0.4932770000000 1.0
C      1  0.4637080000000  0.5479670000000  0.5163760000000 1.0
C      1  0.4521310000000  0.5292390000000  0.5014640000000 1.0
C      1  0.4941160000000  0.4551580000000  0.5013150000000 1.0
C      1  0.5329350000000  0.4813990000000  0.4880490000000 1.0
C      1  0.4736560000000  0.5370530000000  0.5434450000000 1.0
C      1  0.5290990000000  0.4879010000000  0.5454070000000 1.0
C      1  0.5108850000000  0.4460800000000  0.5419650000000 1.0
C      1  0.4769940000000  0.5103250000000  0.5389990000000 1.0
C      1  0.4898830000000  0.5621110000000  0.5139970000000 1.0
C      1  0.5406770000000  0.4589190000000  0.5068690000000 1.0
C      1  0.5052380000000  0.4717140000000  0.5490790000000 1.0
C      1  0.5222360000000  0.5412480000000  0.5307490000000 1.0
C      1  0.5138210000000  0.5501620000000  0.5035540000000 1.0
C      1  0.4715810000000  0.5020740000000  0.4324100000000 1.0
END
