TITL C-85407-368-3 -0.0268822617158506 125000 -104.965421155415 0 0 17 (C1) n - 1
REM
REM in /rds/project/t2_vol4/rds-t2-cs072/BORA/CARBON/from-Arr/AIRSS/Generating-Clusters/GAP-ML-2020/Only-C1/SD-CG/HFTN-CG
REM
REM
REM
REM
REM
REM ./C.cell (11c1c37f851c82e70ff6c80c92926a4b)
REM AIRSS Version 0.9.1 bugfix July 2018 build 013d7b7c2542+ Fri, 06 Jul 2018 19:26:36 +0100
REM compiler GCC version 9.3.0
REM options -cpp -mtune=generic -march=x86-64 -g -O0
REM seed -1257079634 1247335930 -1861460217 -1955472543 405081000 537510009 1263772754 -1533439718 1593123393 162236934 -93774742 752108705 743158725 2054068718 1704228319 -905004608 2020438964 742974561 -1283487271 -437033392 525989865 667596351 -1820652300 -1746307655 148039339 99947929 2133413248 -597515419 -1298651759 278305213 -1618981034 1977933562 516977498
REM
CELL 1.54180   50.00000   50.00000   50.00000   90.00000   90.00000   90.00000
LATT -1
SFAC C  
C      1  0.4735730000000  0.4569000000000  0.4851740000000 1.0
C      1  0.5143320000000  0.4955640000000  0.4903560000000 1.0
C      1  0.4960110000000  0.5371640000000  0.5487570000000 1.0
C      1  0.4967720000000  0.5103080000000  0.5525000000000 1.0
C      1  0.4829820000000  0.5018490000000  0.4858260000000 1.0
C      1  0.5385850000000  0.5305690000000  0.5155480000000 1.0
C      1  0.5464310000000  0.5365900000000  0.5386770000000 1.0
C      1  0.4925340000000  0.4401230000000  0.4795680000000 1.0
C      1  0.5167830000000  0.4496440000000  0.4734690000000 1.0
C      1  0.5185850000000  0.5213910000000  0.5001530000000 1.0
C      1  0.5203110000000  0.4763350000000  0.4705900000000 1.0
C      1  0.5104600000000  0.4928200000000  0.4485140000000 1.0
C      1  0.4711490000000  0.5089370000000  0.5375120000000 1.0
C      1  0.4655400000000  0.4802580000000  0.4919430000000 1.0
C      1  0.4790040000000  0.5323410000000  0.5246100000000 1.0
C      1  0.4898920000000  0.5281070000000  0.4997420000000 1.0
C      1  0.4870550000000  0.5011020000000  0.4570620000000 1.0
END
