TITL C-85597-944-11 0.11495411217892 125000 -152.963569140323 0 0 24 (C1) n - 1
REM
REM in /rds/project/t2_vol4/rds-t2-cs072/BORA/CARBON/from-Arr/AIRSS/Generating-Clusters/GAP-ML-2020/Only-C1/SD-CG/HFTN-CG
REM
REM
REM
REM
REM
REM ./C.cell (11c1c37f851c82e70ff6c80c92926a4b)
REM AIRSS Version 0.9.1 bugfix July 2018 build 013d7b7c2542+ Fri, 06 Jul 2018 19:26:36 +0100
REM compiler GCC version 9.3.0
REM options -cpp -mtune=generic -march=x86-64 -g -O0
REM seed -1337998617 621575406 802725440 423218459 -442390720 1501409949 1834417526 1080622877 209828915 712203927 443667173 -756638795 -237087762 1328693051 280030624 -1664136266 1258971583 1298258509 -680491551 1384725809 -858537526 1753659328 1083638360 -329223569 2063970518 -1905782331 -1040021273 1999814376 -1469597077 -531156294 -1602871417 1863236010 -228121283
REM
CELL 1.54180   50.00000   50.00000   50.00000   90.00000   90.00000   90.00000
LATT -1
SFAC C  
C      1  0.5459030000000  0.5284480000000  0.4883000000000 1.0
C      1  0.4724790000000  0.4842920000000  0.4206510000000 1.0
C      1  0.4937210000000  0.5101180000000  0.4797690000000 1.0
C      1  0.5374340000000  0.4961630000000  0.5811820000000 1.0
C      1  0.4524190000000  0.4615680000000  0.5271590000000 1.0
C      1  0.4788430000000  0.4523860000000  0.4617120000000 1.0
C      1  0.5381000000000  0.5047100000000  0.5574130000000 1.0
C      1  0.4729910000000  0.4396240000000  0.4838380000000 1.0
C      1  0.4888940000000  0.4774780000000  0.5139030000000 1.0
C      1  0.4723870000000  0.4539300000000  0.5072470000000 1.0
C      1  0.5038780000000  0.5412360000000  0.5162820000000 1.0
C      1  0.5464950000000  0.5511820000000  0.5015170000000 1.0
C      1  0.5339350000000  0.4970870000000  0.5071780000000 1.0
C      1  0.5522660000000  0.5030570000000  0.4861040000000 1.0
C      1  0.4601310000000  0.5147700000000  0.5354010000000 1.0
C      1  0.4780610000000  0.5312780000000  0.5219990000000 1.0
C      1  0.4759530000000  0.5096430000000  0.4290220000000 1.0
C      1  0.4874990000000  0.5329210000000  0.4948650000000 1.0
C      1  0.5313350000000  0.5405020000000  0.5232200000000 1.0
C      1  0.4851950000000  0.5022480000000  0.4554570000000 1.0
C      1  0.4650800000000  0.4882330000000  0.5297240000000 1.0
C      1  0.5387150000000  0.5131230000000  0.5319930000000 1.0
C      1  0.5075620000000  0.4916720000000  0.4994330000000 1.0
C      1  0.4807250000000  0.4743330000000  0.4466290000000 1.0
END
