TITL C-85608-1177-8 343.388352509963 125000 -283.251917666325 0 0 41 (C1) n - 1
REM
REM in /rds/project/t2_vol4/rds-t2-cs072/BORA/CARBON/from-Arr/AIRSS/Generating-Clusters/GAP-ML-2020/Only-C1/SD-CG/HFTN-CG
REM
REM
REM
REM
REM
REM ./C.cell (11c1c37f851c82e70ff6c80c92926a4b)
REM AIRSS Version 0.9.1 bugfix July 2018 build 013d7b7c2542+ Fri, 06 Jul 2018 19:26:36 +0100
REM compiler GCC version 9.3.0
REM options -cpp -mtune=generic -march=x86-64 -g -O0
REM seed 1767762591 -1912749914 -60918618 687506450 742400837 -143780773 -1701200587 -1019102216 -1029225794 375173184 -810471615 -1002866264 882332472 -647128076 1193439316 -1215454128 -1250049763 -1741420065 -1787181338 799220283 1197611385 1679528867 -673512176 1537804029 1644962500 -965878564 -858443093 1148777278 -448353229 -314880930 -412451788 518988972 -970892671
REM
CELL 1.54180   50.00000   50.00000   50.00000   90.00000   90.00000   90.00000
LATT -1
SFAC C  
C      1  0.5562170000000  0.4597130000000  0.5130970000000 1.0
C      1  0.4924710000000  0.4798240000000  0.5457690000000 1.0
C      1  0.5405160000000  0.4868540000000  0.5433100000000 1.0
C      1  0.5398400000000  0.5276640000000  0.5212930000000 1.0
C      1  0.5155000000000  0.5639210000000  0.5112430000000 1.0
C      1  0.5144960000000  0.4980280000000  0.5474290000000 1.0
C      1  0.4602790000000  0.5425130000000  0.4804140000000 1.0
C      1  0.4838440000000  0.5587940000000  0.4752760000000 1.0
C      1  0.4893310000000  0.5172560000000  0.4547560000000 1.0
C      1  0.5020010000000  0.4450390000000  0.5035120000000 1.0
C      1  0.5004210000000  0.5494280000000  0.5332080000000 1.0
C      1  0.4780820000000  0.4601980000000  0.4543420000000 1.0
C      1  0.5095400000000  0.4967260000000  0.4549020000000 1.0
C      1  0.5281990000000  0.5362270000000  0.4722320000000 1.0
C      1  0.5596120000000  0.4977550000000  0.4550280000000 1.0
C      1  0.5341410000000  0.5457140000000  0.4993600000000 1.0
C      1  0.4540600000000  0.4695100000000  0.4645660000000 1.0
C      1  0.4631850000000  0.5171950000000  0.4671040000000 1.0
C      1  0.4651890000000  0.4512670000000  0.5202130000000 1.0
C      1  0.5550170000000  0.5040360000000  0.5245370000000 1.0
C      1  0.4655660000000  0.4890670000000  0.5451030000000 1.0
C      1  0.5589010000000  0.4834440000000  0.4779490000000 1.0
C      1  0.4573080000000  0.5153180000000  0.5469330000000 1.0
C      1  0.5675790000000  0.4869580000000  0.5057310000000 1.0
C      1  0.5349290000000  0.5099330000000  0.4607700000000 1.0
C      1  0.5180570000000  0.4553650000000  0.4820060000000 1.0
C      1  0.4915430000000  0.5717060000000  0.4990710000000 1.0
C      1  0.5453720000000  0.4583960000000  0.4862860000000 1.0
C      1  0.5043860000000  0.4696170000000  0.4606860000000 1.0
C      1  0.5452710000000  0.4595530000000  0.5376480000000 1.0
C      1  0.4757190000000  0.5590330000000  0.5212720000000 1.0
C      1  0.4498760000000  0.4941580000000  0.4779240000000 1.0
C      1  0.4928860000000  0.4560610000000  0.5293190000000 1.0
C      1  0.4549630000000  0.5435080000000  0.5085100000000 1.0
C      1  0.4743540000000  0.4384340000000  0.4968690000000 1.0
C      1  0.4633900000000  0.4435530000000  0.4720240000000 1.0
C      1  0.4426450000000  0.4950940000000  0.5057870000000 1.0
C      1  0.5022080000000  0.5424540000000  0.4612710000000 1.0
C      1  0.4461350000000  0.5201000000000  0.5208790000000 1.0
C      1  0.5160240000000  0.5258630000000  0.5382810000000 1.0
C      1  0.4509460000000  0.4747260000000  0.5240890000000 1.0
END
