TITL C-85613-2969-9 46.4145828978956 125000 -217.761689368539 0 0 34 (C1) n - 1
REM
REM in /rds/project/t2_vol4/rds-t2-cs072/BORA/CARBON/from-Arr/AIRSS/Generating-Clusters/GAP-ML-2020/Only-C1/SD-CG/HFTN-CG
REM
REM
REM
REM
REM
REM ./C.cell (11c1c37f851c82e70ff6c80c92926a4b)
REM AIRSS Version 0.9.1 bugfix July 2018 build 013d7b7c2542+ Fri, 06 Jul 2018 19:26:36 +0100
REM compiler GCC version 9.3.0
REM options -cpp -mtune=generic -march=x86-64 -g -O0
REM seed 330544621 1428842349 -904445590 110432366 1347369552 108802298 -1069814286 1389798708 1256408880 -675811635 -622720663 -374872608 720759253 -1342177384 -340788020 -900970561 -1837098754 1529053882 -872246992 2077955771 977894335 104412577 9238180 1617707911 -270952385 2031523614 -1966652209 -1803480219 -769233663 647803364 -1917788409 1946564767 -815208202
REM
CELL 1.54180   50.00000   50.00000   50.00000   90.00000   90.00000   90.00000
LATT -1
SFAC C  
C      1  0.5251210000000  0.5362860000000  0.5498370000000 1.0
C      1  0.4655200000000  0.4800540000000  0.5053480000000 1.0
C      1  0.5303570000000  0.4441190000000  0.5023630000000 1.0
C      1  0.5334780000000  0.4982420000000  0.5110920000000 1.0
C      1  0.4815630000000  0.4855390000000  0.4586530000000 1.0
C      1  0.5331070000000  0.5124480000000  0.5577810000000 1.0
C      1  0.5502950000000  0.5031780000000  0.4717590000000 1.0
C      1  0.4646210000000  0.4993080000000  0.5338410000000 1.0
C      1  0.5436450000000  0.4615380000000  0.4843290000000 1.0
C      1  0.5417600000000  0.4425510000000  0.5302940000000 1.0
C      1  0.5551380000000  0.4861930000000  0.4951670000000 1.0
C      1  0.4849550000000  0.5470250000000  0.5181780000000 1.0
C      1  0.5322990000000  0.4810260000000  0.4654640000000 1.0
C      1  0.4593270000000  0.4431600000000  0.5295060000000 1.0
C      1  0.4414220000000  0.5256470000000  0.4732880000000 1.0
C      1  0.5247530000000  0.5267230000000  0.5004770000000 1.0
C      1  0.4585270000000  0.5489730000000  0.5180390000000 1.0
C      1  0.4621490000000  0.4942650000000  0.4448900000000 1.0
C      1  0.4500580000000  0.5239620000000  0.4993950000000 1.0
C      1  0.4448830000000  0.4986450000000  0.5148400000000 1.0
C      1  0.4874920000000  0.4997610000000  0.5160150000000 1.0
C      1  0.5053980000000  0.4914720000000  0.4730690000000 1.0
C      1  0.5082940000000  0.4845450000000  0.5033670000000 1.0
C      1  0.5445820000000  0.5285040000000  0.4798990000000 1.0
C      1  0.5132350000000  0.5413850000000  0.5250630000000 1.0
C      1  0.4944450000000  0.5400300000000  0.4582500000000 1.0
C      1  0.4752560000000  0.5429320000000  0.4414020000000 1.0
C      1  0.4768000000000  0.4537580000000  0.5126390000000 1.0
C      1  0.5071140000000  0.4581270000000  0.5133590000000 1.0
C      1  0.4591350000000  0.5214980000000  0.4523590000000 1.0
C      1  0.5030900000000  0.5221340000000  0.4801680000000 1.0
C      1  0.4819850000000  0.5222160000000  0.4997850000000 1.0
C      1  0.5265190000000  0.4634140000000  0.5393530000000 1.0
C      1  0.5336790000000  0.4913420000000  0.5407300000000 1.0
END
