TITL C-85587-917-2 -469.256714464429 125000 -916.057346807863 0 0 132 (C1) n - 1
REM
REM in /rds/project/t2_vol4/rds-t2-cs072/BORA/CARBON/from-Arr/AIRSS/Generating-Clusters/GAP-ML-2020/Only-C1/SD-CG/HFTN-CG
REM
REM
REM
REM
REM
REM ./C.cell (11c1c37f851c82e70ff6c80c92926a4b)
REM AIRSS Version 0.9.1 bugfix July 2018 build 013d7b7c2542+ Fri, 06 Jul 2018 19:26:36 +0100
REM compiler GCC version 9.3.0
REM options -cpp -mtune=generic -march=x86-64 -g -O0
REM seed -1493836364 -547326105 -841512779 1607049272 -1365673244 -317703774 539420014 -1021779517 -877520070 -1060548644 1656175374 -196646075 -2020021990 -451167940 -1415693316 825041618 -369378037 -1440459467 890130261 209575160 1494084736 923915438 1410841836 150699661 1358854543 222495667 -710696223 438128719 -117448882 946362419 -773078579 -27666957 714092457
REM
CELL 1.54180   50.00000   50.00000   50.00000   90.00000   90.00000   90.00000
LATT -1
SFAC C  
C      1  0.4149680000000  0.5041660000000  0.4998040000000 1.0
C      1  0.5726760000000  0.5400730000000  0.4711260000000 1.0
C      1  0.4954360000000  0.4519370000000  0.5269630000000 1.0
C      1  0.5015620000000  0.6028610000000  0.4817370000000 1.0
C      1  0.5448970000000  0.5584240000000  0.4425580000000 1.0
C      1  0.5139870000000  0.5474130000000  0.5239660000000 1.0
C      1  0.5392080000000  0.5376130000000  0.5659340000000 1.0
C      1  0.4245210000000  0.4820950000000  0.5545740000000 1.0
C      1  0.5234150000000  0.4953440000000  0.5924840000000 1.0
C      1  0.4544560000000  0.4278520000000  0.5182630000000 1.0
C      1  0.5564910000000  0.5314450000000  0.4477640000000 1.0
C      1  0.5586540000000  0.5645590000000  0.5401730000000 1.0
C      1  0.5565400000000  0.5598680000000  0.4875910000000 1.0
C      1  0.5823600000000  0.4755670000000  0.4860490000000 1.0
C      1  0.5864120000000  0.5255680000000  0.5448320000000 1.0
C      1  0.5511980000000  0.4755970000000  0.4861960000000 1.0
C      1  0.5253560000000  0.4522730000000  0.5744680000000 1.0
C      1  0.4936620000000  0.5009130000000  0.5487120000000 1.0
C      1  0.4852260000000  0.4499180000000  0.4986080000000 1.0
C      1  0.5395530000000  0.4774410000000  0.5784340000000 1.0
C      1  0.5635900000000  0.4815030000000  0.4414740000000 1.0
C      1  0.5363660000000  0.4681440000000  0.4107480000000 1.0
C      1  0.4561150000000  0.4912960000000  0.4112630000000 1.0
C      1  0.5040590000000  0.5963030000000  0.5093970000000 1.0
C      1  0.5824200000000  0.5338910000000  0.5156850000000 1.0
C      1  0.4925630000000  0.5568010000000  0.4837510000000 1.0
C      1  0.4566610000000  0.4402020000000  0.4209980000000 1.0
C      1  0.4349150000000  0.5563450000000  0.4573970000000 1.0
C      1  0.4609520000000  0.4851490000000  0.5217650000000 1.0
C      1  0.4830640000000  0.5700140000000  0.5607420000000 1.0
C      1  0.4623650000000  0.5339920000000  0.4320870000000 1.0
C      1  0.5711340000000  0.5615080000000  0.5145140000000 1.0
C      1  0.5961280000000  0.5009700000000  0.4759030000000 1.0
C      1  0.4869590000000  0.4919930000000  0.4430310000000 1.0
C      1  0.5840180000000  0.4975780000000  0.5512050000000 1.0
C      1  0.5168510000000  0.5234190000000  0.4845510000000 1.0
C      1  0.5043540000000  0.5793580000000  0.4413470000000 1.0
C      1  0.4394940000000  0.5125650000000  0.4831480000000 1.0
C      1  0.5368150000000  0.4505500000000  0.4976930000000 1.0
C      1  0.4271270000000  0.4432530000000  0.4663460000000 1.0
C      1  0.5187650000000  0.5568650000000  0.4317310000000 1.0
C      1  0.5085140000000  0.5091410000000  0.4104890000000 1.0
C      1  0.5570080000000  0.4274220000000  0.4981590000000 1.0
C      1  0.4156520000000  0.5090010000000  0.5513740000000 1.0
C      1  0.5310060000000  0.4095150000000  0.4651840000000 1.0
C      1  0.4647300000000  0.4611450000000  0.5642060000000 1.0
C      1  0.4109710000000  0.4846850000000  0.4546110000000 1.0
C      1  0.4342760000000  0.4695460000000  0.5306390000000 1.0
C      1  0.4715750000000  0.5197040000000  0.5536980000000 1.0
C      1  0.5198730000000  0.5914840000000  0.4626690000000 1.0
C      1  0.4826080000000  0.5439340000000  0.5708410000000 1.0
C      1  0.5487610000000  0.4729660000000  0.5318650000000 1.0
C      1  0.4451680000000  0.4800150000000  0.5740290000000 1.0
C      1  0.5960340000000  0.4762560000000  0.5373950000000 1.0
C      1  0.5340140000000  0.4961530000000  0.4108410000000 1.0
C      1  0.5396200000000  0.5163360000000  0.5447160000000 1.0
C      1  0.5529650000000  0.5212300000000  0.5172150000000 1.0
C      1  0.4633300000000  0.4783870000000  0.4502570000000 1.0
C      1  0.5266740000000  0.4525280000000  0.5280470000000 1.0
C      1  0.4963280000000  0.5296520000000  0.5912850000000 1.0
C      1  0.5019260000000  0.4809740000000  0.4865090000000 1.0
C      1  0.5411900000000  0.4055570000000  0.4911810000000 1.0
C      1  0.4969880000000  0.4835140000000  0.5949310000000 1.0
C      1  0.5677520000000  0.5439920000000  0.5580890000000 1.0
C      1  0.5103310000000  0.5285240000000  0.4346360000000 1.0
C      1  0.4547990000000  0.5072040000000  0.5787620000000 1.0
C      1  0.4629100000000  0.5734800000000  0.5171970000000 1.0
C      1  0.4980500000000  0.4546770000000  0.5826360000000 1.0
C      1  0.4423110000000  0.5539360000000  0.5055370000000 1.0
C      1  0.5448620000000  0.4163080000000  0.5379120000000 1.0
C      1  0.4841320000000  0.5227000000000  0.4488240000000 1.0
C      1  0.4468430000000  0.4657910000000  0.4261310000000 1.0
C      1  0.4225350000000  0.4617050000000  0.4440590000000 1.0
C      1  0.5107480000000  0.4509590000000  0.4841860000000 1.0
C      1  0.5081890000000  0.5830900000000  0.5532220000000 1.0
C      1  0.4932590000000  0.5663140000000  0.5105290000000 1.0
C      1  0.5387730000000  0.4876520000000  0.4603690000000 1.0
C      1  0.5101120000000  0.4788620000000  0.4575460000000 1.0
C      1  0.5878730000000  0.4828480000000  0.4582020000000 1.0
C      1  0.4652270000000  0.4223300000000  0.4923050000000 1.0
C      1  0.5320700000000  0.4351430000000  0.5531550000000 1.0
C      1  0.5104950000000  0.4466000000000  0.4538860000000 1.0
C      1  0.4555380000000  0.5898000000000  0.4900360000000 1.0
C      1  0.5536510000000  0.4906150000000  0.5555800000000 1.0
C      1  0.4350620000000  0.5517000000000  0.5515850000000 1.0
C      1  0.5570700000000  0.5064680000000  0.4263700000000 1.0
C      1  0.4367540000000  0.5705240000000  0.4816230000000 1.0
C      1  0.5444990000000  0.5762060000000  0.4652190000000 1.0
C      1  0.4917660000000  0.4232640000000  0.4491140000000 1.0
C      1  0.5115570000000  0.5145040000000  0.5310510000000 1.0
C      1  0.4536810000000  0.4855510000000  0.4749520000000 1.0
C      1  0.4644100000000  0.4254110000000  0.4428660000000 1.0
C      1  0.4494260000000  0.4263920000000  0.4675310000000 1.0
C      1  0.4749060000000  0.5967210000000  0.4715060000000 1.0
C      1  0.4864590000000  0.5305670000000  0.4793860000000 1.0
C      1  0.4196250000000  0.5093980000000  0.4418960000000 1.0
C      1  0.4180890000000  0.4539240000000  0.4908660000000 1.0
C      1  0.4230630000000  0.5455370000000  0.5263400000000 1.0
C      1  0.5308670000000  0.5171860000000  0.4577070000000 1.0
C      1  0.5737990000000  0.4552530000000  0.5293280000000 1.0
C      1  0.4879140000000  0.4034380000000  0.4927010000000 1.0
C      1  0.4577790000000  0.5705730000000  0.5460110000000 1.0
C      1  0.5345960000000  0.5407570000000  0.5020220000000 1.0
C      1  0.4565890000000  0.5613600000000  0.4399720000000 1.0
C      1  0.5505880000000  0.4544010000000  0.4305860000000 1.0
C      1  0.4261020000000  0.5286440000000  0.4614470000000 1.0
C      1  0.5240410000000  0.5239880000000  0.5890650000000 1.0
C      1  0.4315720000000  0.4458560000000  0.5157100000000 1.0
C      1  0.4606540000000  0.5142370000000  0.5254950000000 1.0
C      1  0.4762680000000  0.5813050000000  0.4463870000000 1.0
C      1  0.5361040000000  0.4350430000000  0.4474150000000 1.0
C      1  0.4073000000000  0.4810630000000  0.4837870000000 1.0
C      1  0.4813920000000  0.4748860000000  0.5409410000000 1.0
C      1  0.4325810000000  0.5266630000000  0.5667640000000 1.0
C      1  0.4720170000000  0.4770830000000  0.4945660000000 1.0
C      1  0.5289320000000  0.5612510000000  0.5475720000000 1.0
C      1  0.5087000000000  0.6040800000000  0.5347600000000 1.0
C      1  0.5270630000000  0.4030870000000  0.5179400000000 1.0
C      1  0.4112500000000  0.5190200000000  0.5245930000000 1.0
C      1  0.4989350000000  0.4058150000000  0.5187980000000 1.0
C      1  0.5028550000000  0.4047500000000  0.4675370000000 1.0
C      1  0.4599470000000  0.5277600000000  0.4984480000000 1.0
C      1  0.4789500000000  0.4374420000000  0.5672030000000 1.0
C      1  0.4423850000000  0.5133390000000  0.4240660000000 1.0
C      1  0.5675460000000  0.4280010000000  0.5242390000000 1.0
C      1  0.5171310000000  0.5001640000000  0.5038450000000 1.0
C      1  0.4796610000000  0.5062220000000  0.5957900000000 1.0
C      1  0.5909240000000  0.5263950000000  0.4873200000000 1.0
C      1  0.5933510000000  0.4671960000000  0.5114260000000 1.0
C      1  0.4809190000000  0.4267810000000  0.5366770000000 1.0
C      1  0.5450660000000  0.4926790000000  0.5087660000000 1.0
C      1  0.4848950000000  0.4938160000000  0.4128580000000 1.0
END
