TITL C-85610-1169-1 -0.355584269946667 125000 -667.113238368719 0 0 96 (C1) n - 1
REM
REM in /rds/project/t2_vol4/rds-t2-cs072/BORA/CARBON/from-Arr/AIRSS/Generating-Clusters/GAP-ML-2020/Only-C1/SD-CG/HFTN-CG
REM
REM
REM
REM
REM
REM ./C.cell (11c1c37f851c82e70ff6c80c92926a4b)
REM AIRSS Version 0.9.1 bugfix July 2018 build 013d7b7c2542+ Fri, 06 Jul 2018 19:26:36 +0100
REM compiler GCC version 9.3.0
REM options -cpp -mtune=generic -march=x86-64 -g -O0
REM seed -15775543 932438007 -1488215168 1569210293 -348781775 670441823 1230292862 116809194 1287670034 -1343581484 1226932219 -320246242 1769369295 721069052 192810410 271269294 -1753439279 -594854346 -2077148372 -1644099696 -1136440874 -1879022175 -350919066 718625656 -1727284695 -2101703971 1258378255 278666262 1925451248 1009633955 -182371238 2071533387 31015218
REM
CELL 1.54180   50.00000   50.00000   50.00000   90.00000   90.00000   90.00000
LATT -1
SFAC C  
C      1  0.4459240000000  0.5318630000000  0.4429510000000 1.0
C      1  0.5406750000000  0.5531530000000  0.5511970000000 1.0
C      1  0.4990330000000  0.5431210000000  0.5726550000000 1.0
C      1  0.4827500000000  0.4614450000000  0.5130290000000 1.0
C      1  0.4298100000000  0.5122950000000  0.4849630000000 1.0
C      1  0.5076930000000  0.4896750000000  0.5791830000000 1.0
C      1  0.5284530000000  0.5243720000000  0.4589030000000 1.0
C      1  0.4803380000000  0.4992510000000  0.5823350000000 1.0
C      1  0.5353410000000  0.4293250000000  0.5116310000000 1.0
C      1  0.4178510000000  0.4645230000000  0.4760460000000 1.0
C      1  0.5506540000000  0.5646190000000  0.4944710000000 1.0
C      1  0.4590140000000  0.4575760000000  0.5676570000000 1.0
C      1  0.4464280000000  0.4339870000000  0.5036630000000 1.0
C      1  0.5045920000000  0.5814500000000  0.4972990000000 1.0
C      1  0.4403350000000  0.4537640000000  0.5466060000000 1.0
C      1  0.4961390000000  0.5751250000000  0.5385430000000 1.0
C      1  0.5292590000000  0.5383620000000  0.4333940000000 1.0
C      1  0.5050310000000  0.4388410000000  0.5553040000000 1.0
C      1  0.5672420000000  0.5126450000000  0.5454920000000 1.0
C      1  0.5452590000000  0.4726840000000  0.5572450000000 1.0
C      1  0.5624020000000  0.5400050000000  0.5376070000000 1.0
C      1  0.4921990000000  0.4201360000000  0.4845820000000 1.0
C      1  0.4995450000000  0.5142740000000  0.4612220000000 1.0
C      1  0.4598130000000  0.5614110000000  0.5058810000000 1.0
C      1  0.4460880000000  0.4857290000000  0.4439160000000 1.0
C      1  0.4228150000000  0.4491560000000  0.4999320000000 1.0
C      1  0.5562120000000  0.5179340000000  0.4498520000000 1.0
C      1  0.4450560000000  0.5590400000000  0.4794490000000 1.0
C      1  0.5240670000000  0.4988820000000  0.4968290000000 1.0
C      1  0.5787630000000  0.5272880000000  0.4920250000000 1.0
C      1  0.5300600000000  0.4754290000000  0.5126470000000 1.0
C      1  0.4760800000000  0.4896990000000  0.5035810000000 1.0
C      1  0.4970970000000  0.4676110000000  0.4684960000000 1.0
C      1  0.5601170000000  0.4919640000000  0.4388240000000 1.0
C      1  0.5427810000000  0.4880970000000  0.4171210000000 1.0
C      1  0.5276910000000  0.4517850000000  0.4932080000000 1.0
C      1  0.5176570000000  0.4601960000000  0.4467490000000 1.0
C      1  0.5561370000000  0.5612750000000  0.4660110000000 1.0
C      1  0.4848310000000  0.5391060000000  0.4727400000000 1.0
C      1  0.4371520000000  0.4622640000000  0.4567600000000 1.0
C      1  0.4619360000000  0.5504400000000  0.4549440000000 1.0
C      1  0.5308530000000  0.5800250000000  0.5101300000000 1.0
C      1  0.4576100000000  0.4858390000000  0.5716300000000 1.0
C      1  0.4885080000000  0.5550110000000  0.4330740000000 1.0
C      1  0.4900910000000  0.5003770000000  0.5282200000000 1.0
C      1  0.4248860000000  0.4761770000000  0.5405630000000 1.0
C      1  0.5511040000000  0.4988000000000  0.5647400000000 1.0
C      1  0.4142520000000  0.4727880000000  0.5152800000000 1.0
C      1  0.5260860000000  0.5739550000000  0.5371330000000 1.0
C      1  0.4566280000000  0.4420420000000  0.4574760000000 1.0
C      1  0.5179930000000  0.4829150000000  0.4273000000000 1.0
C      1  0.5715590000000  0.5362530000000  0.4653710000000 1.0
C      1  0.4717420000000  0.4808660000000  0.4324370000000 1.0
C      1  0.4360650000000  0.5101570000000  0.4548680000000 1.0
C      1  0.5824080000000  0.4992760000000  0.5001910000000 1.0
C      1  0.5286990000000  0.5097230000000  0.5777400000000 1.0
C      1  0.5211080000000  0.5254840000000  0.5059700000000 1.0
C      1  0.4764740000000  0.5266630000000  0.5777380000000 1.0
C      1  0.5625520000000  0.4724200000000  0.4602070000000 1.0
C      1  0.5569190000000  0.4689470000000  0.5308260000000 1.0
C      1  0.4744510000000  0.5345390000000  0.5001920000000 1.0
C      1  0.4263470000000  0.5418740000000  0.4920570000000 1.0
C      1  0.5259580000000  0.5379900000000  0.5718670000000 1.0
C      1  0.5403340000000  0.4559450000000  0.4653220000000 1.0
C      1  0.4980450000000  0.4933580000000  0.4819310000000 1.0
C      1  0.5090910000000  0.5704760000000  0.4467550000000 1.0
C      1  0.4443530000000  0.5227990000000  0.5357200000000 1.0
C      1  0.4124770000000  0.4888970000000  0.4910450000000 1.0
C      1  0.5748750000000  0.4928650000000  0.5267880000000 1.0
C      1  0.5627440000000  0.4423220000000  0.5170740000000 1.0
C      1  0.5772080000000  0.4506840000000  0.4963480000000 1.0
C      1  0.4946470000000  0.5016770000000  0.4322640000000 1.0
C      1  0.5791540000000  0.4750600000000  0.4835880000000 1.0
C      1  0.4381880000000  0.4981330000000  0.5528580000000 1.0
C      1  0.5163160000000  0.4671280000000  0.5605430000000 1.0
C      1  0.5035010000000  0.4177970000000  0.4589450000000 1.0
C      1  0.5013400000000  0.4365410000000  0.4396560000000 1.0
C      1  0.4763540000000  0.4519100000000  0.4393640000000 1.0
C      1  0.5061170000000  0.4760430000000  0.5310550000000 1.0
C      1  0.5013150000000  0.5320450000000  0.4231590000000 1.0
C      1  0.5272170000000  0.5435520000000  0.4828710000000 1.0
C      1  0.4963420000000  0.5282050000000  0.5205390000000 1.0
C      1  0.4619500000000  0.5367450000000  0.5542630000000 1.0
C      1  0.4822010000000  0.5805970000000  0.5143040000000 1.0
C      1  0.4977400000000  0.4490680000000  0.4900780000000 1.0
C      1  0.4767670000000  0.4388090000000  0.5552170000000 1.0
C      1  0.5686320000000  0.5465890000000  0.5104430000000 1.0
C      1  0.5160450000000  0.4232910000000  0.5333880000000 1.0
C      1  0.4875290000000  0.5495280000000  0.5462080000000 1.0
C      1  0.5045590000000  0.5624600000000  0.4749630000000 1.0
C      1  0.4363430000000  0.5476920000000  0.5192970000000 1.0
C      1  0.5365240000000  0.5642210000000  0.4424120000000 1.0
C      1  0.4554040000000  0.5114870000000  0.5049220000000 1.0
C      1  0.4622340000000  0.4273750000000  0.4811470000000 1.0
C      1  0.5106690000000  0.4118290000000  0.5094500000000 1.0
C      1  0.4611690000000  0.4429500000000  0.5281270000000 1.0
END
