TITL C-85613-2969-6 -0.0770781805268204 125000 -382.092228578399 0 0 57 (C1) n - 1
REM
REM in /rds/project/t2_vol4/rds-t2-cs072/BORA/CARBON/from-Arr/AIRSS/Generating-Clusters/GAP-ML-2020/Only-C1/SD-CG/HFTN-CG
REM
REM
REM
REM
REM
REM ./C.cell (11c1c37f851c82e70ff6c80c92926a4b)
REM AIRSS Version 0.9.1 bugfix July 2018 build 013d7b7c2542+ Fri, 06 Jul 2018 19:26:36 +0100
REM compiler GCC version 9.3.0
REM options -cpp -mtune=generic -march=x86-64 -g -O0
REM seed 186050434 9529118 1764635868 -1121853195 -219419117 -241569342 1504539863 -129699060 1063511340 -190055812 733485249 -966210223 -150653254 1826982516 1783610272 1297102626 1367250261 -168589296 -1506972756 1222604047 -853452787 213857718 -1196244168 1235109416 906430573 -1922353670 -1061834837 1924300937 -736495116 -1010720038 -502951958 -1231207911 -1978169277
REM
CELL 1.54180   50.00000   50.00000   50.00000   90.00000   90.00000   90.00000
LATT -1
SFAC C  
C      1  0.4748900000000  0.5363220000000  0.5583910000000 1.0
C      1  0.4530720000000  0.4755900000000  0.5323480000000 1.0
C      1  0.4525700000000  0.5231170000000  0.5452880000000 1.0
C      1  0.5162790000000  0.5373610000000  0.5438290000000 1.0
C      1  0.5516000000000  0.5054300000000  0.4917080000000 1.0
C      1  0.4952080000000  0.5028620000000  0.4842170000000 1.0
C      1  0.5128140000000  0.5178570000000  0.5203260000000 1.0
C      1  0.5501720000000  0.4895560000000  0.4679960000000 1.0
C      1  0.4429080000000  0.4663270000000  0.4717040000000 1.0
C      1  0.5536370000000  0.4949020000000  0.5200170000000 1.0
C      1  0.5067880000000  0.4774430000000  0.4881530000000 1.0
C      1  0.4709280000000  0.5435420000000  0.4745270000000 1.0
C      1  0.4347940000000  0.4948020000000  0.4783820000000 1.0
C      1  0.5102850000000  0.5656970000000  0.5048230000000 1.0
C      1  0.4847250000000  0.5129510000000  0.5096910000000 1.0
C      1  0.4630610000000  0.4924950000000  0.5126230000000 1.0
C      1  0.5132650000000  0.4667530000000  0.5166340000000 1.0
C      1  0.4544980000000  0.4948740000000  0.5526890000000 1.0
C      1  0.5417010000000  0.5247630000000  0.4336080000000 1.0
C      1  0.4922760000000  0.5134900000000  0.4368270000000 1.0
C      1  0.4794740000000  0.4648710000000  0.4413850000000 1.0
C      1  0.4603680000000  0.4452460000000  0.4810500000000 1.0
C      1  0.5203420000000  0.4802760000000  0.4154510000000 1.0
C      1  0.5383220000000  0.5275630000000  0.5586300000000 1.0
C      1  0.4849420000000  0.4431120000000  0.4623180000000 1.0
C      1  0.4763220000000  0.4906400000000  0.5701530000000 1.0
C      1  0.4895760000000  0.5158820000000  0.5739190000000 1.0
C      1  0.5336150000000  0.4410500000000  0.4817630000000 1.0
C      1  0.4938160000000  0.5557040000000  0.5475420000000 1.0
C      1  0.4932500000000  0.4564260000000  0.5382120000000 1.0
C      1  0.4430710000000  0.5291510000000  0.5181970000000 1.0
C      1  0.4488280000000  0.5037160000000  0.4541890000000 1.0
C      1  0.4604940000000  0.4367360000000  0.5071210000000 1.0
C      1  0.5136730000000  0.5311400000000  0.4737530000000 1.0
C      1  0.4959860000000  0.4855670000000  0.4281650000000 1.0
C      1  0.5166480000000  0.5273490000000  0.4445630000000 1.0
C      1  0.5512240000000  0.4991910000000  0.4410800000000 1.0
C      1  0.4392700000000  0.5058250000000  0.5031070000000 1.0
C      1  0.5246610000000  0.4913850000000  0.5294740000000 1.0
C      1  0.5332140000000  0.5275690000000  0.4949930000000 1.0
C      1  0.5186250000000  0.5120970000000  0.5718570000000 1.0
C      1  0.4662840000000  0.4498380000000  0.5303800000000 1.0
C      1  0.5593400000000  0.5446380000000  0.5223050000000 1.0
C      1  0.4963560000000  0.4721450000000  0.5614090000000 1.0
C      1  0.4979050000000  0.5750060000000  0.5283500000000 1.0
C      1  0.4547490000000  0.4761340000000  0.4471530000000 1.0
C      1  0.5305310000000  0.4692150000000  0.4723890000000 1.0
C      1  0.5564780000000  0.5210100000000  0.5370130000000 1.0
C      1  0.5608870000000  0.4656410000000  0.5192310000000 1.0
C      1  0.4971460000000  0.5528120000000  0.4826020000000 1.0
C      1  0.4695290000000  0.5228920000000  0.4529400000000 1.0
C      1  0.5455400000000  0.4817120000000  0.4185310000000 1.0
C      1  0.5092050000000  0.4333890000000  0.4720470000000 1.0
C      1  0.4652910000000  0.5363760000000  0.5011670000000 1.0
C      1  0.5399780000000  0.4511700000000  0.5088760000000 1.0
C      1  0.5394970000000  0.5539740000000  0.5063400000000 1.0
C      1  0.5200900000000  0.4874160000000  0.5585640000000 1.0
END
