TITL C-85409-893-1 290.48528767761 125000 -531.070824704822 0 0 76 (C1) n - 1
REM
REM in /rds/project/t2_vol4/rds-t2-cs072/BORA/CARBON/from-Arr/AIRSS/Generating-Clusters/GAP-ML-2020/Only-C1/SD-CG/HFTN-CG
REM
REM
REM
REM
REM
REM ./C.cell (11c1c37f851c82e70ff6c80c92926a4b)
REM AIRSS Version 0.9.1 bugfix July 2018 build 013d7b7c2542+ Fri, 06 Jul 2018 19:26:36 +0100
REM compiler GCC version 9.3.0
REM options -cpp -mtune=generic -march=x86-64 -g -O0
REM seed 153607997 2053845787 -900098347 1023034809 2126494099 562845907 -655910023 1827728118 -1209055831 -1613733366 1952637207 2085863691 -805341595 -291419166 -891812613 -1749241267 530908267 -453002836 -572395428 -914910985 470272927 -968720749 -1849082923 1717826388 1692493986 -320099907 1392875952 -1117305589 2011722011 1070249964 -157111606 1335682928 -91163954
REM
CELL 1.54180   50.00000   50.00000   50.00000   90.00000   90.00000   90.00000
LATT -1
SFAC C  
C      1  0.5464230000000  0.4863040000000  0.4429270000000 1.0
C      1  0.5035070000000  0.4353370000000  0.5193420000000 1.0
C      1  0.4572890000000  0.4895690000000  0.5713940000000 1.0
C      1  0.5408930000000  0.4432820000000  0.4715600000000 1.0
C      1  0.4680720000000  0.5512540000000  0.4480460000000 1.0
C      1  0.5255820000000  0.5643390000000  0.5293100000000 1.0
C      1  0.4757960000000  0.5704680000000  0.5307930000000 1.0
C      1  0.4699100000000  0.5139820000000  0.4741690000000 1.0
C      1  0.5277590000000  0.4746040000000  0.5570610000000 1.0
C      1  0.4252110000000  0.4865840000000  0.5408610000000 1.0
C      1  0.5830610000000  0.5154630000000  0.4651450000000 1.0
C      1  0.5426510000000  0.5007330000000  0.5573700000000 1.0
C      1  0.5903760000000  0.5380210000000  0.4810620000000 1.0
C      1  0.5002700000000  0.4669600000000  0.5597930000000 1.0
C      1  0.4581890000000  0.4528870000000  0.5380790000000 1.0
C      1  0.5121170000000  0.5395720000000  0.4540390000000 1.0
C      1  0.4989640000000  0.5194650000000  0.4716020000000 1.0
C      1  0.4667600000000  0.5659640000000  0.5043740000000 1.0
C      1  0.5427580000000  0.4591250000000  0.5390700000000 1.0
C      1  0.5144140000000  0.4358430000000  0.4681270000000 1.0
C      1  0.4848770000000  0.4874910000000  0.5726970000000 1.0
C      1  0.4944790000000  0.5325020000000  0.4990670000000 1.0
C      1  0.4589170000000  0.5070430000000  0.4316340000000 1.0
C      1  0.4460960000000  0.4462140000000  0.4875490000000 1.0
C      1  0.4551540000000  0.4601050000000  0.4442880000000 1.0
C      1  0.4380810000000  0.5213720000000  0.5105180000000 1.0
C      1  0.4695880000000  0.4317800000000  0.4791140000000 1.0
C      1  0.4404510000000  0.4533530000000  0.5141520000000 1.0
C      1  0.4986690000000  0.4436920000000  0.4448490000000 1.0
C      1  0.4378410000000  0.4646560000000  0.4662570000000 1.0
C      1  0.4697440000000  0.4799540000000  0.4298340000000 1.0
C      1  0.4443260000000  0.4708620000000  0.5555440000000 1.0
C      1  0.4235940000000  0.4982650000000  0.4967890000000 1.0
C      1  0.5097230000000  0.5169380000000  0.5196200000000 1.0
C      1  0.4930300000000  0.5621970000000  0.4896640000000 1.0
C      1  0.5397590000000  0.5012240000000  0.4835610000000 1.0
C      1  0.5540810000000  0.5127930000000  0.4584300000000 1.0
C      1  0.5410090000000  0.5473190000000  0.4878140000000 1.0
C      1  0.4700440000000  0.5317290000000  0.4283230000000 1.0
C      1  0.4719600000000  0.5340960000000  0.5685380000000 1.0
C      1  0.4691670000000  0.5123970000000  0.5029930000000 1.0
C      1  0.5115230000000  0.5212140000000  0.5497110000000 1.0
C      1  0.4783570000000  0.5601460000000  0.5569570000000 1.0
C      1  0.5013920000000  0.5695220000000  0.5428740000000 1.0
C      1  0.5491020000000  0.4421790000000  0.4985860000000 1.0
C      1  0.5130170000000  0.4942640000000  0.4731820000000 1.0
C      1  0.5359870000000  0.5285880000000  0.5599010000000 1.0
C      1  0.4897490000000  0.4948980000000  0.5140420000000 1.0
C      1  0.5187190000000  0.4859370000000  0.4418620000000 1.0
C      1  0.5567810000000  0.4638020000000  0.4581700000000 1.0
C      1  0.4286110000000  0.4912550000000  0.4702210000000 1.0
C      1  0.4998890000000  0.4797680000000  0.4937680000000 1.0
C      1  0.4510060000000  0.5379330000000  0.4680700000000 1.0
C      1  0.5633220000000  0.5007920000000  0.5379020000000 1.0
C      1  0.4323130000000  0.5139310000000  0.5401550000000 1.0
C      1  0.4450040000000  0.5476080000000  0.4951240000000 1.0
C      1  0.4927980000000  0.5147510000000  0.5700360000000 1.0
C      1  0.4979660000000  0.4701550000000  0.4314280000000 1.0
C      1  0.5947420000000  0.4910940000000  0.4688770000000 1.0
C      1  0.5700120000000  0.4609840000000  0.5024640000000 1.0
C      1  0.5313870000000  0.4403540000000  0.5209320000000 1.0
C      1  0.4961150000000  0.4298880000000  0.4911620000000 1.0
C      1  0.5597400000000  0.5283820000000  0.5230560000000 1.0
C      1  0.4870150000000  0.4477280000000  0.5408630000000 1.0
C      1  0.5460070000000  0.5468020000000  0.5407220000000 1.0
C      1  0.4492240000000  0.5170130000000  0.5636930000000 1.0
C      1  0.4429790000000  0.5113880000000  0.4561330000000 1.0
C      1  0.4722120000000  0.4384810000000  0.4517390000000 1.0
C      1  0.5214430000000  0.5643060000000  0.5011970000000 1.0
C      1  0.5704490000000  0.5424560000000  0.4978970000000 1.0
C      1  0.5783750000000  0.4707120000000  0.4759980000000 1.0
C      1  0.4925320000000  0.5597860000000  0.4601330000000 1.0
C      1  0.5388590000000  0.5382720000000  0.4597620000000 1.0
C      1  0.5356780000000  0.5196210000000  0.5052650000000 1.0
C      1  0.4225600000000  0.4761770000000  0.5153370000000 1.0
C      1  0.5645430000000  0.4740760000000  0.5274230000000 1.0
END
