TITL C-87697-5366-7 -165.998303186182 125000 -452.581985931915 0 0 67 (C1) n - 1
REM
REM in /rds/project/t2_vol4/rds-t2-cs072/BORA/CARBON/from-Arr/AIRSS/Generating-Clusters/GAP-ML-2020/Only-C1/SD-CG/HFTN-CG
REM
REM
REM
REM
REM
REM ./C.cell (11c1c37f851c82e70ff6c80c92926a4b)
REM AIRSS Version 0.9.1 bugfix July 2018 build 013d7b7c2542+ Fri, 06 Jul 2018 19:26:36 +0100
REM compiler GCC version 9.3.0
REM options -cpp -mtune=generic -march=x86-64 -g -O0
REM seed -1108165753 1130276441 1694542950 -1570385313 1636524748 -710877422 1365770468 -78605836 925661406 565201056 -1196643313 -298837535 -258392642 975773810 -653776482 1546878792 911075389 -2108334954 -1487055705 -14593333 -333770128 924928399 37991363 -219721848 -1827711949 837264945 685314073 1238786993 -383793095 1218584668 -79128131 1790110518 -1470494696
REM
CELL 1.54180   50.00000   50.00000   50.00000   90.00000   90.00000   90.00000
LATT -1
SFAC C  
C      1  0.4737280000000  0.4445560000000  0.5350490000000 1.0
C      1  0.4875390000000  0.4651360000000  0.4141270000000 1.0
C      1  0.5273510000000  0.5224700000000  0.5057780000000 1.0
C      1  0.4848400000000  0.5588680000000  0.4831640000000 1.0
C      1  0.5466760000000  0.5376200000000  0.5461420000000 1.0
C      1  0.4569160000000  0.4601840000000  0.4714000000000 1.0
C      1  0.4624210000000  0.5138750000000  0.5712370000000 1.0
C      1  0.5181060000000  0.4350450000000  0.5027760000000 1.0
C      1  0.5586470000000  0.4736170000000  0.4565150000000 1.0
C      1  0.4500000000000  0.5489570000000  0.5368000000000 1.0
C      1  0.4914610000000  0.4355130000000  0.4899920000000 1.0
C      1  0.4405340000000  0.4827120000000  0.5104840000000 1.0
C      1  0.5267360000000  0.4527760000000  0.4403870000000 1.0
C      1  0.4410060000000  0.5004400000000  0.5607340000000 1.0
C      1  0.5716430000000  0.5222290000000  0.5139990000000 1.0
C      1  0.4500170000000  0.4875350000000  0.4653310000000 1.0
C      1  0.5321800000000  0.5200000000000  0.4552550000000 1.0
C      1  0.5130340000000  0.5560840000000  0.4773910000000 1.0
C      1  0.5631720000000  0.5410790000000  0.4955520000000 1.0
C      1  0.4592390000000  0.4624700000000  0.5518710000000 1.0
C      1  0.4867770000000  0.5062990000000  0.5357580000000 1.0
C      1  0.4858610000000  0.5585860000000  0.5559910000000 1.0
C      1  0.5455430000000  0.4476020000000  0.4612250000000 1.0
C      1  0.4421940000000  0.5299840000000  0.4886910000000 1.0
C      1  0.5224920000000  0.4444610000000  0.5297480000000 1.0
C      1  0.5411480000000  0.4778950000000  0.4345740000000 1.0
C      1  0.4619550000000  0.5442670000000  0.4718320000000 1.0
C      1  0.5049970000000  0.4834380000000  0.5277780000000 1.0
C      1  0.5354350000000  0.5506660000000  0.5002050000000 1.0
C      1  0.4838680000000  0.4702770000000  0.5649150000000 1.0
C      1  0.4498920000000  0.4574140000000  0.4981560000000 1.0
C      1  0.5744780000000  0.5132120000000  0.4887970000000 1.0
C      1  0.5327980000000  0.5582280000000  0.5313720000000 1.0
C      1  0.4615020000000  0.5045070000000  0.5183700000000 1.0
C      1  0.4997420000000  0.4863510000000  0.4527670000000 1.0
C      1  0.4814910000000  0.4463500000000  0.4647810000000 1.0
C      1  0.4828310000000  0.5062780000000  0.4943230000000 1.0
C      1  0.5131870000000  0.5555980000000  0.5537810000000 1.0
C      1  0.5038300000000  0.5120350000000  0.4179840000000 1.0
C      1  0.4983590000000  0.5257760000000  0.5144310000000 1.0
C      1  0.4901270000000  0.4899480000000  0.4070620000000 1.0
C      1  0.4719090000000  0.5289460000000  0.4505920000000 1.0
C      1  0.4884390000000  0.4985760000000  0.5669400000000 1.0
C      1  0.4978590000000  0.4824790000000  0.4990860000000 1.0
C      1  0.5262830000000  0.5318380000000  0.5652560000000 1.0
C      1  0.4396210000000  0.4803310000000  0.5419650000000 1.0
C      1  0.5337190000000  0.5051930000000  0.4812270000000 1.0
C      1  0.5465830000000  0.5146240000000  0.5289850000000 1.0
C      1  0.4726500000000  0.5660950000000  0.5308160000000 1.0
C      1  0.4940470000000  0.5348400000000  0.4341630000000 1.0
C      1  0.4455960000000  0.5298180000000  0.5168850000000 1.0
C      1  0.5178790000000  0.5051330000000  0.5652650000000 1.0
C      1  0.4973220000000  0.4575630000000  0.4414590000000 1.0
C      1  0.5594590000000  0.4887340000000  0.4821810000000 1.0
C      1  0.5152540000000  0.5419580000000  0.4533110000000 1.0
C      1  0.5538500000000  0.4657060000000  0.5032050000000 1.0
C      1  0.5414600000000  0.4443630000000  0.4886810000000 1.0
C      1  0.4350700000000  0.5006740000000  0.4850380000000 1.0
C      1  0.5151300000000  0.4831200000000  0.4776170000000 1.0
C      1  0.4867900000000  0.5547430000000  0.5101380000000 1.0
C      1  0.4995230000000  0.4563080000000  0.5430520000000 1.0
C      1  0.4746070000000  0.5019900000000  0.4607620000000 1.0
C      1  0.4639570000000  0.5405350000000  0.5613470000000 1.0
C      1  0.4696490000000  0.4398100000000  0.5085140000000 1.0
C      1  0.5236820000000  0.5005730000000  0.4354930000000 1.0
C      1  0.5435390000000  0.4649000000000  0.5298720000000 1.0
C      1  0.5323680000000  0.4908130000000  0.5416250000000 1.0
END
