TITL C-87680-5318-5 208.376383600876 125000 -339.452396221484 0 0 51 (C1) n - 1
REM
REM in /rds/project/t2_vol4/rds-t2-cs072/BORA/CARBON/from-Arr/AIRSS/Generating-Clusters/GAP-ML-2020/Only-C1/SD-CG/HFTN-CG
REM
REM
REM
REM
REM
REM ./C.cell (11c1c37f851c82e70ff6c80c92926a4b)
REM AIRSS Version 0.9.1 bugfix July 2018 build 013d7b7c2542+ Fri, 06 Jul 2018 19:26:36 +0100
REM compiler GCC version 9.3.0
REM options -cpp -mtune=generic -march=x86-64 -g -O0
REM seed -1347851918 929294096 -457087787 -2109778211 1817929398 -662102578 -1688151320 664013062 -697928675 1140978626 861487120 -659808587 305415420 -706506654 -112194143 2039017561 1400476839 -911947702 45686360 2094060417 -912668319 -1269236019 1732254454 485019047 -55664030 793029602 -1536372682 19539832 520742545 -668258629 1713770900 895095775 677567418
REM
CELL 1.54180   50.00000   50.00000   50.00000   90.00000   90.00000   90.00000
LATT -1
SFAC C  
C      1  0.5432540000000  0.5464800000000  0.4847250000000 1.0
C      1  0.5229870000000  0.5170310000000  0.4224880000000 1.0
C      1  0.5452170000000  0.4868610000000  0.5358520000000 1.0
C      1  0.5386640000000  0.5480830000000  0.5348090000000 1.0
C      1  0.5557030000000  0.5045960000000  0.4667960000000 1.0
C      1  0.5705790000000  0.4957090000000  0.4889010000000 1.0
C      1  0.5095830000000  0.4918700000000  0.5671790000000 1.0
C      1  0.5203650000000  0.4545540000000  0.5122420000000 1.0
C      1  0.4590490000000  0.4741280000000  0.4754910000000 1.0
C      1  0.5284530000000  0.5368390000000  0.4405960000000 1.0
C      1  0.5269760000000  0.5327520000000  0.5539140000000 1.0
C      1  0.5315420000000  0.5430440000000  0.5086930000000 1.0
C      1  0.4680240000000  0.4733910000000  0.5409620000000 1.0
C      1  0.5034410000000  0.4271670000000  0.4450140000000 1.0
C      1  0.4684600000000  0.4469230000000  0.4753530000000 1.0
C      1  0.4944860000000  0.4436450000000  0.5192880000000 1.0
C      1  0.4800030000000  0.4951140000000  0.4776170000000 1.0
C      1  0.4937010000000  0.4927060000000  0.5249520000000 1.0
C      1  0.5021640000000  0.4970830000000  0.4973590000000 1.0
C      1  0.4797670000000  0.5474200000000  0.4450070000000 1.0
C      1  0.5283210000000  0.4376020000000  0.4437940000000 1.0
C      1  0.4676540000000  0.5240110000000  0.4534970000000 1.0
C      1  0.4809020000000  0.4320290000000  0.4562100000000 1.0
C      1  0.5402010000000  0.4585470000000  0.4511690000000 1.0
C      1  0.4286050000000  0.5146240000000  0.5253590000000 1.0
C      1  0.5064040000000  0.5552220000000  0.4450440000000 1.0
C      1  0.4399270000000  0.5098900000000  0.4998570000000 1.0
C      1  0.4615440000000  0.5227270000000  0.4835380000000 1.0
C      1  0.4913280000000  0.5199490000000  0.5302620000000 1.0
C      1  0.5253810000000  0.4794340000000  0.4930170000000 1.0
C      1  0.4859560000000  0.5026940000000  0.4502150000000 1.0
C      1  0.5476880000000  0.5323570000000  0.4622800000000 1.0
C      1  0.4865290000000  0.5085740000000  0.5680380000000 1.0
C      1  0.5322830000000  0.4844410000000  0.4617630000000 1.0
C      1  0.4705090000000  0.4445650000000  0.5044030000000 1.0
C      1  0.4613340000000  0.4959010000000  0.5585340000000 1.0
C      1  0.5124560000000  0.5004850000000  0.4420810000000 1.0
C      1  0.4419290000000  0.4803260000000  0.4971800000000 1.0
C      1  0.4879010000000  0.4532530000000  0.5465290000000 1.0
C      1  0.5044770000000  0.5286850000000  0.5051630000000 1.0
C      1  0.4537830000000  0.4641190000000  0.5172410000000 1.0
C      1  0.4969100000000  0.5346980000000  0.5553260000000 1.0
C      1  0.5107170000000  0.4647070000000  0.5587030000000 1.0
C      1  0.5327860000000  0.5050510000000  0.5557390000000 1.0
C      1  0.4858740000000  0.5611020000000  0.5435850000000 1.0
C      1  0.4383340000000  0.5076590000000  0.5482860000000 1.0
C      1  0.5513190000000  0.4888410000000  0.5070160000000 1.0
C      1  0.4916170000000  0.5592650000000  0.4682920000000 1.0
C      1  0.4831250000000  0.5461550000000  0.4935630000000 1.0
C      1  0.4812370000000  0.5648600000000  0.5191040000000 1.0
C      1  0.5305500000000  0.4628310000000  0.5379750000000 1.0
END
