TITL C-87690-5379-3 145.20084761043 125000 -668.315972650495 0 0 96 (C1) n - 1
REM
REM in /rds/project/t2_vol4/rds-t2-cs072/BORA/CARBON/from-Arr/AIRSS/Generating-Clusters/GAP-ML-2020/Only-C1/SD-CG/HFTN-CG
REM
REM
REM
REM
REM
REM ./C.cell (11c1c37f851c82e70ff6c80c92926a4b)
REM AIRSS Version 0.9.1 bugfix July 2018 build 013d7b7c2542+ Fri, 06 Jul 2018 19:26:36 +0100
REM compiler GCC version 9.3.0
REM options -cpp -mtune=generic -march=x86-64 -g -O0
REM seed 1737132988 -1332411321 2021369824 -811089799 -33721357 -1936779831 -1559441911 1965542779 -304090974 653678680 -1008420528 -320714432 54692771 1929015266 -804837945 -1067118131 1470931411 65072109 581960816 1964218565 -90162388 -80343738 -666284829 962109136 919528274 -982636827 2076036327 942893143 142744893 -1590857112 -2064621622 1045890317 1665521895
REM
CELL 1.54180   50.00000   50.00000   50.00000   90.00000   90.00000   90.00000
LATT -1
SFAC C  
C      1  0.5160280000000  0.5321790000000  0.4820740000000 1.0
C      1  0.4279650000000  0.4640050000000  0.4947550000000 1.0
C      1  0.5395750000000  0.5691960000000  0.5223740000000 1.0
C      1  0.5709480000000  0.4891480000000  0.5465880000000 1.0
C      1  0.4546580000000  0.5328590000000  0.4322400000000 1.0
C      1  0.4793440000000  0.5081470000000  0.5594470000000 1.0
C      1  0.4864590000000  0.4218420000000  0.5226810000000 1.0
C      1  0.5667530000000  0.5044870000000  0.4491110000000 1.0
C      1  0.5567240000000  0.4399060000000  0.5496000000000 1.0
C      1  0.4868400000000  0.4980660000000  0.4748750000000 1.0
C      1  0.5339020000000  0.4907470000000  0.4190590000000 1.0
C      1  0.5570090000000  0.4811170000000  0.5025700000000 1.0
C      1  0.5604490000000  0.4753460000000  0.4532750000000 1.0
C      1  0.5583570000000  0.5532790000000  0.5064780000000 1.0
C      1  0.4632860000000  0.4889030000000  0.4857800000000 1.0
C      1  0.4823820000000  0.4909200000000  0.4182020000000 1.0
C      1  0.4847950000000  0.5959940000000  0.4790050000000 1.0
C      1  0.4715990000000  0.4363640000000  0.4976900000000 1.0
C      1  0.4676700000000  0.5439060000000  0.4573300000000 1.0
C      1  0.4280000000000  0.5341950000000  0.5435410000000 1.0
C      1  0.4820690000000  0.5058430000000  0.5250940000000 1.0
C      1  0.4333500000000  0.5164710000000  0.4414950000000 1.0
C      1  0.5726620000000  0.5210530000000  0.4720850000000 1.0
C      1  0.4860210000000  0.5859910000000  0.5046080000000 1.0
C      1  0.4273810000000  0.4574190000000  0.5498170000000 1.0
C      1  0.4792790000000  0.4396080000000  0.4682970000000 1.0
C      1  0.5540880000000  0.5259040000000  0.5161380000000 1.0
C      1  0.4775200000000  0.5323800000000  0.5084640000000 1.0
C      1  0.4445910000000  0.5478900000000  0.4742380000000 1.0
C      1  0.5589320000000  0.4665210000000  0.5611550000000 1.0
C      1  0.4465200000000  0.4446710000000  0.5356340000000 1.0
C      1  0.4611480000000  0.4557960000000  0.4538100000000 1.0
C      1  0.5190970000000  0.5639470000000  0.4767630000000 1.0
C      1  0.5321550000000  0.5580000000000  0.5484440000000 1.0
C      1  0.5332600000000  0.5392300000000  0.4357960000000 1.0
C      1  0.4614230000000  0.4764900000000  0.4323300000000 1.0
C      1  0.4696480000000  0.4834960000000  0.5128470000000 1.0
C      1  0.5628840000000  0.5479040000000  0.4772670000000 1.0
C      1  0.5185780000000  0.4913280000000  0.5791160000000 1.0
C      1  0.5137360000000  0.5713250000000  0.5061540000000 1.0
C      1  0.5285090000000  0.4782260000000  0.5182870000000 1.0
C      1  0.5858160000000  0.4503040000000  0.5158700000000 1.0
C      1  0.5002270000000  0.5535490000000  0.5498660000000 1.0
C      1  0.5608100000000  0.4171060000000  0.5066380000000 1.0
C      1  0.4989320000000  0.5299770000000  0.5663130000000 1.0
C      1  0.5543770000000  0.4612220000000  0.4791150000000 1.0
C      1  0.5438450000000  0.5341140000000  0.5594880000000 1.0
C      1  0.5050290000000  0.5410160000000  0.4300520000000 1.0
C      1  0.4175500000000  0.4851730000000  0.5129820000000 1.0
C      1  0.5310810000000  0.5085150000000  0.4756440000000 1.0
C      1  0.4046880000000  0.5189980000000  0.4788720000000 1.0
C      1  0.4848300000000  0.5213720000000  0.4170390000000 1.0
C      1  0.5234390000000  0.5195280000000  0.5736220000000 1.0
C      1  0.4529620000000  0.5182270000000  0.5674150000000 1.0
C      1  0.5425050000000  0.4674020000000  0.4335220000000 1.0
C      1  0.4869290000000  0.5267460000000  0.4800940000000 1.0
C      1  0.4896810000000  0.4551550000000  0.5648410000000 1.0
C      1  0.4991600000000  0.5794130000000  0.4622450000000 1.0
C      1  0.4754480000000  0.4422210000000  0.5416100000000 1.0
C      1  0.4628720000000  0.5357580000000  0.4062700000000 1.0
C      1  0.5149160000000  0.4546300000000  0.5091250000000 1.0
C      1  0.4388500000000  0.4894400000000  0.4444000000000 1.0
C      1  0.4440440000000  0.4432280000000  0.5067040000000 1.0
C      1  0.4496210000000  0.5489200000000  0.5037790000000 1.0
C      1  0.4210490000000  0.4832390000000  0.5418320000000 1.0
C      1  0.4237300000000  0.5310740000000  0.4640620000000 1.0
C      1  0.5787140000000  0.4770710000000  0.5215710000000 1.0
C      1  0.5580470000000  0.5078560000000  0.4934330000000 1.0
C      1  0.5116710000000  0.5010190000000  0.5192840000000 1.0
C      1  0.5220090000000  0.5261110000000  0.5118950000000 1.0
C      1  0.5166040000000  0.4236020000000  0.5228270000000 1.0
C      1  0.4851900000000  0.4578400000000  0.5148060000000 1.0
C      1  0.4284780000000  0.5080240000000  0.5553880000000 1.0
C      1  0.5607520000000  0.5163550000000  0.5437720000000 1.0
C      1  0.4422960000000  0.4739090000000  0.4704390000000 1.0
C      1  0.5064770000000  0.4440870000000  0.4590460000000 1.0
C      1  0.4640070000000  0.5715700000000  0.5188440000000 1.0
C      1  0.5131060000000  0.4874510000000  0.4758440000000 1.0
C      1  0.5224900000000  0.4574950000000  0.4799750000000 1.0
C      1  0.4704140000000  0.5628630000000  0.5460480000000 1.0
C      1  0.5297890000000  0.4306250000000  0.5493280000000 1.0
C      1  0.5027620000000  0.5471470000000  0.5204530000000 1.0
C      1  0.4892940000000  0.5600460000000  0.4445460000000 1.0
C      1  0.4918370000000  0.4836350000000  0.5720790000000 1.0
C      1  0.5165910000000  0.4467930000000  0.5677280000000 1.0
C      1  0.5343910000000  0.4685370000000  0.5754660000000 1.0
C      1  0.4268410000000  0.5353750000000  0.5162110000000 1.0
C      1  0.4514660000000  0.5457350000000  0.5569030000000 1.0
C      1  0.5159390000000  0.4552440000000  0.4343460000000 1.0
C      1  0.4134100000000  0.5124740000000  0.5038280000000 1.0
C      1  0.5748230000000  0.4294230000000  0.5311760000000 1.0
C      1  0.5070140000000  0.4782980000000  0.4177870000000 1.0
C      1  0.5416700000000  0.5551930000000  0.4598760000000 1.0
C      1  0.5718850000000  0.4392490000000  0.4912170000000 1.0
C      1  0.5473760000000  0.5145200000000  0.4295740000000 1.0
C      1  0.5366690000000  0.4060250000000  0.5103970000000 1.0
END
