TITL C-87683-5458-4 0.0650611863827812 125000 -296.768098153797 0 0 44 (C1) n - 1
REM
REM in /rds/project/t2_vol4/rds-t2-cs072/BORA/CARBON/from-Arr/AIRSS/Generating-Clusters/GAP-ML-2020/Only-C1/SD-CG/HFTN-CG
REM
REM
REM
REM
REM
REM ./C.cell (11c1c37f851c82e70ff6c80c92926a4b)
REM AIRSS Version 0.9.1 bugfix July 2018 build 013d7b7c2542+ Fri, 06 Jul 2018 19:26:36 +0100
REM compiler GCC version 9.3.0
REM options -cpp -mtune=generic -march=x86-64 -g -O0
REM seed -1679395089 1763451188 -231764030 -554166878 -2124300453 -129470329 -682613738 565112821 1441772678 119848077 -1041446755 -1389191954 -2065523268 -1123531240 623626594 -76995517 -1293925635 1638125533 275377329 -602201847 -1398583887 867708274 755727036 -1076880431 -324384501 644362208 -479744368 -1556323098 1317036969 -1243499297 1933699542 -445074604 2059972387
REM
CELL 1.54180   50.00000   50.00000   50.00000   90.00000   90.00000   90.00000
LATT -1
SFAC C  
C      1  0.4272620000000  0.5054090000000  0.5144860000000 1.0
C      1  0.5564860000000  0.5007170000000  0.5336080000000 1.0
C      1  0.5379500000000  0.5138760000000  0.4484210000000 1.0
C      1  0.4792350000000  0.5667260000000  0.4871190000000 1.0
C      1  0.4387810000000  0.5485850000000  0.4954940000000 1.0
C      1  0.4913780000000  0.5216500000000  0.4616540000000 1.0
C      1  0.5381650000000  0.4663380000000  0.4555340000000 1.0
C      1  0.4454700000000  0.4815280000000  0.4789430000000 1.0
C      1  0.5637520000000  0.4699860000000  0.4948020000000 1.0
C      1  0.5382340000000  0.4635640000000  0.5361080000000 1.0
C      1  0.4560620000000  0.5435100000000  0.5181830000000 1.0
C      1  0.4635830000000  0.5286310000000  0.4608820000000 1.0
C      1  0.5106860000000  0.4753960000000  0.4517130000000 1.0
C      1  0.5540090000000  0.4895230000000  0.4543500000000 1.0
C      1  0.4686780000000  0.4642030000000  0.4827560000000 1.0
C      1  0.5107570000000  0.4978820000000  0.5546520000000 1.0
C      1  0.4389020000000  0.4557520000000  0.5178470000000 1.0
C      1  0.4665870000000  0.4547310000000  0.5115240000000 1.0
C      1  0.4428920000000  0.5095340000000  0.4706970000000 1.0
C      1  0.4971830000000  0.5241760000000  0.4904780000000 1.0
C      1  0.4888420000000  0.4592660000000  0.5295850000000 1.0
C      1  0.5599370000000  0.5210350000000  0.4896360000000 1.0
C      1  0.5357330000000  0.4890750000000  0.5506760000000 1.0
C      1  0.5532620000000  0.5250910000000  0.5186240000000 1.0
C      1  0.5467810000000  0.5319210000000  0.4675070000000 1.0
C      1  0.5068580000000  0.5441840000000  0.5319900000000 1.0
C      1  0.5266520000000  0.4392980000000  0.4959350000000 1.0
C      1  0.4490960000000  0.5181030000000  0.5305710000000 1.0
C      1  0.5455600000000  0.4512830000000  0.4804040000000 1.0
C      1  0.5610540000000  0.4746200000000  0.5216630000000 1.0
C      1  0.5125600000000  0.4798010000000  0.4956190000000 1.0
C      1  0.4297970000000  0.4781920000000  0.5044520000000 1.0
C      1  0.5664560000000  0.4938840000000  0.4794210000000 1.0
C      1  0.4716350000000  0.5074220000000  0.5442450000000 1.0
C      1  0.4266610000000  0.5229540000000  0.4905480000000 1.0
C      1  0.5104980000000  0.5056300000000  0.4471610000000 1.0
C      1  0.4866130000000  0.4823000000000  0.5471200000000 1.0
C      1  0.5334100000000  0.5417190000000  0.5270630000000 1.0
C      1  0.4943620000000  0.4673990000000  0.4739050000000 1.0
C      1  0.5104310000000  0.5048120000000  0.5042350000000 1.0
C      1  0.5163030000000  0.4555800000000  0.5189320000000 1.0
C      1  0.4582190000000  0.5545750000000  0.4743110000000 1.0
C      1  0.4968200000000  0.5227280000000  0.5487210000000 1.0
C      1  0.4864080000000  0.5474100000000  0.5084270000000 1.0
END
