TITL C-87693-5454-2 -295.146255273438 125000 -652.51235321378 0 0 95 (C1) n - 1
REM
REM in /rds/project/t2_vol4/rds-t2-cs072/BORA/CARBON/from-Arr/AIRSS/Generating-Clusters/GAP-ML-2020/Only-C1/SD-CG/HFTN-CG
REM
REM
REM
REM
REM
REM ./C.cell (11c1c37f851c82e70ff6c80c92926a4b)
REM AIRSS Version 0.9.1 bugfix July 2018 build 013d7b7c2542+ Fri, 06 Jul 2018 19:26:36 +0100
REM compiler GCC version 9.3.0
REM options -cpp -mtune=generic -march=x86-64 -g -O0
REM seed 2073985666 786164558 -58608977 927638550 -271868159 1306890267 -2063829563 1163035324 -1421551776 437052777 -787011090 -570353037 -840864954 -1285107786 -119515995 687234207 820303560 -1216970258 -1959616196 1273133388 -1929814773 -927646766 923022860 1568138471 1924595600 -577773022 528380420 1570333857 385431123 -851980428 -138069906 130847934 548863066
REM
CELL 1.54180   50.00000   50.00000   50.00000   90.00000   90.00000   90.00000
LATT -1
SFAC C  
C      1  0.5037820000000  0.5027380000000  0.4542550000000 1.0
C      1  0.5651600000000  0.4769280000000  0.5375070000000 1.0
C      1  0.4580200000000  0.4710110000000  0.4387170000000 1.0
C      1  0.4428860000000  0.5748000000000  0.5165020000000 1.0
C      1  0.5068640000000  0.5275610000000  0.4356160000000 1.0
C      1  0.4848470000000  0.5223490000000  0.5748590000000 1.0
C      1  0.5761710000000  0.5225070000000  0.4599380000000 1.0
C      1  0.4595870000000  0.5176640000000  0.4882760000000 1.0
C      1  0.5618730000000  0.4528150000000  0.4932470000000 1.0
C      1  0.5097350000000  0.4649080000000  0.4819620000000 1.0
C      1  0.5455410000000  0.5614610000000  0.4529240000000 1.0
C      1  0.5140560000000  0.4958550000000  0.5177520000000 1.0
C      1  0.5358930000000  0.4384540000000  0.5355580000000 1.0
C      1  0.5211020000000  0.4195950000000  0.5185200000000 1.0
C      1  0.4960140000000  0.4238370000000  0.4777580000000 1.0
C      1  0.5008320000000  0.5120310000000  0.4108230000000 1.0
C      1  0.5523630000000  0.5169370000000  0.5793760000000 1.0
C      1  0.4438350000000  0.5185820000000  0.4464430000000 1.0
C      1  0.4584380000000  0.4596550000000  0.4664930000000 1.0
C      1  0.4281250000000  0.5526370000000  0.5119660000000 1.0
C      1  0.5290060000000  0.5001150000000  0.4696050000000 1.0
C      1  0.5680710000000  0.5491960000000  0.4704040000000 1.0
C      1  0.5516520000000  0.5196160000000  0.5489210000000 1.0
C      1  0.4500060000000  0.5584130000000  0.4691940000000 1.0
C      1  0.4875860000000  0.5710820000000  0.5311550000000 1.0
C      1  0.5403310000000  0.4103500000000  0.5007230000000 1.0
C      1  0.4230890000000  0.4882430000000  0.4894860000000 1.0
C      1  0.5776580000000  0.5025390000000  0.4809840000000 1.0
C      1  0.4810080000000  0.4575720000000  0.4282020000000 1.0
C      1  0.4446090000000  0.4953770000000  0.5543210000000 1.0
C      1  0.4780910000000  0.4300130000000  0.4347860000000 1.0
C      1  0.4937930000000  0.4186720000000  0.5058960000000 1.0
C      1  0.4696710000000  0.5194530000000  0.5161270000000 1.0
C      1  0.4872890000000  0.4836970000000  0.5516680000000 1.0
C      1  0.5273720000000  0.5014230000000  0.5450440000000 1.0
C      1  0.4720840000000  0.4721450000000  0.5120240000000 1.0
C      1  0.5559530000000  0.5403530000000  0.4949800000000 1.0
C      1  0.5443920000000  0.4903330000000  0.5854180000000 1.0
C      1  0.5308540000000  0.5597610000000  0.5079580000000 1.0
C      1  0.4736930000000  0.4323250000000  0.4615790000000 1.0
C      1  0.4404500000000  0.4404390000000  0.5594560000000 1.0
C      1  0.4972710000000  0.5178970000000  0.5045390000000 1.0
C      1  0.5678490000000  0.4752850000000  0.4760470000000 1.0
C      1  0.4330730000000  0.5145370000000  0.4739190000000 1.0
C      1  0.5069100000000  0.4576780000000  0.5791090000000 1.0
C      1  0.4972350000000  0.4737700000000  0.5265880000000 1.0
C      1  0.5252800000000  0.4851560000000  0.4942270000000 1.0
C      1  0.5161440000000  0.5652250000000  0.5336480000000 1.0
C      1  0.4551760000000  0.4982520000000  0.4298330000000 1.0
C      1  0.5334360000000  0.5285930000000  0.4747370000000 1.0
C      1  0.5119520000000  0.5414030000000  0.4901530000000 1.0
C      1  0.4286370000000  0.5364090000000  0.5362010000000 1.0
C      1  0.4848530000000  0.5038040000000  0.4786690000000 1.0
C      1  0.4492140000000  0.5424940000000  0.5552520000000 1.0
C      1  0.5356610000000  0.5361850000000  0.4431810000000 1.0
C      1  0.5436470000000  0.5404730000000  0.5685810000000 1.0
C      1  0.5183880000000  0.4878780000000  0.4127450000000 1.0
C      1  0.4502280000000  0.4649860000000  0.5671180000000 1.0
C      1  0.4695140000000  0.5761230000000  0.5093920000000 1.0
C      1  0.5720350000000  0.5169630000000  0.5052630000000 1.0
C      1  0.4744560000000  0.5065760000000  0.4121300000000 1.0
C      1  0.5231550000000  0.4596550000000  0.4542020000000 1.0
C      1  0.5170370000000  0.4835090000000  0.5893270000000 1.0
C      1  0.4521880000000  0.4499810000000  0.5102920000000 1.0
C      1  0.4933020000000  0.5484350000000  0.5693230000000 1.0
C      1  0.5697740000000  0.5050490000000  0.5309600000000 1.0
C      1  0.5200400000000  0.5542830000000  0.5598800000000 1.0
C      1  0.5285240000000  0.4513980000000  0.5599180000000 1.0
C      1  0.5225640000000  0.4337560000000  0.4665280000000 1.0
C      1  0.4818640000000  0.4746840000000  0.4836990000000 1.0
C      1  0.5454890000000  0.4303050000000  0.4831330000000 1.0
C      1  0.4970250000000  0.5613790000000  0.4687030000000 1.0
C      1  0.4312040000000  0.5432420000000  0.4847770000000 1.0
C      1  0.5596560000000  0.5186140000000  0.4376030000000 1.0
C      1  0.4675080000000  0.4239930000000  0.5156070000000 1.0
C      1  0.4591120000000  0.5427340000000  0.4474370000000 1.0
C      1  0.5252170000000  0.5761310000000  0.4654950000000 1.0
C      1  0.4485440000000  0.4318370000000  0.5342880000000 1.0
C      1  0.5540460000000  0.4916020000000  0.4291200000000 1.0
C      1  0.5583190000000  0.4538480000000  0.5223850000000 1.0
C      1  0.4129510000000  0.4972540000000  0.5133200000000 1.0
C      1  0.5470450000000  0.4789410000000  0.4548940000000 1.0
C      1  0.5046430000000  0.5016170000000  0.5676790000000 1.0
C      1  0.5054740000000  0.4736000000000  0.4352110000000 1.0
C      1  0.4568700000000  0.5189780000000  0.5687120000000 1.0
C      1  0.4722150000000  0.5717940000000  0.4811530000000 1.0
C      1  0.4229200000000  0.5081200000000  0.5361670000000 1.0
C      1  0.4873660000000  0.5468360000000  0.4449500000000 1.0
C      1  0.4368430000000  0.4623710000000  0.4867240000000 1.0
C      1  0.4789150000000  0.4640250000000  0.5701660000000 1.0
C      1  0.5449830000000  0.4760980000000  0.5589020000000 1.0
C      1  0.4729150000000  0.5602820000000  0.5535610000000 1.0
C      1  0.5304970000000  0.5834770000000  0.4912740000000 1.0
C      1  0.4650870000000  0.4948180000000  0.5322930000000 1.0
C      1  0.5439630000000  0.4842230000000  0.4045630000000 1.0
END
