TITL C-87688-5378-2 11.2439623527341 125000 -124.917039117393 0 0 20 (C1) n - 1
REM
REM in /rds/project/t2_vol4/rds-t2-cs072/BORA/CARBON/from-Arr/AIRSS/Generating-Clusters/GAP-ML-2020/Only-C1/SD-CG/HFTN-CG
REM
REM
REM
REM
REM
REM ./C.cell (11c1c37f851c82e70ff6c80c92926a4b)
REM AIRSS Version 0.9.1 bugfix July 2018 build 013d7b7c2542+ Fri, 06 Jul 2018 19:26:36 +0100
REM compiler GCC version 9.3.0
REM options -cpp -mtune=generic -march=x86-64 -g -O0
REM seed -617601887 476198794 810454017 126549684 -863483391 -1216035751 -1805401084 -750591388 434833272 1420332626 187420941 53107198 1727773135 -1017374104 181761020 -1841497551 881203680 80607262 -553306747 -762376971 -1299235776 -2137083854 1064757392 -1704804271 -2062796593 385046172 1873726087 -234231510 -2068016887 -293120544 655860009 -1481731565 -555221114
REM
CELL 1.54180   50.00000   50.00000   50.00000   90.00000   90.00000   90.00000
LATT -1
SFAC C  
C      1  0.4734590000000  0.5206920000000  0.4691490000000 1.0
C      1  0.5284050000000  0.5064960000000  0.4409390000000 1.0
C      1  0.4877620000000  0.4655030000000  0.5221860000000 1.0
C      1  0.4788230000000  0.4944900000000  0.4813010000000 1.0
C      1  0.5035930000000  0.4435110000000  0.5114550000000 1.0
C      1  0.5164680000000  0.5042870000000  0.5077450000000 1.0
C      1  0.4593190000000  0.4655780000000  0.5194080000000 1.0
C      1  0.4917350000000  0.5085280000000  0.5491690000000 1.0
C      1  0.4514340000000  0.5315840000000  0.4571750000000 1.0
C      1  0.5009830000000  0.4903780000000  0.5305490000000 1.0
C      1  0.4987920000000  0.5352720000000  0.4729550000000 1.0
C      1  0.4996810000000  0.5486720000000  0.5196170000000 1.0
C      1  0.5084950000000  0.4867690000000  0.4835490000000 1.0
C      1  0.5238500000000  0.4935110000000  0.4615260000000 1.0
C      1  0.5614690000000  0.4945700000000  0.5292840000000 1.0
C      1  0.4930790000000  0.5322280000000  0.5388700000000 1.0
C      1  0.5091190000000  0.4585700000000  0.4916200000000 1.0
C      1  0.5077480000000  0.5332000000000  0.4986810000000 1.0
C      1  0.5432010000000  0.5061770000000  0.5170980000000 1.0
C      1  0.4625840000000  0.4799840000000  0.4977250000000 1.0
END
