TITL C-87674-5387-6 -0.0499541306210338 125000 -299.594977325687 0 0 46 (C1) n - 1
REM
REM in /rds/project/t2_vol4/rds-t2-cs072/BORA/CARBON/from-Arr/AIRSS/Generating-Clusters/GAP-ML-2020/Only-C1/SD-CG/HFTN-CG
REM
REM
REM
REM
REM
REM ./C.cell (11c1c37f851c82e70ff6c80c92926a4b)
REM AIRSS Version 0.9.1 bugfix July 2018 build 013d7b7c2542+ Fri, 06 Jul 2018 19:26:36 +0100
REM compiler GCC version 9.3.0
REM options -cpp -mtune=generic -march=x86-64 -g -O0
REM seed -859950713 451478328 1454522834 -983054890 70807807 1582955437 -853046943 1469314142 -1424792308 -514606852 -604180567 1026348667 -983964623 -847806909 -1751660078 1672986014 -119581880 -1334337375 1601984541 -2039886335 522120137 -1338413525 1705313053 -946158141 1615953858 893119134 -1351004378 1589829879 -347157820 -675076329 100856580 900198651 -939664889
REM
CELL 1.54180   50.00000   50.00000   50.00000   90.00000   90.00000   90.00000
LATT -1
SFAC C  
C      1  0.4876780000000  0.4427070000000  0.4895880000000 1.0
C      1  0.5272320000000  0.5150810000000  0.4426820000000 1.0
C      1  0.5154900000000  0.5106900000000  0.5150150000000 1.0
C      1  0.5424280000000  0.5262930000000  0.5120740000000 1.0
C      1  0.4973240000000  0.4392510000000  0.5151390000000 1.0
C      1  0.4784800000000  0.5504400000000  0.4571700000000 1.0
C      1  0.5036720000000  0.4836150000000  0.4791550000000 1.0
C      1  0.4200890000000  0.4948590000000  0.5436400000000 1.0
C      1  0.5178140000000  0.4895960000000  0.5528640000000 1.0
C      1  0.5440990000000  0.5189520000000  0.4653520000000 1.0
C      1  0.5561490000000  0.5008600000000  0.5077270000000 1.0
C      1  0.4470510000000  0.5054640000000  0.4873170000000 1.0
C      1  0.5535060000000  0.4964800000000  0.4792570000000 1.0
C      1  0.4314750000000  0.4858770000000  0.5012770000000 1.0
C      1  0.5560860000000  0.4775550000000  0.5232750000000 1.0
C      1  0.4727700000000  0.4548740000000  0.5125400000000 1.0
C      1  0.4920730000000  0.5515920000000  0.5068320000000 1.0
C      1  0.4854410000000  0.5184480000000  0.5537760000000 1.0
C      1  0.5615750000000  0.4492200000000  0.4819450000000 1.0
C      1  0.5288490000000  0.5422090000000  0.5348950000000 1.0
C      1  0.5215060000000  0.4560660000000  0.5180850000000 1.0
C      1  0.4785010000000  0.5205300000000  0.4531880000000 1.0
C      1  0.4972160000000  0.4571070000000  0.4689180000000 1.0
C      1  0.4493240000000  0.4680490000000  0.5207930000000 1.0
C      1  0.4893130000000  0.4847720000000  0.5473850000000 1.0
C      1  0.5464900000000  0.5410360000000  0.4849420000000 1.0
C      1  0.4940120000000  0.5236500000000  0.5012160000000 1.0
C      1  0.5524240000000  0.5673010000000  0.4844350000000 1.0
C      1  0.4105410000000  0.4938870000000  0.5186790000000 1.0
C      1  0.5113640000000  0.5602770000000  0.5243190000000 1.0
C      1  0.4909810000000  0.5088830000000  0.4774650000000 1.0
C      1  0.5172950000000  0.4898740000000  0.4372830000000 1.0
C      1  0.5481740000000  0.4546220000000  0.5048930000000 1.0
C      1  0.4719530000000  0.5055920000000  0.5010460000000 1.0
C      1  0.5101210000000  0.4818390000000  0.5063970000000 1.0
C      1  0.5210740000000  0.4691690000000  0.4566460000000 1.0
C      1  0.4829060000000  0.4830790000000  0.5170860000000 1.0
C      1  0.4997500000000  0.5111540000000  0.4349970000000 1.0
C      1  0.5345440000000  0.4716060000000  0.5413950000000 1.0
C      1  0.4677640000000  0.4982470000000  0.5590030000000 1.0
C      1  0.5481150000000  0.4698420000000  0.4694100000000 1.0
C      1  0.4457860000000  0.4842000000000  0.5461740000000 1.0
C      1  0.4761820000000  0.5564470000000  0.4850480000000 1.0
C      1  0.4491770000000  0.5201970000000  0.4634600000000 1.0
C      1  0.4526220000000  0.5507230000000  0.4707230000000 1.0
C      1  0.5135840000000  0.5177910000000  0.5454920000000 1.0
END
