TITL C-87690-5379-8 0.0478332108599397 125000 -204.316158533149 0 0 31 (C1) n - 1
REM
REM in /rds/project/t2_vol4/rds-t2-cs072/BORA/CARBON/from-Arr/AIRSS/Generating-Clusters/GAP-ML-2020/Only-C1/SD-CG/HFTN-CG
REM
REM
REM
REM
REM
REM ./C.cell (11c1c37f851c82e70ff6c80c92926a4b)
REM AIRSS Version 0.9.1 bugfix July 2018 build 013d7b7c2542+ Fri, 06 Jul 2018 19:26:36 +0100
REM compiler GCC version 9.3.0
REM options -cpp -mtune=generic -march=x86-64 -g -O0
REM seed 1341975638 921494175 1677623638 721677814 -1449071967 375493844 -808812787 656011367 155122908 -638512849 -1905361588 390850773 1991745447 -1952052217 -372255702 -215621152 -1677643060 1385475575 -2122839700 -1141543314 -1491582703 -336055209 -2110601036 -1320697875 -730936589 969133744 -1768970346 2028707611 -127755138 -896073977 1743979068 -1235779110 397676610
REM
CELL 1.54180   50.00000   50.00000   50.00000   90.00000   90.00000   90.00000
LATT -1
SFAC C  
C      1  0.4645790000000  0.4646250000000  0.5172180000000 1.0
C      1  0.4916930000000  0.4601310000000  0.5156520000000 1.0
C      1  0.5580860000000  0.5069930000000  0.5346880000000 1.0
C      1  0.5027080000000  0.4790180000000  0.4974300000000 1.0
C      1  0.4565400000000  0.5377790000000  0.4931790000000 1.0
C      1  0.5378230000000  0.5064440000000  0.4813930000000 1.0
C      1  0.4871310000000  0.5083000000000  0.4616610000000 1.0
C      1  0.4697030000000  0.5097250000000  0.5304760000000 1.0
C      1  0.4833140000000  0.5051950000000  0.5035350000000 1.0
C      1  0.5436860000000  0.4831920000000  0.5251420000000 1.0
C      1  0.4452190000000  0.4931030000000  0.4802990000000 1.0
C      1  0.5505360000000  0.5060130000000  0.4564010000000 1.0
C      1  0.5050090000000  0.4842910000000  0.5534560000000 1.0
C      1  0.5160750000000  0.5259020000000  0.4785260000000 1.0
C      1  0.4597080000000  0.5355180000000  0.5212260000000 1.0
C      1  0.4957280000000  0.5077050000000  0.5425360000000 1.0
C      1  0.5404540000000  0.5258240000000  0.5372810000000 1.0
C      1  0.5308570000000  0.4857000000000  0.5007000000000 1.0
C      1  0.5291980000000  0.5058990000000  0.4388530000000 1.0
C      1  0.5020080000000  0.5310970000000  0.5031670000000 1.0
C      1  0.4786570000000  0.5485210000000  0.5051320000000 1.0
C      1  0.5141370000000  0.5249670000000  0.5290490000000 1.0
C      1  0.5051060000000  0.4579250000000  0.5397190000000 1.0
C      1  0.4962290000000  0.4805380000000  0.4694940000000 1.0
C      1  0.4469890000000  0.4789900000000  0.5018630000000 1.0
C      1  0.4643580000000  0.5132040000000  0.4787450000000 1.0
C      1  0.4534900000000  0.4869030000000  0.5293580000000 1.0
C      1  0.5240520000000  0.4804920000000  0.4289560000000 1.0
C      1  0.5106000000000  0.4706830000000  0.4494670000000 1.0
C      1  0.5078600000000  0.5242540000000  0.4508580000000 1.0
C      1  0.5284680000000  0.4710700000000  0.5445430000000 1.0
END
