TITL C-87697-5366-8 0.141170621305855 125000 -328.304971632963 0 0 48 (C1) n - 1
REM
REM in /rds/project/t2_vol4/rds-t2-cs072/BORA/CARBON/from-Arr/AIRSS/Generating-Clusters/GAP-ML-2020/Only-C1/SD-CG/HFTN-CG
REM
REM
REM
REM
REM
REM ./C.cell (11c1c37f851c82e70ff6c80c92926a4b)
REM AIRSS Version 0.9.1 bugfix July 2018 build 013d7b7c2542+ Fri, 06 Jul 2018 19:26:36 +0100
REM compiler GCC version 9.3.0
REM options -cpp -mtune=generic -march=x86-64 -g -O0
REM seed 23870920 -1792536524 -1938867872 -1201599403 -1360150565 48145283 470933841 -1735555819 1057080215 -537669179 475634401 882943577 2085342932 150322204 -1597433004 -1467137829 754061738 -1232192915 -1570897470 -1867694942 -1264980497 188933405 -598762420 -279853823 -576980265 -1168916605 659158962 -1695925608 1552913884 -1552767411 1637173531 -120505918 -790114462
REM
CELL 1.54180   50.00000   50.00000   50.00000   90.00000   90.00000   90.00000
LATT -1
SFAC C  
C      1  0.4723950000000  0.4494130000000  0.5038010000000 1.0
C      1  0.5381080000000  0.5110990000000  0.4448270000000 1.0
C      1  0.5152240000000  0.5436460000000  0.4584500000000 1.0
C      1  0.4486570000000  0.4878040000000  0.5171670000000 1.0
C      1  0.4848820000000  0.4734630000000  0.5448410000000 1.0
C      1  0.5533990000000  0.4601330000000  0.4846530000000 1.0
C      1  0.4504990000000  0.4968990000000  0.4868060000000 1.0
C      1  0.4431330000000  0.4699850000000  0.4724910000000 1.0
C      1  0.5084980000000  0.5540850000000  0.4837400000000 1.0
C      1  0.5089230000000  0.5196340000000  0.4426590000000 1.0
C      1  0.5649390000000  0.4689760000000  0.5254630000000 1.0
C      1  0.5470440000000  0.4542460000000  0.5112660000000 1.0
C      1  0.4477550000000  0.4705390000000  0.4231180000000 1.0
C      1  0.5290290000000  0.5270080000000  0.5483260000000 1.0
C      1  0.4911780000000  0.5510370000000  0.5261660000000 1.0
C      1  0.4283610000000  0.5294590000000  0.5180430000000 1.0
C      1  0.5649310000000  0.4967420000000  0.5231860000000 1.0
C      1  0.4621840000000  0.5181540000000  0.5499210000000 1.0
C      1  0.5480700000000  0.5052090000000  0.5440850000000 1.0
C      1  0.5464870000000  0.4867240000000  0.4539530000000 1.0
C      1  0.4775490000000  0.5012410000000  0.4764540000000 1.0
C      1  0.5644940000000  0.4864180000000  0.4772120000000 1.0
C      1  0.4398880000000  0.5079730000000  0.5343840000000 1.0
C      1  0.4670940000000  0.5451700000000  0.5404220000000 1.0
C      1  0.5002640000000  0.4466360000000  0.4970340000000 1.0
C      1  0.5305420000000  0.5481500000000  0.5027740000000 1.0
C      1  0.5655540000000  0.5080560000000  0.4960320000000 1.0
C      1  0.5064820000000  0.4552360000000  0.4690250000000 1.0
C      1  0.4656110000000  0.4668670000000  0.5255960000000 1.0
C      1  0.4509530000000  0.4474860000000  0.4861930000000 1.0
C      1  0.4556160000000  0.5513820000000  0.4951090000000 1.0
C      1  0.4986030000000  0.5088210000000  0.4950100000000 1.0
C      1  0.5282210000000  0.4855940000000  0.5545050000000 1.0
C      1  0.4450120000000  0.5519610000000  0.5225390000000 1.0
C      1  0.4835780000000  0.5003520000000  0.5558790000000 1.0
C      1  0.4842070000000  0.5558640000000  0.4985760000000 1.0
C      1  0.5182710000000  0.4954450000000  0.5024830000000 1.0
C      1  0.5511170000000  0.5327170000000  0.4889320000000 1.0
C      1  0.5121300000000  0.4648860000000  0.5423870000000 1.0
C      1  0.5102120000000  0.5080190000000  0.5605130000000 1.0
C      1  0.4583860000000  0.4674490000000  0.4469300000000 1.0
C      1  0.4908290000000  0.5004700000000  0.4511570000000 1.0
C      1  0.5430860000000  0.5342080000000  0.4616080000000 1.0
C      1  0.5333620000000  0.4618290000000  0.4638850000000 1.0
C      1  0.4877940000000  0.4720640000000  0.4536970000000 1.0
C      1  0.5194830000000  0.5461360000000  0.5294700000000 1.0
C      1  0.5194210000000  0.4493660000000  0.5186410000000 1.0
C      1  0.4385450000000  0.5259500000000  0.4905890000000 1.0
END
