TITL C-87689-5418-11 -0.0178036106115294 125000 -216.058315947905 0 0 32 (C1) n - 1
REM
REM in /rds/project/t2_vol4/rds-t2-cs072/BORA/CARBON/from-Arr/AIRSS/Generating-Clusters/GAP-ML-2020/Only-C1/SD-CG/HFTN-CG
REM
REM
REM
REM
REM
REM ./C.cell (11c1c37f851c82e70ff6c80c92926a4b)
REM AIRSS Version 0.9.1 bugfix July 2018 build 013d7b7c2542+ Fri, 06 Jul 2018 19:26:36 +0100
REM compiler GCC version 9.3.0
REM options -cpp -mtune=generic -march=x86-64 -g -O0
REM seed -2038192497 1304129013 -1024351054 -1840681336 1716453019 1544553190 683394774 -1962580915 1212088129 1203150734 302361804 306201724 -1126372587 979180680 332828197 230184263 -1448751143 -8642635 553308922 -105911972 149000626 -2050293045 931585498 1381895955 -533499994 -966677291 922103223 420743933 -299726088 1208074607 1309667195 1461063927 -520871464
REM
CELL 1.54180   50.00000   50.00000   50.00000   90.00000   90.00000   90.00000
LATT -1
SFAC C  
C      1  0.4758980000000  0.4751900000000  0.5030430000000 1.0
C      1  0.4443080000000  0.5043060000000  0.5193120000000 1.0
C      1  0.5150980000000  0.4478780000000  0.4773220000000 1.0
C      1  0.5055120000000  0.4467850000000  0.4514990000000 1.0
C      1  0.5299050000000  0.5296320000000  0.4929480000000 1.0
C      1  0.5283870000000  0.5307440000000  0.5221490000000 1.0
C      1  0.4871070000000  0.5256930000000  0.5499130000000 1.0
C      1  0.4880340000000  0.4973000000000  0.5434720000000 1.0
C      1  0.4662840000000  0.4872180000000  0.5271490000000 1.0
C      1  0.5409700000000  0.4613530000000  0.4803440000000 1.0
C      1  0.5194760000000  0.4943050000000  0.4511030000000 1.0
C      1  0.4461710000000  0.5323870000000  0.5219150000000 1.0
C      1  0.5409130000000  0.4879690000000  0.4678210000000 1.0
C      1  0.5007790000000  0.4537480000000  0.5022550000000 1.0
C      1  0.4997280000000  0.5138260000000  0.4589820000000 1.0
C      1  0.4996140000000  0.4728960000000  0.4491870000000 1.0
C      1  0.4545700000000  0.5344990000000  0.4921400000000 1.0
C      1  0.4667230000000  0.5417910000000  0.5368760000000 1.0
C      1  0.4865660000000  0.5545350000000  0.5196070000000 1.0
C      1  0.5075270000000  0.5424690000000  0.5351960000000 1.0
C      1  0.5359600000000  0.5047630000000  0.5322490000000 1.0
C      1  0.5471290000000  0.5072080000000  0.4879630000000 1.0
C      1  0.5139930000000  0.4864070000000  0.5371570000000 1.0
C      1  0.4821150000000  0.5444320000000  0.4928410000000 1.0
C      1  0.5049100000000  0.5337830000000  0.4778940000000 1.0
C      1  0.5205120000000  0.4612250000000  0.5231240000000 1.0
C      1  0.4796200000000  0.4920300000000  0.4572740000000 1.0
C      1  0.4464160000000  0.5070320000000  0.4891330000000 1.0
C      1  0.5456640000000  0.4653270000000  0.5088910000000 1.0
C      1  0.5523060000000  0.4927150000000  0.5121810000000 1.0
C      1  0.5045510000000  0.4836810000000  0.4993880000000 1.0
C      1  0.4632540000000  0.4868720000000  0.4796740000000 1.0
END
