TITL C-87674-5387-4 -0.0106953094531989 125000 -354.954046207808 0 0 52 (C1) n - 1
REM
REM in /rds/project/t2_vol4/rds-t2-cs072/BORA/CARBON/from-Arr/AIRSS/Generating-Clusters/GAP-ML-2020/Only-C1/SD-CG/HFTN-CG
REM
REM
REM
REM
REM
REM ./C.cell (11c1c37f851c82e70ff6c80c92926a4b)
REM AIRSS Version 0.9.1 bugfix July 2018 build 013d7b7c2542+ Fri, 06 Jul 2018 19:26:36 +0100
REM compiler GCC version 9.3.0
REM options -cpp -mtune=generic -march=x86-64 -g -O0
REM seed 1057472564 -698143979 2119965706 -1624221193 -1085101136 -1854773721 -958996696 1462442307 1754301771 2116829018 496851424 1032933429 -1715859543 731323596 1054835851 974976716 819382160 -365764234 -314477478 601620774 454661734 1840519415 -529648249 -1277204169 -1411729434 -315666219 -2022885153 -199352340 1591119235 -1491962899 -1251713295 -331327882 -836234594
REM
CELL 1.54180   50.00000   50.00000   50.00000   90.00000   90.00000   90.00000
LATT -1
SFAC C  
C      1  0.4373600000000  0.5294650000000  0.4776780000000 1.0
C      1  0.4834340000000  0.5506460000000  0.5662580000000 1.0
C      1  0.5523640000000  0.4901900000000  0.4720440000000 1.0
C      1  0.4896910000000  0.5480820000000  0.5111020000000 1.0
C      1  0.5374000000000  0.5346000000000  0.4711000000000 1.0
C      1  0.5182300000000  0.5052390000000  0.4411360000000 1.0
C      1  0.5446690000000  0.4380730000000  0.5293420000000 1.0
C      1  0.4810360000000  0.4964070000000  0.4919160000000 1.0
C      1  0.4753880000000  0.5209390000000  0.4506370000000 1.0
C      1  0.4605400000000  0.5069190000000  0.5121850000000 1.0
C      1  0.5008460000000  0.5701840000000  0.4701350000000 1.0
C      1  0.4963370000000  0.5732950000000  0.5260680000000 1.0
C      1  0.4832910000000  0.5252840000000  0.5519630000000 1.0
C      1  0.4956240000000  0.4791860000000  0.5562900000000 1.0
C      1  0.5074010000000  0.5935180000000  0.5100070000000 1.0
C      1  0.5297030000000  0.4294480000000  0.5052240000000 1.0
C      1  0.5560390000000  0.5017000000000  0.4989590000000 1.0
C      1  0.5100220000000  0.5918410000000  0.4847060000000 1.0
C      1  0.4684120000000  0.4471780000000  0.4715750000000 1.0
C      1  0.4618030000000  0.5390420000000  0.4688930000000 1.0
C      1  0.5482540000000  0.4456650000000  0.4883100000000 1.0
C      1  0.4627640000000  0.4867450000000  0.5340770000000 1.0
C      1  0.4909120000000  0.5717940000000  0.5536320000000 1.0
C      1  0.5412530000000  0.5277000000000  0.4991600000000 1.0
C      1  0.5016190000000  0.5287770000000  0.4440000000000 1.0
C      1  0.5205480000000  0.4946410000000  0.5530510000000 1.0
C      1  0.4357330000000  0.4577340000000  0.5003590000000 1.0
C      1  0.4704490000000  0.5312670000000  0.5255190000000 1.0
C      1  0.5415420000000  0.5104790000000  0.4558790000000 1.0
C      1  0.4853860000000  0.4657290000000  0.5297220000000 1.0
C      1  0.5028160000000  0.4311790000000  0.4984930000000 1.0
C      1  0.5128860000000  0.5206360000000  0.5439790000000 1.0
C      1  0.4579060000000  0.4412590000000  0.4983080000000 1.0
C      1  0.5022030000000  0.4824330000000  0.4467630000000 1.0
C      1  0.5618490000000  0.4555660000000  0.5111370000000 1.0
C      1  0.4799890000000  0.5551650000000  0.4836480000000 1.0
C      1  0.4803260000000  0.4390860000000  0.5162160000000 1.0
C      1  0.4369300000000  0.5070240000000  0.4924840000000 1.0
C      1  0.4764510000000  0.4924990000000  0.4590970000000 1.0
C      1  0.5144070000000  0.4593250000000  0.4574840000000 1.0
C      1  0.5145300000000  0.5272720000000  0.5149760000000 1.0
C      1  0.4564750000000  0.4717590000000  0.4631330000000 1.0
C      1  0.4364150000000  0.4791200000000  0.4831160000000 1.0
C      1  0.4997750000000  0.4777620000000  0.5060360000000 1.0
C      1  0.5434040000000  0.4797510000000  0.5457090000000 1.0
C      1  0.5156700000000  0.5489110000000  0.4584530000000 1.0
C      1  0.5409880000000  0.4633920000000  0.4683740000000 1.0
C      1  0.5595690000000  0.4824270000000  0.5198460000000 1.0
C      1  0.5419880000000  0.4512250000000  0.5525810000000 1.0
C      1  0.5072350000000  0.5030150000000  0.4996680000000 1.0
C      1  0.4962130000000  0.4415570000000  0.4715500000000 1.0
C      1  0.4739280000000  0.4978680000000  0.5580210000000 1.0
END
