TITL C-87702-6552-6 91.0371945753491 125000 -537.792329534021 0 0 79 (C1) n - 1
REM
REM in /rds/project/t2_vol4/rds-t2-cs072/BORA/CARBON/from-Arr/AIRSS/Generating-Clusters/GAP-ML-2020/Only-C1/SD-CG/HFTN-CG
REM
REM
REM
REM
REM
REM ./C.cell (11c1c37f851c82e70ff6c80c92926a4b)
REM AIRSS Version 0.9.1 bugfix July 2018 build 013d7b7c2542+ Fri, 06 Jul 2018 19:26:36 +0100
REM compiler GCC version 9.3.0
REM options -cpp -mtune=generic -march=x86-64 -g -O0
REM seed -2069463769 1450326154 898142390 -1530120198 -1848578530 2015115079 -623808294 -1522842640 -1392621275 -82348831 -323732357 1989599152 -651299751 2079632854 1593986892 -847913074 -2051299183 44557964 1737251444 577859068 951134647 811642068 -23208781 2057411356 320662 -1933175665 -1132241963 -1997494475 -96602627 485649945 1255481166 -199231898 -1072177824
REM
CELL 1.54180   50.00000   50.00000   50.00000   90.00000   90.00000   90.00000
LATT -1
SFAC C  
C      1  0.5382020000000  0.5631620000000  0.5070110000000 1.0
C      1  0.5658770000000  0.5105050000000  0.4595800000000 1.0
C      1  0.5224960000000  0.4853570000000  0.4881840000000 1.0
C      1  0.5004730000000  0.5765990000000  0.5582700000000 1.0
C      1  0.4781920000000  0.5200520000000  0.4903730000000 1.0
C      1  0.4584550000000  0.4855600000000  0.4649430000000 1.0
C      1  0.4511680000000  0.5363840000000  0.4967930000000 1.0
C      1  0.4697860000000  0.4377490000000  0.5236760000000 1.0
C      1  0.5184740000000  0.4896960000000  0.4326070000000 1.0
C      1  0.5640100000000  0.4829640000000  0.4585760000000 1.0
C      1  0.4744200000000  0.4723120000000  0.4252140000000 1.0
C      1  0.4582810000000  0.4626700000000  0.4468050000000 1.0
C      1  0.5010390000000  0.5332390000000  0.4297970000000 1.0
C      1  0.5268680000000  0.4506550000000  0.4333910000000 1.0
C      1  0.4650920000000  0.5445580000000  0.5426190000000 1.0
C      1  0.5111390000000  0.4332250000000  0.4964060000000 1.0
C      1  0.5289410000000  0.5731250000000  0.5601700000000 1.0
C      1  0.4364240000000  0.5348420000000  0.4701660000000 1.0
C      1  0.5189170000000  0.4944150000000  0.5154980000000 1.0
C      1  0.4786030000000  0.4953390000000  0.5050420000000 1.0
C      1  0.5803670000000  0.4802760000000  0.5074190000000 1.0
C      1  0.5603900000000  0.5364390000000  0.5313710000000 1.0
C      1  0.4807390000000  0.5741100000000  0.5086330000000 1.0
C      1  0.5043200000000  0.5096080000000  0.4491000000000 1.0
C      1  0.5423670000000  0.4751620000000  0.4410810000000 1.0
C      1  0.5211250000000  0.5238910000000  0.5145390000000 1.0
C      1  0.4519090000000  0.4417260000000  0.4679410000000 1.0
C      1  0.4595510000000  0.4775800000000  0.5613270000000 1.0
C      1  0.5191550000000  0.5047660000000  0.5716970000000 1.0
C      1  0.4609670000000  0.5381050000000  0.4522900000000 1.0
C      1  0.5573890000000  0.4441660000000  0.4923700000000 1.0
C      1  0.4706960000000  0.4998190000000  0.4184550000000 1.0
C      1  0.5359300000000  0.4308810000000  0.4774210000000 1.0
C      1  0.4738970000000  0.5276490000000  0.5631130000000 1.0
C      1  0.4651590000000  0.4207500000000  0.4780130000000 1.0
C      1  0.5140570000000  0.4379380000000  0.5457300000000 1.0
C      1  0.5046730000000  0.4643520000000  0.4829060000000 1.0
C      1  0.5387180000000  0.5574460000000  0.5378170000000 1.0
C      1  0.5062650000000  0.5308650000000  0.4908400000000 1.0
C      1  0.5297690000000  0.4589240000000  0.5575300000000 1.0
C      1  0.4842230000000  0.4647280000000  0.5651910000000 1.0
C      1  0.5508340000000  0.4421570000000  0.5198950000000 1.0
C      1  0.4726390000000  0.5616600000000  0.4678340000000 1.0
C      1  0.4863100000000  0.4427120000000  0.5466730000000 1.0
C      1  0.4373560000000  0.4553980000000  0.4905600000000 1.0
C      1  0.5103470000000  0.5572500000000  0.5762210000000 1.0
C      1  0.5720800000000  0.4680100000000  0.4839160000000 1.0
C      1  0.5634390000000  0.5114840000000  0.5449490000000 1.0
C      1  0.5538470000000  0.4617400000000  0.5408660000000 1.0
C      1  0.5195100000000  0.5506360000000  0.4378740000000 1.0
C      1  0.5493360000000  0.5362710000000  0.5036620000000 1.0
C      1  0.4423230000000  0.4752760000000  0.5375480000000 1.0
C      1  0.4562640000000  0.5059580000000  0.5629210000000 1.0
C      1  0.4716090000000  0.5272130000000  0.4254200000000 1.0
C      1  0.5342260000000  0.5534950000000  0.4607380000000 1.0
C      1  0.4454990000000  0.5312680000000  0.5261150000000 1.0
C      1  0.5126740000000  0.5406110000000  0.5367640000000 1.0
C      1  0.4946670000000  0.4893700000000  0.5258190000000 1.0
C      1  0.5334160000000  0.4306380000000  0.4502300000000 1.0
C      1  0.5033860000000  0.5296470000000  0.5655040000000 1.0
C      1  0.4748030000000  0.5118880000000  0.4621680000000 1.0
C      1  0.4596330000000  0.5636150000000  0.4932110000000 1.0
C      1  0.4323140000000  0.4809160000000  0.4792370000000 1.0
C      1  0.5251300000000  0.4306050000000  0.5214980000000 1.0
C      1  0.4395500000000  0.5059860000000  0.5389560000000 1.0
C      1  0.5483120000000  0.5284400000000  0.4727040000000 1.0
C      1  0.4940250000000  0.5758340000000  0.4826880000000 1.0
C      1  0.5209070000000  0.5121950000000  0.4730190000000 1.0
C      1  0.5111620000000  0.4766090000000  0.5704670000000 1.0
C      1  0.5444220000000  0.5099290000000  0.5640840000000 1.0
C      1  0.5037680000000  0.4669720000000  0.4238790000000 1.0
C      1  0.5696790000000  0.4851290000000  0.5325020000000 1.0
C      1  0.4120710000000  0.5229870000000  0.4671310000000 1.0
C      1  0.4820500000000  0.4252910000000  0.4997720000000 1.0
C      1  0.4883200000000  0.5616250000000  0.5340630000000 1.0
C      1  0.4782150000000  0.4746400000000  0.4853770000000 1.0
C      1  0.4113410000000  0.4976630000000  0.4729400000000 1.0
C      1  0.5200160000000  0.5633320000000  0.4845340000000 1.0
C      1  0.4459970000000  0.4539640000000  0.5183520000000 1.0
END
