TITL C-87699-5296-5 -0.070202900047384 125000 -186.706204732425 0 0 29 (C1) n - 1
REM
REM in /rds/project/t2_vol4/rds-t2-cs072/BORA/CARBON/from-Arr/AIRSS/Generating-Clusters/GAP-ML-2020/Only-C1/SD-CG/HFTN-CG
REM
REM
REM
REM
REM
REM ./C.cell (11c1c37f851c82e70ff6c80c92926a4b)
REM AIRSS Version 0.9.1 bugfix July 2018 build 013d7b7c2542+ Fri, 06 Jul 2018 19:26:36 +0100
REM compiler GCC version 9.3.0
REM options -cpp -mtune=generic -march=x86-64 -g -O0
REM seed -2031494230 -1257307575 562077135 801432278 770337832 -520496206 1927164780 1512409529 1213787069 -1045978553 824647459 -931141648 -472250552 -993766240 -889875946 -404292406 1449143819 192709546 1181881716 -704698767 1561640286 720345674 -1420223163 901116915 2012331702 943622888 1136850323 1028075151 -1164857125 -901494470 734974889 856185435 1037898992
REM
CELL 1.54180   50.00000   50.00000   50.00000   90.00000   90.00000   90.00000
LATT -1
SFAC C  
C      1  0.5289350000000  0.5007320000000  0.4881830000000 1.0
C      1  0.5165660000000  0.5092630000000  0.4628740000000 1.0
C      1  0.4650230000000  0.4970190000000  0.5264290000000 1.0
C      1  0.4854620000000  0.4832360000000  0.4474340000000 1.0
C      1  0.4687100000000  0.5246920000000  0.5319460000000 1.0
C      1  0.4848320000000  0.4579360000000  0.5138190000000 1.0
C      1  0.5111260000000  0.4689130000000  0.5203250000000 1.0
C      1  0.5234240000000  0.5471130000000  0.5082520000000 1.0
C      1  0.4924130000000  0.5224760000000  0.5438800000000 1.0
C      1  0.5209130000000  0.4833840000000  0.5452190000000 1.0
C      1  0.5100280000000  0.4932890000000  0.4412840000000 1.0
C      1  0.5564300000000  0.4819100000000  0.5164630000000 1.0
C      1  0.5381730000000  0.5261920000000  0.5211780000000 1.0
C      1  0.4989110000000  0.5303950000000  0.4676570000000 1.0
C      1  0.4658110000000  0.4713820000000  0.5314990000000 1.0
C      1  0.5010870000000  0.5429520000000  0.4941920000000 1.0
C      1  0.4796810000000  0.5019760000000  0.5010160000000 1.0
C      1  0.4743570000000  0.5344200000000  0.5040930000000 1.0
C      1  0.4703580000000  0.5283100000000  0.4605550000000 1.0
C      1  0.4829890000000  0.4579200000000  0.4609950000000 1.0
C      1  0.5393600000000  0.4588850000000  0.5177390000000 1.0
C      1  0.4575630000000  0.5404210000000  0.4825080000000 1.0
C      1  0.5161190000000  0.5098720000000  0.5337360000000 1.0
C      1  0.5487730000000  0.4745840000000  0.5421270000000 1.0
C      1  0.5083040000000  0.4960260000000  0.5078720000000 1.0
C      1  0.5518380000000  0.5060430000000  0.5033990000000 1.0
C      1  0.4628440000000  0.4878700000000  0.4824190000000 1.0
C      1  0.4762670000000  0.4624650000000  0.4866110000000 1.0
C      1  0.4637040000000  0.5003250000000  0.4562950000000 1.0
END
