TITL C-87685-6482-2 -0.074207426103103 125000 -252.160774189772 0 0 38 (C1) n - 1
REM
REM in /rds/project/t2_vol4/rds-t2-cs072/BORA/CARBON/from-Arr/AIRSS/Generating-Clusters/GAP-ML-2020/Only-C1/SD-CG/HFTN-CG
REM
REM
REM
REM
REM
REM ./C.cell (11c1c37f851c82e70ff6c80c92926a4b)
REM AIRSS Version 0.9.1 bugfix July 2018 build 013d7b7c2542+ Fri, 06 Jul 2018 19:26:36 +0100
REM compiler GCC version 9.3.0
REM options -cpp -mtune=generic -march=x86-64 -g -O0
REM seed -449996940 736286018 -1165001397 1357221966 1801507897 169989483 1489773165 1474166231 1768568473 -766420340 -1680654441 -1555486352 -1076220994 1374987991 688919016 -1222555675 -1658604506 1273863135 -476299523 604062369 615802929 1587627517 616067654 565313855 752149135 -708295251 2084512121 -2189874 1784889460 -14788992 1349626921 2034164339 -1825862069
REM
CELL 1.54180   50.00000   50.00000   50.00000   90.00000   90.00000   90.00000
LATT -1
SFAC C  
C      1  0.4792240000000  0.5565700000000  0.5397260000000 1.0
C      1  0.4355320000000  0.5077210000000  0.4917450000000 1.0
C      1  0.5067860000000  0.4519240000000  0.4738440000000 1.0
C      1  0.4404420000000  0.4969010000000  0.5168870000000 1.0
C      1  0.5198540000000  0.4971270000000  0.4648450000000 1.0
C      1  0.4706450000000  0.4707250000000  0.4971940000000 1.0
C      1  0.4878620000000  0.4472550000000  0.4945480000000 1.0
C      1  0.4758670000000  0.4880960000000  0.5466500000000 1.0
C      1  0.5349750000000  0.4525860000000  0.4810120000000 1.0
C      1  0.4539170000000  0.5221670000000  0.4786730000000 1.0
C      1  0.4993650000000  0.5580990000000  0.5213270000000 1.0
C      1  0.5144210000000  0.4620440000000  0.5287820000000 1.0
C      1  0.4893660000000  0.5608290000000  0.4926240000000 1.0
C      1  0.4638120000000  0.5365480000000  0.5287880000000 1.0
C      1  0.5485570000000  0.4907110000000  0.4633970000000 1.0
C      1  0.4572380000000  0.5099190000000  0.5358670000000 1.0
C      1  0.5513990000000  0.4640460000000  0.4624180000000 1.0
C      1  0.4921980000000  0.5187750000000  0.4979550000000 1.0
C      1  0.5554100000000  0.4877820000000  0.5114600000000 1.0
C      1  0.5012700000000  0.5219710000000  0.4682190000000 1.0
C      1  0.4743510000000  0.5131340000000  0.4588390000000 1.0
C      1  0.5328000000000  0.5416700000000  0.4928680000000 1.0
C      1  0.4779990000000  0.4872450000000  0.4510310000000 1.0
C      1  0.5494510000000  0.5034900000000  0.5332970000000 1.0
C      1  0.5351650000000  0.4667740000000  0.5065100000000 1.0
C      1  0.5023140000000  0.4894550000000  0.5337710000000 1.0
C      1  0.5554320000000  0.5291380000000  0.4882050000000 1.0
C      1  0.4674290000000  0.4620750000000  0.5369310000000 1.0
C      1  0.5145470000000  0.5319210000000  0.5150170000000 1.0
C      1  0.5606780000000  0.5024370000000  0.4870090000000 1.0
C      1  0.5096490000000  0.5499210000000  0.4746210000000 1.0
C      1  0.4905560000000  0.4917300000000  0.5051760000000 1.0
C      1  0.4496560000000  0.4691850000000  0.5170220000000 1.0
C      1  0.4684530000000  0.5393870000000  0.4975040000000 1.0
C      1  0.5014650000000  0.4752200000000  0.4570310000000 1.0
C      1  0.5235360000000  0.5108280000000  0.5335640000000 1.0
C      1  0.5167550000000  0.4874390000000  0.4924650000000 1.0
C      1  0.4916260000000  0.4471540000000  0.5231740000000 1.0
END
