TITL C-87675-5329-8 -0.335982657159343 125000 -545.47269090916 0 0 79 (C1) n - 1
REM
REM in /rds/project/t2_vol4/rds-t2-cs072/BORA/CARBON/from-Arr/AIRSS/Generating-Clusters/GAP-ML-2020/Only-C1/SD-CG/HFTN-CG
REM
REM
REM
REM
REM
REM ./C.cell (11c1c37f851c82e70ff6c80c92926a4b)
REM AIRSS Version 0.9.1 bugfix July 2018 build 013d7b7c2542+ Fri, 06 Jul 2018 19:26:36 +0100
REM compiler GCC version 9.3.0
REM options -cpp -mtune=generic -march=x86-64 -g -O0
REM seed -842835294 90565155 173225260 -2086644659 -1790424937 -949965304 -1294561345 -1915929886 1127642252 2133547456 -748233645 -1227750265 -2109834755 -1280606669 -963813418 -1600085774 -887070370 936686847 187935271 -1566370461 -326161790 -344516005 837498321 39958632 -1237166962 -843167539 2021217576 584851280 -1431624982 -1508712630 -1253631676 1305831560 -770169181
REM
CELL 1.54180   50.00000   50.00000   50.00000   90.00000   90.00000   90.00000
LATT -1
SFAC C  
C      1  0.4894580000000  0.4584550000000  0.4978490000000 1.0
C      1  0.4437720000000  0.4559790000000  0.4517980000000 1.0
C      1  0.5716750000000  0.4759210000000  0.5340260000000 1.0
C      1  0.4604850000000  0.4656370000000  0.4947780000000 1.0
C      1  0.5114890000000  0.5908530000000  0.4948100000000 1.0
C      1  0.4706150000000  0.4908740000000  0.4750380000000 1.0
C      1  0.5616210000000  0.4961840000000  0.5500900000000 1.0
C      1  0.5199820000000  0.4996070000000  0.4976490000000 1.0
C      1  0.5618970000000  0.5433790000000  0.5046220000000 1.0
C      1  0.5179370000000  0.4238690000000  0.5248440000000 1.0
C      1  0.5288350000000  0.5295420000000  0.5662730000000 1.0
C      1  0.4472460000000  0.5289160000000  0.4690240000000 1.0
C      1  0.5070120000000  0.5483570000000  0.4801980000000 1.0
C      1  0.5682350000000  0.4717370000000  0.4723990000000 1.0
C      1  0.4375440000000  0.4554020000000  0.4796130000000 1.0
C      1  0.4831990000000  0.5846620000000  0.4959370000000 1.0
C      1  0.4458100000000  0.4782350000000  0.5499790000000 1.0
C      1  0.5382700000000  0.5031060000000  0.5654640000000 1.0
C      1  0.4491440000000  0.4805160000000  0.5199150000000 1.0
C      1  0.5219560000000  0.5476740000000  0.5425700000000 1.0
C      1  0.4637190000000  0.5497780000000  0.4589560000000 1.0
C      1  0.4313890000000  0.4966650000000  0.5028430000000 1.0
C      1  0.4468860000000  0.5219660000000  0.4993850000000 1.0
C      1  0.4857080000000  0.5222180000000  0.4268720000000 1.0
C      1  0.5382490000000  0.4764590000000  0.4307170000000 1.0
C      1  0.5165790000000  0.4843700000000  0.5643960000000 1.0
C      1  0.4819810000000  0.5627950000000  0.4769290000000 1.0
C      1  0.5601750000000  0.4529850000000  0.5210810000000 1.0
C      1  0.4966150000000  0.4895610000000  0.4600290000000 1.0
C      1  0.5581050000000  0.5153080000000  0.4540620000000 1.0
C      1  0.4692690000000  0.4996650000000  0.4285910000000 1.0
C      1  0.5404250000000  0.5568190000000  0.5210950000000 1.0
C      1  0.5623130000000  0.4502870000000  0.4925970000000 1.0
C      1  0.4582160000000  0.5364400000000  0.5727850000000 1.0
C      1  0.4321220000000  0.4998380000000  0.5588980000000 1.0
C      1  0.5148280000000  0.4387900000000  0.4413300000000 1.0
C      1  0.4818690000000  0.5174670000000  0.5718620000000 1.0
C      1  0.5533860000000  0.5578090000000  0.4814990000000 1.0
C      1  0.4762360000000  0.4941100000000  0.5241210000000 1.0
C      1  0.4729690000000  0.5455010000000  0.4328490000000 1.0
C      1  0.5043610000000  0.5353140000000  0.5788310000000 1.0
C      1  0.5180050000000  0.4666190000000  0.5422490000000 1.0
C      1  0.5016020000000  0.5330730000000  0.5272740000000 1.0
C      1  0.4838740000000  0.4490160000000  0.5463810000000 1.0
C      1  0.4754850000000  0.5090630000000  0.4976180000000 1.0
C      1  0.5114840000000  0.5158180000000  0.4422480000000 1.0
C      1  0.4958770000000  0.4326610000000  0.4842620000000 1.0
C      1  0.4982550000000  0.5586460000000  0.5634940000000 1.0
C      1  0.4889070000000  0.4885050000000  0.5728030000000 1.0
C      1  0.5733790000000  0.5165100000000  0.5011210000000 1.0
C      1  0.4516760000000  0.5351880000000  0.5277850000000 1.0
C      1  0.4582620000000  0.5642610000000  0.5339520000000 1.0
C      1  0.5712020000000  0.5009100000000  0.4753560000000 1.0
C      1  0.4219230000000  0.4806600000000  0.4812400000000 1.0
C      1  0.5281360000000  0.5685760000000  0.4952510000000 1.0
C      1  0.4702720000000  0.4519060000000  0.4440400000000 1.0
C      1  0.5751850000000  0.5023470000000  0.5256770000000 1.0
C      1  0.5355400000000  0.4455400000000  0.5336060000000 1.0
C      1  0.4705740000000  0.4683120000000  0.5631170000000 1.0
C      1  0.5380960000000  0.5036370000000  0.4363760000000 1.0
C      1  0.4647820000000  0.5846610000000  0.5170540000000 1.0
C      1  0.4299550000000  0.4828360000000  0.4537040000000 1.0
C      1  0.5204440000000  0.5397670000000  0.4559050000000 1.0
C      1  0.5127910000000  0.4631230000000  0.4263990000000 1.0
C      1  0.4703010000000  0.5596810000000  0.5604140000000 1.0
C      1  0.4907390000000  0.4345910000000  0.4560580000000 1.0
C      1  0.4857870000000  0.4746650000000  0.4330140000000 1.0
C      1  0.5550970000000  0.4617770000000  0.4485580000000 1.0
C      1  0.4379510000000  0.5259050000000  0.5541020000000 1.0
C      1  0.5478490000000  0.5411930000000  0.4600820000000 1.0
C      1  0.5026680000000  0.5236930000000  0.4999670000000 1.0
C      1  0.4509960000000  0.5027060000000  0.4535890000000 1.0
C      1  0.5107160000000  0.4787170000000  0.4828580000000 1.0
C      1  0.4941990000000  0.4238650000000  0.5409050000000 1.0
C      1  0.5402550000000  0.4377040000000  0.4542120000000 1.0
C      1  0.4935120000000  0.4683990000000  0.5259540000000 1.0
C      1  0.4792440000000  0.5194640000000  0.5392810000000 1.0
C      1  0.5434800000000  0.4309440000000  0.4815220000000 1.0
C      1  0.5199200000000  0.4220130000000  0.4959690000000 1.0
END
