TITL C-87701-5321-2 -1124.93145875511 125000 -1043.34645004313 0 0 151 (C1) n - 1
REM
REM in /rds/project/t2_vol4/rds-t2-cs072/BORA/CARBON/from-Arr/AIRSS/Generating-Clusters/GAP-ML-2020/Only-C1/SD-CG/HFTN-CG
REM
REM
REM
REM
REM
REM ./C.cell (11c1c37f851c82e70ff6c80c92926a4b)
REM AIRSS Version 0.9.1 bugfix July 2018 build 013d7b7c2542+ Fri, 06 Jul 2018 19:26:36 +0100
REM compiler GCC version 9.3.0
REM options -cpp -mtune=generic -march=x86-64 -g -O0
REM seed -25422956 65653071 278968241 -370752645 566455335 809099167 674625820 -1672187526 1129411660 -2078443994 1173909001 -1847139777 191335946 1119498503 335056410 657240765 -284109142 894214781 751266428 -555168356 -379019920 -486107147 1104232462 1201798354 -2057386714 -847000836 -692918161 -736827912 1128809900 -417181262 1724718683 1988216490 773428486
REM
CELL 1.54180   50.00000   50.00000   50.00000   90.00000   90.00000   90.00000
LATT -1
SFAC C  
C      1  0.5294490000000  0.4666530000000  0.5341540000000 1.0
C      1  0.4107030000000  0.4971650000000  0.5361060000000 1.0
C      1  0.4851580000000  0.5544150000000  0.4556260000000 1.0
C      1  0.5506360000000  0.4600130000000  0.4038350000000 1.0
C      1  0.5378330000000  0.4137640000000  0.4660240000000 1.0
C      1  0.5436060000000  0.5658170000000  0.5662200000000 1.0
C      1  0.5513140000000  0.5800710000000  0.5051630000000 1.0
C      1  0.4357080000000  0.5353060000000  0.4601910000000 1.0
C      1  0.5029870000000  0.5281060000000  0.4993670000000 1.0
C      1  0.5606170000000  0.5377540000000  0.4934430000000 1.0
C      1  0.5650370000000  0.4916870000000  0.4332930000000 1.0
C      1  0.4648070000000  0.5622920000000  0.5774240000000 1.0
C      1  0.5560050000000  0.5779920000000  0.4753810000000 1.0
C      1  0.5686330000000  0.5096990000000  0.5831520000000 1.0
C      1  0.4990030000000  0.5421930000000  0.5702570000000 1.0
C      1  0.4098810000000  0.5234890000000  0.4957360000000 1.0
C      1  0.5263410000000  0.4499310000000  0.5870510000000 1.0
C      1  0.4669880000000  0.5177200000000  0.5226880000000 1.0
C      1  0.4308720000000  0.5434800000000  0.5552640000000 1.0
C      1  0.5491650000000  0.5489850000000  0.4348900000000 1.0
C      1  0.4962410000000  0.4079980000000  0.5147960000000 1.0
C      1  0.5021420000000  0.4757500000000  0.5344930000000 1.0
C      1  0.4716400000000  0.4966610000000  0.4023070000000 1.0
C      1  0.4574670000000  0.4681260000000  0.5520030000000 1.0
C      1  0.5453240000000  0.4672680000000  0.5968510000000 1.0
C      1  0.4611160000000  0.4886090000000  0.5955320000000 1.0
C      1  0.5599040000000  0.4129260000000  0.4839620000000 1.0
C      1  0.4445320000000  0.5676440000000  0.5603960000000 1.0
C      1  0.5022500000000  0.4946900000000  0.4636600000000 1.0
C      1  0.4901850000000  0.5709360000000  0.5693050000000 1.0
C      1  0.5387680000000  0.4860330000000  0.3961960000000 1.0
C      1  0.5123080000000  0.5563650000000  0.4975660000000 1.0
C      1  0.4934030000000  0.4257730000000  0.5658010000000 1.0
C      1  0.5042020000000  0.4746540000000  0.4872260000000 1.0
C      1  0.4691790000000  0.4212330000000  0.5518630000000 1.0
C      1  0.4276460000000  0.5053880000000  0.4567270000000 1.0
C      1  0.4609820000000  0.4380330000000  0.4329010000000 1.0
C      1  0.4430790000000  0.4554630000000  0.4196950000000 1.0
C      1  0.4142410000000  0.5481740000000  0.5338460000000 1.0
C      1  0.5273630000000  0.5852000000000  0.5489560000000 1.0
C      1  0.4159490000000  0.4650410000000  0.4261730000000 1.0
C      1  0.5584450000000  0.4457280000000  0.4479530000000 1.0
C      1  0.4970010000000  0.5074980000000  0.3950140000000 1.0
C      1  0.5218680000000  0.4088760000000  0.5282230000000 1.0
C      1  0.5253090000000  0.4300970000000  0.4877790000000 1.0
C      1  0.4675660000000  0.6008420000000  0.4989210000000 1.0
C      1  0.5463140000000  0.4687760000000  0.5084540000000 1.0
C      1  0.4657440000000  0.5077020000000  0.4270340000000 1.0
C      1  0.4515280000000  0.5208700000000  0.5514660000000 1.0
C      1  0.5146140000000  0.5261750000000  0.5490250000000 1.0
C      1  0.5621150000000  0.5478140000000  0.5537520000000 1.0
C      1  0.5439710000000  0.4865260000000  0.5501990000000 1.0
C      1  0.4376350000000  0.4770530000000  0.4963250000000 1.0
C      1  0.5175690000000  0.5199210000000  0.4729600000000 1.0
C      1  0.5363340000000  0.5470990000000  0.5881540000000 1.0
C      1  0.4261500000000  0.5706920000000  0.5201630000000 1.0
C      1  0.5300770000000  0.4594410000000  0.4850730000000 1.0
C      1  0.4756810000000  0.5866930000000  0.5252640000000 1.0
C      1  0.5170410000000  0.4928250000000  0.3824150000000 1.0
C      1  0.5388120000000  0.5967920000000  0.5242900000000 1.0
C      1  0.5238030000000  0.5024680000000  0.5665530000000 1.0
C      1  0.5534300000000  0.5082230000000  0.5310510000000 1.0
C      1  0.3912950000000  0.4815400000000  0.4919800000000 1.0
C      1  0.5123050000000  0.6081960000000  0.4817610000000 1.0
C      1  0.5313250000000  0.4434270000000  0.4143490000000 1.0
C      1  0.5103660000000  0.5407540000000  0.5976010000000 1.0
C      1  0.4888760000000  0.4395400000000  0.4272010000000 1.0
C      1  0.5457210000000  0.5119740000000  0.4810770000000 1.0
C      1  0.4220780000000  0.4905520000000  0.4109100000000 1.0
C      1  0.5188770000000  0.4161350000000  0.5554960000000 1.0
C      1  0.4699790000000  0.5317210000000  0.5750000000000 1.0
C      1  0.4855420000000  0.5642340000000  0.5083390000000 1.0
C      1  0.5453380000000  0.4190810000000  0.5119310000000 1.0
C      1  0.4271910000000  0.5710630000000  0.4919600000000 1.0
C      1  0.4719830000000  0.5151400000000  0.6002110000000 1.0
C      1  0.5190880000000  0.4808810000000  0.4415760000000 1.0
C      1  0.5245210000000  0.6093710000000  0.5047680000000 1.0
C      1  0.4476190000000  0.4404000000000  0.5507330000000 1.0
C      1  0.4876180000000  0.4159400000000  0.4640770000000 1.0
C      1  0.5933160000000  0.4864820000000  0.5185110000000 1.0
C      1  0.5409840000000  0.5524160000000  0.5102530000000 1.0
C      1  0.4727710000000  0.5384980000000  0.5014060000000 1.0
C      1  0.4191130000000  0.5458010000000  0.4811800000000 1.0
C      1  0.4721990000000  0.5019080000000  0.4716020000000 1.0
C      1  0.5751150000000  0.5574990000000  0.4745020000000 1.0
C      1  0.4836080000000  0.5444750000000  0.4266260000000 1.0
C      1  0.4477160000000  0.4186590000000  0.5095590000000 1.0
C      1  0.6018690000000  0.4954910000000  0.4926980000000 1.0
C      1  0.4322990000000  0.4356090000000  0.5267160000000 1.0
C      1  0.4537020000000  0.4554020000000  0.4824090000000 1.0
C      1  0.4667250000000  0.5334660000000  0.4720850000000 1.0
C      1  0.4487720000000  0.4800140000000  0.4031130000000 1.0
C      1  0.3882390000000  0.4671450000000  0.4693840000000 1.0
C      1  0.5325750000000  0.5304350000000  0.4198180000000 1.0
C      1  0.4477480000000  0.5813100000000  0.5361290000000 1.0
C      1  0.5795100000000  0.5242650000000  0.5606780000000 1.0
C      1  0.3965350000000  0.4630400000000  0.4453990000000 1.0
C      1  0.4712050000000  0.5821380000000  0.4621990000000 1.0
C      1  0.5391340000000  0.4304930000000  0.5691160000000 1.0
C      1  0.4366190000000  0.4894810000000  0.5843360000000 1.0
C      1  0.5368760000000  0.5660740000000  0.4556120000000 1.0
C      1  0.4703970000000  0.4091590000000  0.5261320000000 1.0
C      1  0.4777770000000  0.4720020000000  0.5761920000000 1.0
C      1  0.5405010000000  0.5017020000000  0.4211450000000 1.0
C      1  0.5134550000000  0.5528260000000  0.4671110000000 1.0
C      1  0.5939150000000  0.5398800000000  0.4631830000000 1.0
C      1  0.4866330000000  0.6022340000000  0.4766650000000 1.0
C      1  0.4986740000000  0.5157060000000  0.5262080000000 1.0
C      1  0.5044240000000  0.4208910000000  0.4422010000000 1.0
C      1  0.5753510000000  0.5423370000000  0.4426230000000 1.0
C      1  0.5410930000000  0.4973400000000  0.5064730000000 1.0
C      1  0.4201670000000  0.4578220000000  0.5152460000000 1.0
C      1  0.5857790000000  0.5307650000000  0.5090030000000 1.0
C      1  0.4605440000000  0.4229960000000  0.4578680000000 1.0
C      1  0.5877350000000  0.4793400000000  0.4742370000000 1.0
C      1  0.4979220000000  0.5879280000000  0.5489920000000 1.0
C      1  0.4174980000000  0.5116890000000  0.4284590000000 1.0
C      1  0.4457700000000  0.4275790000000  0.4822420000000 1.0
C      1  0.4580240000000  0.5345980000000  0.4203350000000 1.0
C      1  0.5615920000000  0.4405420000000  0.5557440000000 1.0
C      1  0.5049510000000  0.5308640000000  0.4123750000000 1.0
C      1  0.4363330000000  0.4927400000000  0.5552900000000 1.0
C      1  0.5645690000000  0.4687510000000  0.5634410000000 1.0
C      1  0.4817150000000  0.4549190000000  0.4951460000000 1.0
C      1  0.5673980000000  0.4637270000000  0.4253410000000 1.0
C      1  0.5421410000000  0.5191860000000  0.5862100000000 1.0
C      1  0.5109510000000  0.4930020000000  0.5126180000000 1.0
C      1  0.4755740000000  0.4690750000000  0.5221990000000 1.0
C      1  0.5677280000000  0.4808260000000  0.5886830000000 1.0
C      1  0.4491120000000  0.5859530000000  0.4820100000000 1.0
C      1  0.4975100000000  0.4496770000000  0.5813330000000 1.0
C      1  0.5416840000000  0.4690260000000  0.4599200000000 1.0
C      1  0.5831940000000  0.5117180000000  0.5318640000000 1.0
C      1  0.4325400000000  0.5367120000000  0.4305020000000 1.0
C      1  0.5853170000000  0.4538920000000  0.4858790000000 1.0
C      1  0.4068190000000  0.5229540000000  0.5233340000000 1.0
C      1  0.5760780000000  0.4597060000000  0.5132710000000 1.0
C      1  0.3988260000000  0.4754910000000  0.5202580000000 1.0
C      1  0.5655070000000  0.4355210000000  0.5283760000000 1.0
C      1  0.4947560000000  0.5250100000000  0.6129380000000 1.0
C      1  0.5620960000000  0.4910940000000  0.4627720000000 1.0
C      1  0.4993190000000  0.4860660000000  0.5625450000000 1.0
C      1  0.6019310000000  0.5235580000000  0.4869940000000 1.0
C      1  0.5343130000000  0.4247820000000  0.4392000000000 1.0
C      1  0.4542380000000  0.4939870000000  0.4506350000000 1.0
C      1  0.5737820000000  0.4336610000000  0.4707920000000 1.0
C      1  0.4964220000000  0.4247500000000  0.4908400000000 1.0
C      1  0.5084100000000  0.4594300000000  0.4222970000000 1.0
C      1  0.4162310000000  0.4973110000000  0.4834630000000 1.0
C      1  0.4619250000000  0.4925800000000  0.5052990000000 1.0
C      1  0.5413540000000  0.5360360000000  0.5362300000000 1.0
END
