TITL C-87684-5468-6 0.07777000893013 125000 -867.307801057741 0 0 124 (C1) n - 1
REM
REM in /rds/project/t2_vol4/rds-t2-cs072/BORA/CARBON/from-Arr/AIRSS/Generating-Clusters/GAP-ML-2020/Only-C1/SD-CG/HFTN-CG
REM
REM
REM
REM
REM
REM ./C.cell (11c1c37f851c82e70ff6c80c92926a4b)
REM AIRSS Version 0.9.1 bugfix July 2018 build 013d7b7c2542+ Fri, 06 Jul 2018 19:26:36 +0100
REM compiler GCC version 9.3.0
REM options -cpp -mtune=generic -march=x86-64 -g -O0
REM seed -2118938070 654207697 -536954651 -2018380229 1768478570 -1424696099 95792482 -1937179433 2094721730 -984512210 -1478354375 1332769687 1179566729 -699755448 -272910877 313048955 779231647 1421616545 950400652 1892912040 -614281317 814080994 1163186504 -2133102817 -1487069823 1155915088 394542794 -274494959 -1905818081 -857085445 -1381882898 -919139674 255921084
REM
CELL 1.54180   50.00000   50.00000   50.00000   90.00000   90.00000   90.00000
LATT -1
SFAC C  
C      1  0.5502900000000  0.5783920000000  0.4783230000000 1.0
C      1  0.4035850000000  0.4952670000000  0.5183680000000 1.0
C      1  0.5160180000000  0.4200010000000  0.4612850000000 1.0
C      1  0.4521670000000  0.4587640000000  0.4257870000000 1.0
C      1  0.4711990000000  0.4834790000000  0.4994600000000 1.0
C      1  0.5760010000000  0.4716600000000  0.4340310000000 1.0
C      1  0.4699060000000  0.4890610000000  0.4500890000000 1.0
C      1  0.4864220000000  0.4688920000000  0.5721260000000 1.0
C      1  0.4142040000000  0.4626400000000  0.5409090000000 1.0
C      1  0.5035000000000  0.4706600000000  0.4214300000000 1.0
C      1  0.5055400000000  0.5123430000000  0.4871780000000 1.0
C      1  0.4852200000000  0.4207590000000  0.5890150000000 1.0
C      1  0.4871710000000  0.4132170000000  0.4690010000000 1.0
C      1  0.4736550000000  0.5657150000000  0.5480850000000 1.0
C      1  0.5470440000000  0.4286970000000  0.5028520000000 1.0
C      1  0.5228280000000  0.5854460000000  0.5203360000000 1.0
C      1  0.5440760000000  0.4968940000000  0.4123310000000 1.0
C      1  0.5826070000000  0.4997670000000  0.4380500000000 1.0
C      1  0.4299290000000  0.5090530000000  0.4405450000000 1.0
C      1  0.5132350000000  0.5290150000000  0.5324530000000 1.0
C      1  0.4999540000000  0.5722110000000  0.5076770000000 1.0
C      1  0.4762310000000  0.5070920000000  0.5308900000000 1.0
C      1  0.4732470000000  0.4691820000000  0.4078020000000 1.0
C      1  0.4968390000000  0.5786590000000  0.4593420000000 1.0
C      1  0.5306180000000  0.4394970000000  0.4473130000000 1.0
C      1  0.4581860000000  0.5465950000000  0.5647750000000 1.0
C      1  0.5837950000000  0.4572630000000  0.4554920000000 1.0
C      1  0.4623140000000  0.4277030000000  0.4682970000000 1.0
C      1  0.5268170000000  0.5767690000000  0.5475010000000 1.0
C      1  0.5459300000000  0.4778990000000  0.5106770000000 1.0
C      1  0.5233560000000  0.4181470000000  0.4903830000000 1.0
C      1  0.4111450000000  0.4664910000000  0.5118060000000 1.0
C      1  0.4149170000000  0.5288160000000  0.4833770000000 1.0
C      1  0.5043000000000  0.5021370000000  0.5393210000000 1.0
C      1  0.5034640000000  0.4417190000000  0.4986110000000 1.0
C      1  0.5254680000000  0.5284080000000  0.5842050000000 1.0
C      1  0.4775140000000  0.5372330000000  0.5838510000000 1.0
C      1  0.5662980000000  0.4811940000000  0.5346330000000 1.0
C      1  0.4952290000000  0.4084970000000  0.4961790000000 1.0
C      1  0.5535300000000  0.4908310000000  0.5608770000000 1.0
C      1  0.4647480000000  0.4825030000000  0.5265800000000 1.0
C      1  0.4582690000000  0.5249810000000  0.4717650000000 1.0
C      1  0.5792520000000  0.5535310000000  0.5086920000000 1.0
C      1  0.5630230000000  0.5372660000000  0.5513380000000 1.0
C      1  0.5041880000000  0.4527240000000  0.5268660000000 1.0
C      1  0.5346010000000  0.4622600000000  0.4680550000000 1.0
C      1  0.5606250000000  0.5408110000000  0.4367500000000 1.0
C      1  0.5070910000000  0.5459420000000  0.4289910000000 1.0
C      1  0.4358300000000  0.4567160000000  0.5575330000000 1.0
C      1  0.4796290000000  0.4080500000000  0.5197080000000 1.0
C      1  0.4771380000000  0.4200570000000  0.5629310000000 1.0
C      1  0.4658090000000  0.4939290000000  0.4020760000000 1.0
C      1  0.4727820000000  0.5109200000000  0.4263870000000 1.0
C      1  0.4554770000000  0.4239600000000  0.5192140000000 1.0
C      1  0.4918650000000  0.5504620000000  0.5282400000000 1.0
C      1  0.4260020000000  0.5379980000000  0.5292390000000 1.0
C      1  0.5301850000000  0.5784700000000  0.4574610000000 1.0
C      1  0.5198420000000  0.5104080000000  0.4623300000000 1.0
C      1  0.5838710000000  0.4934370000000  0.4889080000000 1.0
C      1  0.5727760000000  0.5589140000000  0.4798940000000 1.0
C      1  0.4532030000000  0.5282180000000  0.4407900000000 1.0
C      1  0.5659760000000  0.4515880000000  0.5382340000000 1.0
C      1  0.4996780000000  0.4846900000000  0.4950100000000 1.0
C      1  0.4410220000000  0.4820980000000  0.5734560000000 1.0
C      1  0.5015770000000  0.5557950000000  0.4782470000000 1.0
C      1  0.4990240000000  0.5203120000000  0.4176870000000 1.0
C      1  0.5537940000000  0.4546070000000  0.4914040000000 1.0
C      1  0.4571280000000  0.4383440000000  0.5461950000000 1.0
C      1  0.4708050000000  0.5857230000000  0.4754420000000 1.0
C      1  0.5181070000000  0.5390260000000  0.4569170000000 1.0
C      1  0.5884990000000  0.5120160000000  0.4632940000000 1.0
C      1  0.5082870000000  0.5068410000000  0.5905490000000 1.0
C      1  0.4300420000000  0.4799860000000  0.4706320000000 1.0
C      1  0.4456070000000  0.5516040000000  0.5129670000000 1.0
C      1  0.4458910000000  0.4342920000000  0.4929080000000 1.0
C      1  0.5246620000000  0.4452480000000  0.5705850000000 1.0
C      1  0.5497920000000  0.5191470000000  0.5687380000000 1.0
C      1  0.4249090000000  0.5043510000000  0.5635560000000 1.0
C      1  0.5807190000000  0.4644120000000  0.4811490000000 1.0
C      1  0.4782170000000  0.4601480000000  0.5418580000000 1.0
C      1  0.4154130000000  0.5064000000000  0.4647260000000 1.0
C      1  0.5090640000000  0.4876410000000  0.5690700000000 1.0
C      1  0.5350610000000  0.5560500000000  0.4398680000000 1.0
C      1  0.4109540000000  0.5217310000000  0.5106600000000 1.0
C      1  0.5470350000000  0.5862720000000  0.5058310000000 1.0
C      1  0.4958040000000  0.4122620000000  0.5432990000000 1.0
C      1  0.5236680000000  0.5268800000000  0.5069390000000 1.0
C      1  0.4383590000000  0.5470710000000  0.4831780000000 1.0
C      1  0.4985920000000  0.4441500000000  0.5834720000000 1.0
C      1  0.5284130000000  0.4539100000000  0.4227830000000 1.0
C      1  0.4500640000000  0.5691710000000  0.4647950000000 1.0
C      1  0.5851450000000  0.4999400000000  0.5192210000000 1.0
C      1  0.5154170000000  0.4980110000000  0.4131770000000 1.0
C      1  0.5543530000000  0.4989350000000  0.4900680000000 1.0
C      1  0.4400490000000  0.4802440000000  0.4415180000000 1.0
C      1  0.5206300000000  0.4318430000000  0.5443390000000 1.0
C      1  0.4831710000000  0.5317990000000  0.4862950000000 1.0
C      1  0.5042150000000  0.5482280000000  0.5801040000000 1.0
C      1  0.4582270000000  0.5760800000000  0.5236280000000 1.0
C      1  0.4660420000000  0.4868360000000  0.5853840000000 1.0
C      1  0.4074380000000  0.4908000000000  0.5461100000000 1.0
C      1  0.4797490000000  0.5108080000000  0.5934910000000 1.0
C      1  0.5533360000000  0.5644860000000  0.5475070000000 1.0
C      1  0.5158120000000  0.4793610000000  0.5202070000000 1.0
C      1  0.4745110000000  0.5862140000000  0.5030870000000 1.0
C      1  0.5633830000000  0.5153660000000  0.4236080000000 1.0
C      1  0.5779040000000  0.5391440000000  0.4597840000000 1.0
C      1  0.5024260000000  0.5690410000000  0.5610830000000 1.0
C      1  0.4343710000000  0.5317490000000  0.5559890000000 1.0
C      1  0.5413570000000  0.4917690000000  0.4640770000000 1.0
C      1  0.5655080000000  0.5731090000000  0.5228850000000 1.0
C      1  0.5517770000000  0.4700520000000  0.4176530000000 1.0
C      1  0.5502940000000  0.5243380000000  0.5027200000000 1.0
C      1  0.5482110000000  0.4316460000000  0.5315160000000 1.0
C      1  0.4256330000000  0.4560780000000  0.4898190000000 1.0
C      1  0.4867350000000  0.5650290000000  0.4357370000000 1.0
C      1  0.4592780000000  0.5578200000000  0.4400470000000 1.0
C      1  0.4886160000000  0.4657880000000  0.4501250000000 1.0
C      1  0.5057740000000  0.4630080000000  0.4766890000000 1.0
C      1  0.4725470000000  0.5330100000000  0.5145510000000 1.0
C      1  0.5337720000000  0.4724640000000  0.5698030000000 1.0
C      1  0.4567360000000  0.4951580000000  0.4770840000000 1.0
C      1  0.4671220000000  0.4448280000000  0.4466040000000 1.0
C      1  0.5743410000000  0.5276310000000  0.5242330000000 1.0
END
