TITL C-87701-5321-5 0.0691345655636447 125000 -692.373775392647 0 0 97 (C1) n - 1
REM
REM in /rds/project/t2_vol4/rds-t2-cs072/BORA/CARBON/from-Arr/AIRSS/Generating-Clusters/GAP-ML-2020/Only-C1/SD-CG/HFTN-CG
REM
REM
REM
REM
REM
REM ./C.cell (11c1c37f851c82e70ff6c80c92926a4b)
REM AIRSS Version 0.9.1 bugfix July 2018 build 013d7b7c2542+ Fri, 06 Jul 2018 19:26:36 +0100
REM compiler GCC version 9.3.0
REM options -cpp -mtune=generic -march=x86-64 -g -O0
REM seed -926291365 94080083 -2015573750 1381595683 1587397285 935500942 111485720 937384498 1065453339 1864868460 -537701066 -284380427 -2013307264 -1753476993 -133012495 1844994742 913637492 -515423870 -2092736548 -390058275 -1953842375 2003976294 1735458390 1847091485 -1631817934 1933556953 -1408175229 -1995304595 2053107779 768457238 -90090686 -1971190885 340418141
REM
CELL 1.54180   50.00000   50.00000   50.00000   90.00000   90.00000   90.00000
LATT -1
SFAC C  
C      1  0.5667980000000  0.5102780000000  0.5490660000000 1.0
C      1  0.5734500000000  0.5332580000000  0.5325930000000 1.0
C      1  0.4955800000000  0.5294420000000  0.5815320000000 1.0
C      1  0.4710760000000  0.4213030000000  0.5186370000000 1.0
C      1  0.4791840000000  0.4860850000000  0.5692520000000 1.0
C      1  0.5803310000000  0.4642450000000  0.4710360000000 1.0
C      1  0.5832180000000  0.5284790000000  0.5081600000000 1.0
C      1  0.5565180000000  0.4453710000000  0.5089070000000 1.0
C      1  0.4235510000000  0.5077360000000  0.4465370000000 1.0
C      1  0.4160340000000  0.4693480000000  0.5090030000000 1.0
C      1  0.4362110000000  0.4761740000000  0.5547390000000 1.0
C      1  0.4944370000000  0.4932800000000  0.4774800000000 1.0
C      1  0.4604470000000  0.4662880000000  0.4399200000000 1.0
C      1  0.4779640000000  0.4569550000000  0.5627340000000 1.0
C      1  0.4796350000000  0.4459570000000  0.4456150000000 1.0
C      1  0.5389420000000  0.5463330000000  0.5619950000000 1.0
C      1  0.5032370000000  0.5910880000000  0.5216500000000 1.0
C      1  0.4263640000000  0.5384690000000  0.4937870000000 1.0
C      1  0.4488210000000  0.4372990000000  0.5257560000000 1.0
C      1  0.4869930000000  0.4744360000000  0.4970950000000 1.0
C      1  0.4592210000000  0.5631760000000  0.4703910000000 1.0
C      1  0.4325690000000  0.5304230000000  0.5401730000000 1.0
C      1  0.4870900000000  0.5626620000000  0.5588060000000 1.0
C      1  0.5418090000000  0.5423240000000  0.4445150000000 1.0
C      1  0.4743600000000  0.5151130000000  0.4751800000000 1.0
C      1  0.5232310000000  0.5228320000000  0.4935150000000 1.0
C      1  0.4849160000000  0.5730220000000  0.5316780000000 1.0
C      1  0.5280190000000  0.4471710000000  0.5519300000000 1.0
C      1  0.5541870000000  0.5662200000000  0.4844230000000 1.0
C      1  0.5015840000000  0.5020810000000  0.5809640000000 1.0
C      1  0.5144140000000  0.4872570000000  0.5294330000000 1.0
C      1  0.5499460000000  0.5711380000000  0.5139730000000 1.0
C      1  0.5300100000000  0.4556150000000  0.4941430000000 1.0
C      1  0.5160760000000  0.5086660000000  0.4254260000000 1.0
C      1  0.4096060000000  0.4892040000000  0.4891620000000 1.0
C      1  0.4900430000000  0.5942440000000  0.4526260000000 1.0
C      1  0.4486370000000  0.5246060000000  0.5634510000000 1.0
C      1  0.4434700000000  0.4441440000000  0.4766650000000 1.0
C      1  0.4732820000000  0.5481720000000  0.5154570000000 1.0
C      1  0.5323230000000  0.5840800000000  0.4779170000000 1.0
C      1  0.5552800000000  0.5552290000000  0.5380000000000 1.0
C      1  0.5622830000000  0.4831930000000  0.5406640000000 1.0
C      1  0.5863080000000  0.5095180000000  0.4893430000000 1.0
C      1  0.5009250000000  0.4830000000000  0.4252340000000 1.0
C      1  0.4417270000000  0.5272550000000  0.4461670000000 1.0
C      1  0.4981430000000  0.5296140000000  0.4337070000000 1.0
C      1  0.5215620000000  0.4996980000000  0.4781020000000 1.0
C      1  0.4837380000000  0.4977360000000  0.5365620000000 1.0
C      1  0.5770110000000  0.5220070000000  0.4646870000000 1.0
C      1  0.4102670000000  0.5155030000000  0.5014490000000 1.0
C      1  0.4907520000000  0.5253380000000  0.5293450000000 1.0
C      1  0.5288320000000  0.4970960000000  0.5732940000000 1.0
C      1  0.5678300000000  0.5051220000000  0.4435820000000 1.0
C      1  0.5467420000000  0.5188060000000  0.5677340000000 1.0
C      1  0.4365940000000  0.5462380000000  0.4683220000000 1.0
C      1  0.4429640000000  0.5448750000000  0.5177010000000 1.0
C      1  0.4511770000000  0.4962370000000  0.5689560000000 1.0
C      1  0.5135780000000  0.5804210000000  0.4558850000000 1.0
C      1  0.5141460000000  0.5498290000000  0.4499760000000 1.0
C      1  0.4799230000000  0.5450670000000  0.4858090000000 1.0
C      1  0.5088050000000  0.4652590000000  0.5110400000000 1.0
C      1  0.5338250000000  0.4458460000000  0.4382330000000 1.0
C      1  0.5172930000000  0.4149670000000  0.5215390000000 1.0
C      1  0.4523960000000  0.4530530000000  0.5498330000000 1.0
C      1  0.4377570000000  0.4642320000000  0.4575410000000 1.0
C      1  0.5160970000000  0.5163930000000  0.5194930000000 1.0
C      1  0.5717460000000  0.4691330000000  0.5176320000000 1.0
C      1  0.5253350000000  0.4276180000000  0.4787330000000 1.0
C      1  0.5084770000000  0.5442070000000  0.4802730000000 1.0
C      1  0.5091920000000  0.4119360000000  0.4943200000000 1.0
C      1  0.4683800000000  0.4308750000000  0.4691920000000 1.0
C      1  0.5668220000000  0.4407990000000  0.4782530000000 1.0
C      1  0.4149280000000  0.5110550000000  0.5293150000000 1.0
C      1  0.4738260000000  0.4897910000000  0.4305350000000 1.0
C      1  0.4938710000000  0.4198950000000  0.5365510000000 1.0
C      1  0.4174420000000  0.4831900000000  0.5347150000000 1.0
C      1  0.4711150000000  0.5179270000000  0.4418740000000 1.0
C      1  0.5437870000000  0.5173370000000  0.4317190000000 1.0
C      1  0.5264060000000  0.5886570000000  0.5070410000000 1.0
C      1  0.4708110000000  0.5407200000000  0.5702670000000 1.0
C      1  0.4681360000000  0.4887300000000  0.5135770000000 1.0
C      1  0.5351360000000  0.4763620000000  0.5518580000000 1.0
C      1  0.5615330000000  0.5466500000000  0.4646850000000 1.0
C      1  0.4997930000000  0.4401090000000  0.5557710000000 1.0
C      1  0.4657530000000  0.5874490000000  0.4582970000000 1.0
C      1  0.5393260000000  0.4312860000000  0.5302580000000 1.0
C      1  0.4553620000000  0.5048110000000  0.4952300000000 1.0
C      1  0.5723740000000  0.4769550000000  0.4454920000000 1.0
C      1  0.5056890000000  0.4549470000000  0.4340140000000 1.0
C      1  0.4806220000000  0.4168150000000  0.4914560000000 1.0
C      1  0.5528270000000  0.4637460000000  0.4320110000000 1.0
C      1  0.4196430000000  0.4860520000000  0.4623870000000 1.0
C      1  0.5839170000000  0.4808940000000  0.4939280000000 1.0
C      1  0.5376730000000  0.4782920000000  0.4782910000000 1.0
C      1  0.5119460000000  0.5511720000000  0.5706690000000 1.0
C      1  0.5459390000000  0.4304080000000  0.4603960000000 1.0
C      1  0.4326540000000  0.4466750000000  0.5037370000000 1.0
END
