TITL C-87701-5321-7 -0.150574000639885 125000 -393.862802660583 0 0 59 (C1) n - 1
REM
REM in /rds/project/t2_vol4/rds-t2-cs072/BORA/CARBON/from-Arr/AIRSS/Generating-Clusters/GAP-ML-2020/Only-C1/SD-CG/HFTN-CG
REM
REM
REM
REM
REM
REM ./C.cell (11c1c37f851c82e70ff6c80c92926a4b)
REM AIRSS Version 0.9.1 bugfix July 2018 build 013d7b7c2542+ Fri, 06 Jul 2018 19:26:36 +0100
REM compiler GCC version 9.3.0
REM options -cpp -mtune=generic -march=x86-64 -g -O0
REM seed 865253723 -1925131825 -458406024 1877791335 745619559 919871145 -211979749 -1770365168 480482121 895771310 -2114195449 -964714806 469770609 1252238877 794142981 -711805295 159672273 909887276 -1157661027 719228538 -78930235 666947967 2105763457 1531978928 -663467651 32709754 1418458224 1321881740 671998251 -1089725661 -2276058 480278977 1221016229
REM
CELL 1.54180   50.00000   50.00000   50.00000   90.00000   90.00000   90.00000
LATT -1
SFAC C  
C      1  0.4593060000000  0.4468620000000  0.5166550000000 1.0
C      1  0.4442230000000  0.4700860000000  0.5101090000000 1.0
C      1  0.4507390000000  0.4802940000000  0.4851630000000 1.0
C      1  0.5232450000000  0.4863780000000  0.4261370000000 1.0
C      1  0.5208400000000  0.4358560000000  0.4794090000000 1.0
C      1  0.4477310000000  0.5078790000000  0.4792550000000 1.0
C      1  0.4901370000000  0.5379760000000  0.5557230000000 1.0
C      1  0.4849890000000  0.4762910000000  0.4307550000000 1.0
C      1  0.5009670000000  0.4539840000000  0.5462240000000 1.0
C      1  0.4701150000000  0.5427370000000  0.4517540000000 1.0
C      1  0.4397320000000  0.5273180000000  0.4978780000000 1.0
C      1  0.5284320000000  0.5091550000000  0.5076940000000 1.0
C      1  0.5082500000000  0.4761350000000  0.5662590000000 1.0
C      1  0.5533060000000  0.5517420000000  0.4856580000000 1.0
C      1  0.5452840000000  0.4723260000000  0.5400710000000 1.0
C      1  0.4727140000000  0.4581240000000  0.5391810000000 1.0
C      1  0.4508380000000  0.5543840000000  0.5005770000000 1.0
C      1  0.4794430000000  0.4458520000000  0.4972240000000 1.0
C      1  0.4968770000000  0.5019930000000  0.4221620000000 1.0
C      1  0.4815330000000  0.4726450000000  0.4864940000000 1.0
C      1  0.4860970000000  0.5227090000000  0.5062980000000 1.0
C      1  0.4705020000000  0.4978430000000  0.4359650000000 1.0
C      1  0.5611300000000  0.4839810000000  0.5212980000000 1.0
C      1  0.5175850000000  0.5383510000000  0.5468770000000 1.0
C      1  0.4843010000000  0.4935080000000  0.5109040000000 1.0
C      1  0.5189420000000  0.4402270000000  0.4530390000000 1.0
C      1  0.4618550000000  0.4838830000000  0.5297960000000 1.0
C      1  0.4836570000000  0.5619280000000  0.4663950000000 1.0
C      1  0.5103010000000  0.5230460000000  0.4407250000000 1.0
C      1  0.4894090000000  0.4932970000000  0.5745320000000 1.0
C      1  0.5110450000000  0.4669820000000  0.4452530000000 1.0
C      1  0.5181020000000  0.5575280000000  0.5240970000000 1.0
C      1  0.4995670000000  0.4257940000000  0.4965600000000 1.0
C      1  0.5582070000000  0.4840630000000  0.4704480000000 1.0
C      1  0.4918370000000  0.5677580000000  0.5189570000000 1.0
C      1  0.4684080000000  0.5145460000000  0.4603920000000 1.0
C      1  0.5548820000000  0.5080970000000  0.4578830000000 1.0
C      1  0.5021510000000  0.5103700000000  0.4682680000000 1.0
C      1  0.4763390000000  0.5662890000000  0.4936290000000 1.0
C      1  0.5290870000000  0.5499080000000  0.4991820000000 1.0
C      1  0.4756050000000  0.5573300000000  0.5395510000000 1.0
C      1  0.5514350000000  0.5109480000000  0.5252240000000 1.0
C      1  0.5367090000000  0.5166010000000  0.5504800000000 1.0
C      1  0.5104200000000  0.4916720000000  0.5209930000000 1.0
C      1  0.5056920000000  0.4146060000000  0.5216420000000 1.0
C      1  0.5209590000000  0.4650990000000  0.5241950000000 1.0
C      1  0.4534100000000  0.5066310000000  0.5449380000000 1.0
C      1  0.4413430000000  0.5254440000000  0.5278120000000 1.0
C      1  0.4507150000000  0.5516730000000  0.5293960000000 1.0
C      1  0.5608770000000  0.5329190000000  0.4701900000000 1.0
C      1  0.5552350000000  0.4732750000000  0.4946110000000 1.0
C      1  0.5362380000000  0.5092340000000  0.4364490000000 1.0
C      1  0.5333460000000  0.4894710000000  0.5600000000000 1.0
C      1  0.4956300000000  0.5494870000000  0.4434050000000 1.0
C      1  0.5118910000000  0.5263210000000  0.4920550000000 1.0
C      1  0.4759560000000  0.5138350000000  0.5627350000000 1.0
C      1  0.5077880000000  0.4250180000000  0.5449850000000 1.0
C      1  0.5278110000000  0.4621330000000  0.4936930000000 1.0
C      1  0.5068310000000  0.4801790000000  0.4727640000000 1.0
END
