TITL C-87691-5376-6 -0.00354504702601173 125000 -50.67282919212 0 0 8 (C2v) n - 1
REM
REM in /rds/project/t2_vol4/rds-t2-cs072/BORA/CARBON/from-Arr/AIRSS/Generating-Clusters/GAP-ML-2020/Only-C1/SD-CG/HFTN-CG
REM
REM
REM
REM
REM
REM ./C.cell (11c1c37f851c82e70ff6c80c92926a4b)
REM AIRSS Version 0.9.1 bugfix July 2018 build 013d7b7c2542+ Fri, 06 Jul 2018 19:26:36 +0100
REM compiler GCC version 9.3.0
REM options -cpp -mtune=generic -march=x86-64 -g -O0
REM seed -1412377256 2050515251 1461595118 1760667510 -1563291812 1324391724 -1624927014 -1556525123 -1625944702 -131771753 161423550 965838995 1964024022 226723103 974307989 1644987173 -624864892 -44100035 1803386658 -1548144883 348447643 617309023 -2104178052 1461788060 -1985197256 -180748638 1603175468 684484711 345879618 1390959513 402127092 -1126984033 -447104130
REM
CELL 1.54180   50.00000   50.00000   50.00000   90.00000   90.00000   90.00000
LATT -1
SFAC C  
C      1  0.5081680000000  0.5033540000000  0.4968280000000 1.0
C      1  0.4861620000000  0.4943180000000  0.5053740000000 1.0
C      1  0.5302020000000  0.5124020000000  0.4882710000000 1.0
C      1  0.4364890000000  0.4802190000000  0.5117990000000 1.0
C      1  0.5526110000000  0.5216040000000  0.4795670000000 1.0
C      1  0.4479840000000  0.4723420000000  0.5330680000000 1.0
C      1  0.4633570000000  0.4849530000000  0.5142310000000 1.0
C      1  0.5750270000000  0.5308080000000  0.4708620000000 1.0
END
