TITL C-87677-5390-4 105.482189185621 125000 -240.845060905466 0 0 36 (C1) n - 1
REM
REM in /rds/project/t2_vol4/rds-t2-cs072/BORA/CARBON/from-Arr/AIRSS/Generating-Clusters/GAP-ML-2020/Only-C1/SD-CG/HFTN-CG
REM
REM
REM
REM
REM
REM ./C.cell (11c1c37f851c82e70ff6c80c92926a4b)
REM AIRSS Version 0.9.1 bugfix July 2018 build 013d7b7c2542+ Fri, 06 Jul 2018 19:26:36 +0100
REM compiler GCC version 9.3.0
REM options -cpp -mtune=generic -march=x86-64 -g -O0
REM seed -1800902263 1285636930 -1568280743 -1963034966 1897265177 245077929 -2097784630 -1885123145 1794933446 962068447 1168172436 -750145582 633439999 -1063028155 -1132968850 -340553414 -881048931 -850865262 544773941 1771143680 1672202451 -2100573677 -2068960617 1374905135 1346798807 1360434647 -91971012 -162484423 1940732735 1107754029 655079803 -1229278286 -1692836210
REM
CELL 1.54180   50.00000   50.00000   50.00000   90.00000   90.00000   90.00000
LATT -1
SFAC C  
C      1  0.5284190000000  0.5429820000000  0.5226640000000 1.0
C      1  0.4591790000000  0.5395230000000  0.5054010000000 1.0
C      1  0.4382360000000  0.5019180000000  0.4896360000000 1.0
C      1  0.4999490000000  0.4535050000000  0.4672940000000 1.0
C      1  0.5228330000000  0.5273650000000  0.4596660000000 1.0
C      1  0.5149360000000  0.5095200000000  0.4382060000000 1.0
C      1  0.5048370000000  0.5482150000000  0.5098080000000 1.0
C      1  0.4786400000000  0.5324500000000  0.5483960000000 1.0
C      1  0.5318710000000  0.4744680000000  0.5493100000000 1.0
C      1  0.5059830000000  0.4721830000000  0.5584370000000 1.0
C      1  0.5513460000000  0.4902560000000  0.5154350000000 1.0
C      1  0.5002770000000  0.5359260000000  0.4839290000000 1.0
C      1  0.5114660000000  0.4689810000000  0.4455860000000 1.0
C      1  0.4580590000000  0.4588100000000  0.4948810000000 1.0
C      1  0.4711690000000  0.5325230000000  0.4802940000000 1.0
C      1  0.4910770000000  0.4948430000000  0.5612130000000 1.0
C      1  0.4568150000000  0.5092060000000  0.4696860000000 1.0
C      1  0.4700140000000  0.4879160000000  0.4563120000000 1.0
C      1  0.4451320000000  0.4795060000000  0.5064710000000 1.0
C      1  0.4926670000000  0.4909030000000  0.4398590000000 1.0
C      1  0.4473540000000  0.4986610000000  0.5304580000000 1.0
C      1  0.4723430000000  0.4626920000000  0.4711160000000 1.0
C      1  0.5032260000000  0.5216120000000  0.5587590000000 1.0
C      1  0.5167220000000  0.5128250000000  0.4841680000000 1.0
C      1  0.5339810000000  0.4858080000000  0.4425540000000 1.0
C      1  0.5431360000000  0.5022180000000  0.4903650000000 1.0
C      1  0.5315880000000  0.4443410000000  0.5078820000000 1.0
C      1  0.5533240000000  0.4943600000000  0.4613410000000 1.0
C      1  0.5433290000000  0.4623250000000  0.5243390000000 1.0
C      1  0.5158100000000  0.4449770000000  0.4880370000000 1.0
C      1  0.5418880000000  0.5006200000000  0.5406390000000 1.0
C      1  0.5523590000000  0.5211600000000  0.4671900000000 1.0
C      1  0.4654500000000  0.5056400000000  0.5502910000000 1.0
C      1  0.4793490000000  0.5469410000000  0.5241370000000 1.0
C      1  0.5274370000000  0.5244910000000  0.5441520000000 1.0
C      1  0.4397970000000  0.5203290000000  0.5120860000000 1.0
END
