TITL C-87691-5376-4 -0.206169163172856 125000 -791.967802288533 0 0 113 (C1) n - 1
REM
REM in /rds/project/t2_vol4/rds-t2-cs072/BORA/CARBON/from-Arr/AIRSS/Generating-Clusters/GAP-ML-2020/Only-C1/SD-CG/HFTN-CG
REM
REM
REM
REM
REM
REM ./C.cell (11c1c37f851c82e70ff6c80c92926a4b)
REM AIRSS Version 0.9.1 bugfix July 2018 build 013d7b7c2542+ Fri, 06 Jul 2018 19:26:36 +0100
REM compiler GCC version 9.3.0
REM options -cpp -mtune=generic -march=x86-64 -g -O0
REM seed -426242471 -17169908 -599316794 1352103155 1009613123 -1847434493 -420035776 145013521 -669396226 1189901012 -639238751 1440305374 -1525365093 -150925642 -761422466 1502861399 1170433723 59026904 835102653 -385412750 -1671182077 -32874764 806988267 726275516 336117021 -625559869 1470302236 1421575490 2083099492 -138627141 -1252344245 937536863 -1495794825
REM
CELL 1.54180   50.00000   50.00000   50.00000   90.00000   90.00000   90.00000
LATT -1
SFAC C  
C      1  0.4365410000000  0.4332800000000  0.4925580000000 1.0
C      1  0.4484490000000  0.4322660000000  0.4657590000000 1.0
C      1  0.4570060000000  0.5701460000000  0.5292760000000 1.0
C      1  0.5427910000000  0.4359240000000  0.4611940000000 1.0
C      1  0.4979280000000  0.5002060000000  0.4070080000000 1.0
C      1  0.4679530000000  0.5113390000000  0.4410490000000 1.0
C      1  0.4934530000000  0.4119910000000  0.4731680000000 1.0
C      1  0.4892660000000  0.4691800000000  0.5217940000000 1.0
C      1  0.5275680000000  0.5986420000000  0.5218060000000 1.0
C      1  0.5542100000000  0.4429330000000  0.5511530000000 1.0
C      1  0.4947710000000  0.5376670000000  0.5779470000000 1.0
C      1  0.5015690000000  0.5355440000000  0.4600010000000 1.0
C      1  0.5214280000000  0.5103590000000  0.4606260000000 1.0
C      1  0.4689180000000  0.5266430000000  0.5399490000000 1.0
C      1  0.5159690000000  0.4128370000000  0.5422700000000 1.0
C      1  0.5803880000000  0.5203100000000  0.5152230000000 1.0
C      1  0.4682870000000  0.5114980000000  0.5100660000000 1.0
C      1  0.4715230000000  0.5219530000000  0.5704090000000 1.0
C      1  0.5682270000000  0.5330630000000  0.5380230000000 1.0
C      1  0.5667540000000  0.5144480000000  0.5602330000000 1.0
C      1  0.5362950000000  0.5349610000000  0.4997780000000 1.0
C      1  0.5136290000000  0.5622740000000  0.4658800000000 1.0
C      1  0.5579230000000  0.4328240000000  0.4840530000000 1.0
C      1  0.4536700000000  0.5719420000000  0.4767920000000 1.0
C      1  0.5828140000000  0.4912560000000  0.4751310000000 1.0
C      1  0.4954630000000  0.5470020000000  0.4153900000000 1.0
C      1  0.4823570000000  0.4344200000000  0.5659410000000 1.0
C      1  0.5397140000000  0.4795060000000  0.4284970000000 1.0
C      1  0.5466070000000  0.5079840000000  0.4433120000000 1.0
C      1  0.4695040000000  0.4915880000000  0.4175480000000 1.0
C      1  0.5169500000000  0.5605490000000  0.4948420000000 1.0
C      1  0.5466290000000  0.4190560000000  0.5074190000000 1.0
C      1  0.4630450000000  0.5593930000000  0.5017140000000 1.0
C      1  0.5182050000000  0.5240850000000  0.5417120000000 1.0
C      1  0.4911740000000  0.5219110000000  0.4888950000000 1.0
C      1  0.5017930000000  0.4619500000000  0.4753920000000 1.0
C      1  0.5199110000000  0.5784410000000  0.5554430000000 1.0
C      1  0.5213960000000  0.4970680000000  0.5327410000000 1.0
C      1  0.5671600000000  0.5316380000000  0.4911760000000 1.0
C      1  0.4526690000000  0.4758620000000  0.5707130000000 1.0
C      1  0.5273090000000  0.4886340000000  0.5067420000000 1.0
C      1  0.4697580000000  0.4646260000000  0.4277150000000 1.0
C      1  0.5439680000000  0.4796100000000  0.5815050000000 1.0
C      1  0.5001070000000  0.4900450000000  0.5751060000000 1.0
C      1  0.4121560000000  0.5036130000000  0.4914510000000 1.0
C      1  0.5850660000000  0.4760120000000  0.4982580000000 1.0
C      1  0.4457670000000  0.5457530000000  0.5395670000000 1.0
C      1  0.5161850000000  0.5179130000000  0.5725730000000 1.0
C      1  0.5764040000000  0.4896080000000  0.5495390000000 1.0
C      1  0.4963310000000  0.4067390000000  0.5013920000000 1.0
C      1  0.5304130000000  0.5869010000000  0.4971470000000 1.0
C      1  0.4696350000000  0.5797880000000  0.4536530000000 1.0
C      1  0.4306370000000  0.5043090000000  0.4496520000000 1.0
C      1  0.4286210000000  0.4773120000000  0.4572460000000 1.0
C      1  0.5294420000000  0.4305970000000  0.5591390000000 1.0
C      1  0.5042160000000  0.4874960000000  0.4585360000000 1.0
C      1  0.5092740000000  0.4431420000000  0.5751620000000 1.0
C      1  0.4132520000000  0.5084600000000  0.5194990000000 1.0
C      1  0.4372260000000  0.5507480000000  0.4633570000000 1.0
C      1  0.5030810000000  0.5954990000000  0.5375420000000 1.0
C      1  0.4522790000000  0.4597560000000  0.4532150000000 1.0
C      1  0.5415960000000  0.5683470000000  0.4575760000000 1.0
C      1  0.5142480000000  0.4788630000000  0.4134430000000 1.0
C      1  0.4710030000000  0.4732900000000  0.4789350000000 1.0
C      1  0.4967420000000  0.5603720000000  0.5580000000000 1.0
C      1  0.5373210000000  0.5301030000000  0.4240180000000 1.0
C      1  0.5606230000000  0.5611240000000  0.5282710000000 1.0
C      1  0.5131980000000  0.4394790000000  0.4334760000000 1.0
C      1  0.5682080000000  0.5615540000000  0.4989150000000 1.0
C      1  0.5852620000000  0.4934560000000  0.5216710000000 1.0
C      1  0.4276150000000  0.5325520000000  0.5218150000000 1.0
C      1  0.5627230000000  0.4353520000000  0.5251120000000 1.0
C      1  0.5441450000000  0.5814120000000  0.5402400000000 1.0
C      1  0.4720090000000  0.4951210000000  0.5795380000000 1.0
C      1  0.4209880000000  0.4589430000000  0.5276880000000 1.0
C      1  0.4784920000000  0.4994470000000  0.4674000000000 1.0
C      1  0.4878320000000  0.4148780000000  0.5460960000000 1.0
C      1  0.4167640000000  0.4856280000000  0.5370580000000 1.0
C      1  0.5402820000000  0.4522880000000  0.4371940000000 1.0
C      1  0.5218370000000  0.4081110000000  0.5150180000000 1.0
C      1  0.4147360000000  0.4766570000000  0.4818610000000 1.0
C      1  0.4922650000000  0.5488820000000  0.5056040000000 1.0
C      1  0.4962200000000  0.4566130000000  0.4203760000000 1.0
C      1  0.4279060000000  0.5236170000000  0.4730930000000 1.0
C      1  0.4685570000000  0.4145910000000  0.4619380000000 1.0
C      1  0.4327930000000  0.4887430000000  0.5583870000000 1.0
C      1  0.5543470000000  0.5788840000000  0.4817870000000 1.0
C      1  0.5116310000000  0.4333180000000  0.4622180000000 1.0
C      1  0.5207280000000  0.5118430000000  0.4906850000000 1.0
C      1  0.4748830000000  0.4111400000000  0.5209290000000 1.0
C      1  0.4945710000000  0.5403070000000  0.5344010000000 1.0
C      1  0.5407800000000  0.5367930000000  0.5285570000000 1.0
C      1  0.5622700000000  0.4677760000000  0.5628400000000 1.0
C      1  0.5096590000000  0.5694120000000  0.4238750000000 1.0
C      1  0.4791890000000  0.5372300000000  0.4384010000000 1.0
C      1  0.5016300000000  0.4816560000000  0.5439560000000 1.0
C      1  0.4443820000000  0.5066950000000  0.4261230000000 1.0
C      1  0.5173610000000  0.4687430000000  0.5852030000000 1.0
C      1  0.5695280000000  0.5121290000000  0.4651460000000 1.0
C      1  0.4571890000000  0.4481770000000  0.5621080000000 1.0
C      1  0.4404590000000  0.4407160000000  0.5390760000000 1.0
C      1  0.4975970000000  0.5804950000000  0.4484730000000 1.0
C      1  0.4191570000000  0.4545070000000  0.4995150000000 1.0
C      1  0.5749240000000  0.4491670000000  0.5017640000000 1.0
C      1  0.5122790000000  0.5246360000000  0.4095550000000 1.0
C      1  0.4574940000000  0.5561230000000  0.4434160000000 1.0
C      1  0.4684760000000  0.4823500000000  0.5073180000000 1.0
C      1  0.5366220000000  0.5585740000000  0.4310990000000 1.0
C      1  0.5442360000000  0.5086100000000  0.5779560000000 1.0
C      1  0.4464240000000  0.5315080000000  0.4987660000000 1.0
C      1  0.4790770000000  0.5809440000000  0.5442580000000 1.0
C      1  0.4492120000000  0.4236980000000  0.5173720000000 1.0
C      1  0.5114930000000  0.4646450000000  0.5026040000000 1.0
END
