TITL C-87695-5360-8 0.0195775255769315 125000 -244.696229697078 0 0 36 (C1) n - 1
REM
REM in /rds/project/t2_vol4/rds-t2-cs072/BORA/CARBON/from-Arr/AIRSS/Generating-Clusters/GAP-ML-2020/Only-C1/SD-CG/HFTN-CG
REM
REM
REM
REM
REM
REM ./C.cell (11c1c37f851c82e70ff6c80c92926a4b)
REM AIRSS Version 0.9.1 bugfix July 2018 build 013d7b7c2542+ Fri, 06 Jul 2018 19:26:36 +0100
REM compiler GCC version 9.3.0
REM options -cpp -mtune=generic -march=x86-64 -g -O0
REM seed -2065767309 -234132052 -1214285018 742843425 859797291 1835590026 -1359401702 570804801 1080366309 -221936853 -2076577329 602828334 -53404498 790027852 543698342 -448215745 -823779584 1853162853 -875797231 -1415328980 100942609 686757159 352573555 -322243140 -764180458 1117175172 -1608198957 -1828697079 -1900995793 -1063796823 -1579295649 133858977 1515806054
REM
CELL 1.54180   50.00000   50.00000   50.00000   90.00000   90.00000   90.00000
LATT -1
SFAC C  
C      1  0.5422700000000  0.5167340000000  0.4625580000000 1.0
C      1  0.5122630000000  0.5632330000000  0.5047920000000 1.0
C      1  0.5112290000000  0.4545350000000  0.5310690000000 1.0
C      1  0.5080910000000  0.4572060000000  0.4626870000000 1.0
C      1  0.4413850000000  0.5083460000000  0.4812840000000 1.0
C      1  0.4603640000000  0.4655800000000  0.5334130000000 1.0
C      1  0.4722220000000  0.5325650000000  0.5113290000000 1.0
C      1  0.4871480000000  0.4754590000000  0.4549440000000 1.0
C      1  0.5181150000000  0.5172840000000  0.4480790000000 1.0
C      1  0.5299570000000  0.4604900000000  0.4794340000000 1.0
C      1  0.5273150000000  0.4776950000000  0.5250180000000 1.0
C      1  0.4536050000000  0.4621550000000  0.4878000000000 1.0
C      1  0.4821250000000  0.4721650000000  0.5516120000000 1.0
C      1  0.4631300000000  0.4653000000000  0.4631090000000 1.0
C      1  0.4618020000000  0.5264570000000  0.4832770000000 1.0
C      1  0.4494030000000  0.4902900000000  0.5245830000000 1.0
C      1  0.5008770000000  0.4538480000000  0.5564580000000 1.0
C      1  0.5041810000000  0.5419510000000  0.4592250000000 1.0
C      1  0.4682550000000  0.5112320000000  0.5309720000000 1.0
C      1  0.4675830000000  0.4501420000000  0.5102780000000 1.0
C      1  0.5491340000000  0.5036090000000  0.4882740000000 1.0
C      1  0.5338250000000  0.5237610000000  0.5428580000000 1.0
C      1  0.4891830000000  0.4998770000000  0.5474940000000 1.0
C      1  0.5378890000000  0.4801190000000  0.4987430000000 1.0
C      1  0.5341640000000  0.5654290000000  0.5219890000000 1.0
C      1  0.5093810000000  0.4419110000000  0.4855340000000 1.0
C      1  0.5206430000000  0.5561990000000  0.4770340000000 1.0
C      1  0.4955160000000  0.4419450000000  0.5093330000000 1.0
C      1  0.4929500000000  0.5027270000000  0.4505540000000 1.0
C      1  0.4890330000000  0.5534260000000  0.5150370000000 1.0
C      1  0.5460970000000  0.5405350000000  0.5252370000000 1.0
C      1  0.5459140000000  0.5425050000000  0.4758810000000 1.0
C      1  0.4799940000000  0.5268440000000  0.4614520000000 1.0
C      1  0.4408640000000  0.4869610000000  0.4974890000000 1.0
C      1  0.5553460000000  0.5293370000000  0.5001200000000 1.0
C      1  0.5187450000000  0.5021500000000  0.5410490000000 1.0
END
