TITL C-87676-5295-7 -3.63943379236088 125000 -264.413464182625 0 0 39 (C1) n - 1
REM
REM in /rds/project/t2_vol4/rds-t2-cs072/BORA/CARBON/from-Arr/AIRSS/Generating-Clusters/GAP-ML-2020/Only-C1/SD-CG/HFTN-CG
REM
REM
REM
REM
REM
REM ./C.cell (11c1c37f851c82e70ff6c80c92926a4b)
REM AIRSS Version 0.9.1 bugfix July 2018 build 013d7b7c2542+ Fri, 06 Jul 2018 19:26:36 +0100
REM compiler GCC version 9.3.0
REM options -cpp -mtune=generic -march=x86-64 -g -O0
REM seed 1203212763 -1415820186 240312839 -1401835329 3395540 -2042191804 1642850414 175562254 1873616571 -1805110565 -1521759104 1840766530 -405882583 -2141254934 -1393893405 309684206 657859538 -391111905 -227181198 -1666885327 -1575922600 -320119701 -1638903143 512486852 -1394258715 502774982 2139038159 54282595 -1772390620 -126721939 -308348469 -99357905 -499410831
REM
CELL 1.54180   50.00000   50.00000   50.00000   90.00000   90.00000   90.00000
LATT -1
SFAC C  
C      1  0.5507830000000  0.5108950000000  0.4847960000000 1.0
C      1  0.4717340000000  0.4897690000000  0.4608050000000 1.0
C      1  0.5196750000000  0.5096280000000  0.5475060000000 1.0
C      1  0.4907980000000  0.4477700000000  0.5268200000000 1.0
C      1  0.5501330000000  0.5045540000000  0.5125940000000 1.0
C      1  0.4898440000000  0.5319880000000  0.4519590000000 1.0
C      1  0.4966990000000  0.5572490000000  0.4931730000000 1.0
C      1  0.5375080000000  0.5239550000000  0.5300770000000 1.0
C      1  0.5267550000000  0.5468400000000  0.5193270000000 1.0
C      1  0.5035460000000  0.5081080000000  0.4979400000000 1.0
C      1  0.4922170000000  0.5158180000000  0.5502440000000 1.0
C      1  0.4987230000000  0.4385680000000  0.4821960000000 1.0
C      1  0.4742830000000  0.5093720000000  0.4421540000000 1.0
C      1  0.4544320000000  0.5442730000000  0.5351380000000 1.0
C      1  0.4595240000000  0.5291390000000  0.4891190000000 1.0
C      1  0.5374070000000  0.4634710000000  0.4760910000000 1.0
C      1  0.5440550000000  0.4895300000000  0.4665580000000 1.0
C      1  0.4769080000000  0.4916950000000  0.5446490000000 1.0
C      1  0.4664810000000  0.4498570000000  0.5122560000000 1.0
C      1  0.4989510000000  0.5541420000000  0.5220080000000 1.0
C      1  0.4519970000000  0.5247490000000  0.5163370000000 1.0
C      1  0.4961250000000  0.4698460000000  0.5439650000000 1.0
C      1  0.4819300000000  0.5403790000000  0.5389640000000 1.0
C      1  0.5255290000000  0.5522740000000  0.4910750000000 1.0
C      1  0.5222690000000  0.4817470000000  0.5432650000000 1.0
C      1  0.4581810000000  0.4694870000000  0.4758340000000 1.0
C      1  0.4551670000000  0.4949720000000  0.5251930000000 1.0
C      1  0.5186860000000  0.5281460000000  0.4508980000000 1.0
C      1  0.4783180000000  0.5467660000000  0.4751650000000 1.0
C      1  0.5155770000000  0.4508210000000  0.4647170000000 1.0
C      1  0.5360310000000  0.5343650000000  0.4739210000000 1.0
C      1  0.4717290000000  0.4454760000000  0.4839030000000 1.0
C      1  0.4807630000000  0.5092860000000  0.4818750000000 1.0
C      1  0.4995770000000  0.4828420000000  0.4998990000000 1.0
C      1  0.5413570000000  0.4781990000000  0.5220540000000 1.0
C      1  0.4512810000000  0.4737260000000  0.5073860000000 1.0
C      1  0.5114750000000  0.4410380000000  0.5083080000000 1.0
C      1  0.5353770000000  0.4572070000000  0.5045870000000 1.0
C      1  0.5281770000000  0.5020550000000  0.4472450000000 1.0
END
