TITL C-87698-5458-6 1.21106438812634 125000 -485.351834898494 0 0 70 (C1) n - 1
REM
REM in /rds/project/t2_vol4/rds-t2-cs072/BORA/CARBON/from-Arr/AIRSS/Generating-Clusters/GAP-ML-2020/Only-C1/SD-CG/HFTN-CG
REM
REM
REM
REM
REM
REM ./C.cell (11c1c37f851c82e70ff6c80c92926a4b)
REM AIRSS Version 0.9.1 bugfix July 2018 build 013d7b7c2542+ Fri, 06 Jul 2018 19:26:36 +0100
REM compiler GCC version 9.3.0
REM options -cpp -mtune=generic -march=x86-64 -g -O0
REM seed 619937051 -1344716905 -1092928517 156304741 -194838909 -1069360387 67800518 -1029933944 -1800446293 675396125 528887195 -1364420193 1058381535 -179231669 -435897872 244518816 184365751 -18503327 -1239547509 -2123745698 -1542081564 -393842400 783775155 -90452578 216026245 5498760 -269303021 -1543656751 -1781273923 -325675028 -387341504 1111837790 308102053
REM
CELL 1.54180   50.00000   50.00000   50.00000   90.00000   90.00000   90.00000
LATT -1
SFAC C  
C      1  0.5669550000000  0.4857790000000  0.5329410000000 1.0
C      1  0.4744650000000  0.4984400000000  0.5073790000000 1.0
C      1  0.5001140000000  0.4311850000000  0.5048390000000 1.0
C      1  0.5140150000000  0.5314560000000  0.4919410000000 1.0
C      1  0.4846710000000  0.5399430000000  0.4838500000000 1.0
C      1  0.4695580000000  0.5143370000000  0.4833230000000 1.0
C      1  0.4429340000000  0.4879890000000  0.5171080000000 1.0
C      1  0.4328640000000  0.4891110000000  0.4722030000000 1.0
C      1  0.4382940000000  0.5166310000000  0.4814070000000 1.0
C      1  0.5136700000000  0.5161340000000  0.5654660000000 1.0
C      1  0.5143660000000  0.4847190000000  0.4282800000000 1.0
C      1  0.4686640000000  0.4958960000000  0.5567650000000 1.0
C      1  0.5123400000000  0.5031370000000  0.4821310000000 1.0
C      1  0.5310550000000  0.5580210000000  0.4555280000000 1.0
C      1  0.4797040000000  0.5138730000000  0.5312970000000 1.0
C      1  0.4590420000000  0.4546700000000  0.4587910000000 1.0
C      1  0.4364890000000  0.4717100000000  0.4942710000000 1.0
C      1  0.5396030000000  0.5299750000000  0.4443340000000 1.0
C      1  0.4568580000000  0.5416070000000  0.4451560000000 1.0
C      1  0.5158380000000  0.4332220000000  0.4801990000000 1.0
C      1  0.5077370000000  0.4440850000000  0.4539340000000 1.0
C      1  0.4717900000000  0.4399780000000  0.5077980000000 1.0
C      1  0.5080880000000  0.5655010000000  0.5198720000000 1.0
C      1  0.5430510000000  0.4417080000000  0.4816270000000 1.0
C      1  0.5382070000000  0.5452560000000  0.4798200000000 1.0
C      1  0.4802370000000  0.5468380000000  0.5604030000000 1.0
C      1  0.4347880000000  0.5163050000000  0.5116350000000 1.0
C      1  0.5598190000000  0.4591990000000  0.5258240000000 1.0
C      1  0.5010310000000  0.5393770000000  0.5752050000000 1.0
C      1  0.5378590000000  0.4468520000000  0.5399180000000 1.0
C      1  0.5218150000000  0.5377550000000  0.5201640000000 1.0
C      1  0.5129560000000  0.4361680000000  0.5303970000000 1.0
C      1  0.4944160000000  0.5242190000000  0.4398030000000 1.0
C      1  0.4672820000000  0.5197260000000  0.4299160000000 1.0
C      1  0.5615730000000  0.4555840000000  0.4988970000000 1.0
C      1  0.5644150000000  0.5087440000000  0.5154830000000 1.0
C      1  0.4936130000000  0.4907610000000  0.5700000000000 1.0
C      1  0.5029970000000  0.4867640000000  0.5027200000000 1.0
C      1  0.4464270000000  0.4787900000000  0.4498190000000 1.0
C      1  0.4540720000000  0.4499800000000  0.4874260000000 1.0
C      1  0.5567740000000  0.4926400000000  0.5586790000000 1.0
C      1  0.5495760000000  0.4613920000000  0.4604910000000 1.0
C      1  0.4614570000000  0.5253800000000  0.5515940000000 1.0
C      1  0.4828430000000  0.4521720000000  0.4432410000000 1.0
C      1  0.4867260000000  0.5492160000000  0.4553320000000 1.0
C      1  0.5062180000000  0.5706750000000  0.4634160000000 1.0
C      1  0.4367100000000  0.5379450000000  0.4621920000000 1.0
C      1  0.5197770000000  0.5137370000000  0.4304240000000 1.0
C      1  0.4544200000000  0.4758000000000  0.5411090000000 1.0
C      1  0.5272080000000  0.4627970000000  0.4428920000000 1.0
C      1  0.5439210000000  0.5169130000000  0.5571330000000 1.0
C      1  0.4684620000000  0.4512260000000  0.5346660000000 1.0
C      1  0.4867880000000  0.4758690000000  0.4267950000000 1.0
C      1  0.5042910000000  0.4653070000000  0.5666810000000 1.0
C      1  0.4741530000000  0.5648670000000  0.4962300000000 1.0
C      1  0.4846980000000  0.5632930000000  0.5374720000000 1.0
C      1  0.5655720000000  0.4770010000000  0.4796110000000 1.0
C      1  0.5324580000000  0.4612400000000  0.5643360000000 1.0
C      1  0.5521050000000  0.4738390000000  0.5778110000000 1.0
C      1  0.5180710000000  0.4896850000000  0.5258340000000 1.0
C      1  0.4892450000000  0.5035690000000  0.4639990000000 1.0
C      1  0.4619090000000  0.5594830000000  0.5211570000000 1.0
C      1  0.5556100000000  0.5247230000000  0.4686860000000 1.0
C      1  0.5077340000000  0.5163330000000  0.5361100000000 1.0
C      1  0.4480880000000  0.5349890000000  0.5279220000000 1.0
C      1  0.5489840000000  0.5278810000000  0.5304720000000 1.0
C      1  0.5004790000000  0.5768840000000  0.4936570000000 1.0
C      1  0.4929600000000  0.4467700000000  0.5482440000000 1.0
C      1  0.4625410000000  0.4919590000000  0.4296690000000 1.0
C      1  0.5665510000000  0.5049900000000  0.4862760000000 1.0
END
