TITL C-87680-5318-1 10.2715706516364 125000 -530.990877761082 0 0 76 (C1) n - 1
REM
REM in /rds/project/t2_vol4/rds-t2-cs072/BORA/CARBON/from-Arr/AIRSS/Generating-Clusters/GAP-ML-2020/Only-C1/SD-CG/HFTN-CG
REM
REM
REM
REM
REM
REM ./C.cell (11c1c37f851c82e70ff6c80c92926a4b)
REM AIRSS Version 0.9.1 bugfix July 2018 build 013d7b7c2542+ Fri, 06 Jul 2018 19:26:36 +0100
REM compiler GCC version 9.3.0
REM options -cpp -mtune=generic -march=x86-64 -g -O0
REM seed -437534111 856618158 -1652932987 274897085 -1603730103 2015035460 -805834839 585899208 126595811 -1932160487 -123938118 458926058 -84903365 -882351640 1077875425 -754514400 -1639815346 -1606778483 2061154169 -1113623743 -1480781453 734055215 119111203 749115717 -2104943939 -563376709 365582633 -166750000 306957288 -931887011 -1948779685 -202985384 -1017341579
REM
CELL 1.54180   50.00000   50.00000   50.00000   90.00000   90.00000   90.00000
LATT -1
SFAC C  
C      1  0.4858960000000  0.4293820000000  0.4722640000000 1.0
C      1  0.5123270000000  0.4546600000000  0.4376180000000 1.0
C      1  0.5505710000000  0.4810580000000  0.4421770000000 1.0
C      1  0.4920210000000  0.5366490000000  0.5016660000000 1.0
C      1  0.5174580000000  0.5399720000000  0.5647670000000 1.0
C      1  0.4673800000000  0.4405540000000  0.4950760000000 1.0
C      1  0.5589180000000  0.4798560000000  0.5447830000000 1.0
C      1  0.5107320000000  0.4679850000000  0.4907610000000 1.0
C      1  0.4797670000000  0.4679760000000  0.4904030000000 1.0
C      1  0.4504550000000  0.4861180000000  0.4517840000000 1.0
C      1  0.5182960000000  0.5509440000000  0.5372650000000 1.0
C      1  0.5832990000000  0.4754510000000  0.5327840000000 1.0
C      1  0.4926080000000  0.5676610000000  0.4700140000000 1.0
C      1  0.5087390000000  0.4785690000000  0.4213110000000 1.0
C      1  0.4930010000000  0.4825650000000  0.5318580000000 1.0
C      1  0.5292720000000  0.5416970000000  0.4467410000000 1.0
C      1  0.4951580000000  0.4486460000000  0.5638190000000 1.0
C      1  0.5325790000000  0.4942690000000  0.4246290000000 1.0
C      1  0.5259990000000  0.4460860000000  0.5285100000000 1.0
C      1  0.4860570000000  0.4969850000000  0.4169070000000 1.0
C      1  0.5382690000000  0.4602390000000  0.5499990000000 1.0
C      1  0.4500310000000  0.5414780000000  0.4609990000000 1.0
C      1  0.5488570000000  0.4511020000000  0.4781300000000 1.0
C      1  0.5464890000000  0.5406660000000  0.4702880000000 1.0
C      1  0.4607090000000  0.5697510000000  0.5508460000000 1.0
C      1  0.5159350000000  0.5014420000000  0.5259100000000 1.0
C      1  0.4590280000000  0.5031350000000  0.4299650000000 1.0
C      1  0.5660800000000  0.4925570000000  0.4636310000000 1.0
C      1  0.4412490000000  0.4506900000000  0.5039290000000 1.0
C      1  0.5171290000000  0.4958380000000  0.4973890000000 1.0
C      1  0.4623630000000  0.4745240000000  0.5672690000000 1.0
C      1  0.5362150000000  0.5548160000000  0.4934880000000 1.0
C      1  0.4594300000000  0.5314960000000  0.4361760000000 1.0
C      1  0.4938620000000  0.5460070000000  0.5769320000000 1.0
C      1  0.5646640000000  0.5185980000000  0.4766090000000 1.0
C      1  0.4381790000000  0.5225810000000  0.4797500000000 1.0
C      1  0.4726410000000  0.4512270000000  0.5776680000000 1.0
C      1  0.4643390000000  0.5524320000000  0.5037930000000 1.0
C      1  0.4743700000000  0.5205870000000  0.5452980000000 1.0
C      1  0.4708570000000  0.5463110000000  0.5618190000000 1.0
C      1  0.5388060000000  0.4563330000000  0.4508530000000 1.0
C      1  0.5683840000000  0.4720040000000  0.4832330000000 1.0
C      1  0.4347040000000  0.4909170000000  0.5261130000000 1.0
C      1  0.5281560000000  0.4430320000000  0.4986420000000 1.0
C      1  0.4754860000000  0.4739020000000  0.4614400000000 1.0
C      1  0.4652190000000  0.5610000000000  0.4756150000000 1.0
C      1  0.4889710000000  0.4480070000000  0.4517190000000 1.0
C      1  0.5176640000000  0.4663780000000  0.5688420000000 1.0
C      1  0.5439900000000  0.5058190000000  0.5430690000000 1.0
C      1  0.4547040000000  0.5112970000000  0.5234890000000 1.0
C      1  0.4351040000000  0.4945650000000  0.4752590000000 1.0
C      1  0.4850450000000  0.5423580000000  0.4288900000000 1.0
C      1  0.5257690000000  0.5218690000000  0.4254000000000 1.0
C      1  0.5001570000000  0.5269950000000  0.5290860000000 1.0
C      1  0.4421060000000  0.4727070000000  0.5468360000000 1.0
C      1  0.5416880000000  0.5473980000000  0.5201550000000 1.0
C      1  0.4991560000000  0.5222900000000  0.4156420000000 1.0
C      1  0.4317540000000  0.4784740000000  0.4990770000000 1.0
C      1  0.4975760000000  0.4484130000000  0.5337330000000 1.0
C      1  0.5578530000000  0.5256500000000  0.5254180000000 1.0
C      1  0.5032620000000  0.5557820000000  0.4470220000000 1.0
C      1  0.5084330000000  0.5632920000000  0.4948390000000 1.0
C      1  0.5018260000000  0.5710710000000  0.5229630000000 1.0
C      1  0.4869780000000  0.4290780000000  0.5138570000000 1.0
C      1  0.5777350000000  0.4854560000000  0.5076130000000 1.0
C      1  0.4935780000000  0.5104510000000  0.4881020000000 1.0
C      1  0.5278480000000  0.5137880000000  0.5663810000000 1.0
C      1  0.4406590000000  0.4500180000000  0.5317670000000 1.0
C      1  0.4917160000000  0.5019890000000  0.4615510000000 1.0
C      1  0.5713970000000  0.5136500000000  0.5038160000000 1.0
C      1  0.4825130000000  0.4946520000000  0.5587260000000 1.0
C      1  0.4453850000000  0.5309490000000  0.5054190000000 1.0
C      1  0.4734430000000  0.5684890000000  0.5267060000000 1.0
C      1  0.5090850000000  0.4930290000000  0.5728960000000 1.0
C      1  0.5058140000000  0.4243840000000  0.4923550000000 1.0
C      1  0.4768070000000  0.4919500000000  0.5084480000000 1.0
END
