TITL C-87688-5378-5 -0.100586684098733 125000 -661.683072722784 0 0 95 (C1) n - 1
REM
REM in /rds/project/t2_vol4/rds-t2-cs072/BORA/CARBON/from-Arr/AIRSS/Generating-Clusters/GAP-ML-2020/Only-C1/SD-CG/HFTN-CG
REM
REM
REM
REM
REM
REM ./C.cell (11c1c37f851c82e70ff6c80c92926a4b)
REM AIRSS Version 0.9.1 bugfix July 2018 build 013d7b7c2542+ Fri, 06 Jul 2018 19:26:36 +0100
REM compiler GCC version 9.3.0
REM options -cpp -mtune=generic -march=x86-64 -g -O0
REM seed -1519706622 664351667 -494853825 645945136 -786466624 -1021034162 -1617405909 -5293838 -133724481 1800423594 -210470505 700056944 -1839570738 1931020646 -1688047735 1796430549 1789805224 -370328096 1043799608 -1943932587 1873321473 1199493835 -1425139240 1544899380 1334263554 -939111963 1417277297 -313764466 174952968 -1648740829 481336808 728436776 -998665035
REM
CELL 1.54180   50.00000   50.00000   50.00000   90.00000   90.00000   90.00000
LATT -1
SFAC C  
C      1  0.4732920000000  0.5025580000000  0.5017680000000 1.0
C      1  0.4996420000000  0.5790860000000  0.4733780000000 1.0
C      1  0.5139750000000  0.4418870000000  0.5017740000000 1.0
C      1  0.5144560000000  0.4993250000000  0.4742580000000 1.0
C      1  0.5609840000000  0.5254110000000  0.5497610000000 1.0
C      1  0.4651460000000  0.5721020000000  0.5390830000000 1.0
C      1  0.4783390000000  0.5805820000000  0.4933870000000 1.0
C      1  0.4947270000000  0.4683010000000  0.5804010000000 1.0
C      1  0.4886100000000  0.4544440000000  0.4227740000000 1.0
C      1  0.4858830000000  0.5821100000000  0.5219130000000 1.0
C      1  0.4968350000000  0.4103390000000  0.4424440000000 1.0
C      1  0.4518360000000  0.4612080000000  0.5527100000000 1.0
C      1  0.5119010000000  0.4505770000000  0.4730200000000 1.0
C      1  0.4516260000000  0.4589640000000  0.5219110000000 1.0
C      1  0.4457780000000  0.5192840000000  0.4326540000000 1.0
C      1  0.4950550000000  0.5482920000000  0.5720170000000 1.0
C      1  0.4520220000000  0.5285580000000  0.4610640000000 1.0
C      1  0.5321140000000  0.5074540000000  0.4185560000000 1.0
C      1  0.4261540000000  0.5449810000000  0.5254080000000 1.0
C      1  0.4439480000000  0.5664010000000  0.5214000000000 1.0
C      1  0.4554060000000  0.4991970000000  0.4201120000000 1.0
C      1  0.4798060000000  0.4313530000000  0.4382490000000 1.0
C      1  0.4550750000000  0.5004170000000  0.4731230000000 1.0
C      1  0.5493040000000  0.5374940000000  0.4748510000000 1.0
C      1  0.4422890000000  0.4860740000000  0.5626220000000 1.0
C      1  0.4511720000000  0.5321980000000  0.5650150000000 1.0
C      1  0.5440530000000  0.4338070000000  0.5344720000000 1.0
C      1  0.5548760000000  0.4818490000000  0.4955760000000 1.0
C      1  0.5183410000000  0.4565590000000  0.4232720000000 1.0
C      1  0.4863070000000  0.5259340000000  0.5135440000000 1.0
C      1  0.4750440000000  0.4866500000000  0.4541200000000 1.0
C      1  0.5686390000000  0.4566050000000  0.5031190000000 1.0
C      1  0.4105760000000  0.4931450000000  0.5250150000000 1.0
C      1  0.5711790000000  0.5078660000000  0.4974720000000 1.0
C      1  0.5528580000000  0.4768850000000  0.4470770000000 1.0
C      1  0.4674140000000  0.4370740000000  0.5100860000000 1.0
C      1  0.5116250000000  0.4719180000000  0.5142930000000 1.0
C      1  0.5086750000000  0.5230140000000  0.5336740000000 1.0
C      1  0.5398310000000  0.4297720000000  0.5048680000000 1.0
C      1  0.4707450000000  0.4768560000000  0.4267000000000 1.0
C      1  0.5319100000000  0.5159520000000  0.5158590000000 1.0
C      1  0.4798520000000  0.4554410000000  0.5589790000000 1.0
C      1  0.5524030000000  0.5568430000000  0.5222220000000 1.0
C      1  0.5217280000000  0.4611470000000  0.5726720000000 1.0
C      1  0.5641830000000  0.4535970000000  0.5320480000000 1.0
C      1  0.4378980000000  0.5461350000000  0.4803750000000 1.0
C      1  0.4520660000000  0.5680520000000  0.4936850000000 1.0
C      1  0.4933160000000  0.4781550000000  0.5367670000000 1.0
C      1  0.5091760000000  0.5215030000000  0.4276450000000 1.0
C      1  0.4951760000000  0.5595510000000  0.4514950000000 1.0
C      1  0.5242560000000  0.5235600000000  0.4882370000000 1.0
C      1  0.5145690000000  0.5495810000000  0.4333810000000 1.0
C      1  0.4597180000000  0.4323130000000  0.4567970000000 1.0
C      1  0.5546240000000  0.4797120000000  0.5416170000000 1.0
C      1  0.5531240000000  0.5225120000000  0.4305680000000 1.0
C      1  0.5593380000000  0.5002180000000  0.5612770000000 1.0
C      1  0.4393690000000  0.4621000000000  0.4944670000000 1.0
C      1  0.5422000000000  0.5491290000000  0.4401070000000 1.0
C      1  0.4223980000000  0.5010540000000  0.5478080000000 1.0
C      1  0.5456090000000  0.5504230000000  0.5499940000000 1.0
C      1  0.5593510000000  0.4383730000000  0.4839340000000 1.0
C      1  0.5334790000000  0.4857800000000  0.5643830000000 1.0
C      1  0.4944100000000  0.5254110000000  0.5875400000000 1.0
C      1  0.5159130000000  0.5529600000000  0.5501310000000 1.0
C      1  0.4681200000000  0.4853250000000  0.5234550000000 1.0
C      1  0.4955200000000  0.4846540000000  0.4925540000000 1.0
C      1  0.4601720000000  0.5057190000000  0.5732580000000 1.0
C      1  0.5069100000000  0.4994520000000  0.5530130000000 1.0
C      1  0.5561130000000  0.4474220000000  0.4550630000000 1.0
C      1  0.4919500000000  0.4290490000000  0.5187770000000 1.0
C      1  0.5324500000000  0.5735550000000  0.5103260000000 1.0
C      1  0.4825430000000  0.5351260000000  0.4626180000000 1.0
C      1  0.5711050000000  0.5186750000000  0.4722640000000 1.0
C      1  0.5454700000000  0.5630290000000  0.4652760000000 1.0
C      1  0.4167490000000  0.5041050000000  0.5005770000000 1.0
C      1  0.4886080000000  0.4993280000000  0.5782120000000 1.0
C      1  0.4953910000000  0.5093880000000  0.4523730000000 1.0
C      1  0.5606790000000  0.5274060000000  0.5196200000000 1.0
C      1  0.4288300000000  0.5288000000000  0.5483870000000 1.0
C      1  0.5165180000000  0.4244120000000  0.4543400000000 1.0
C      1  0.5370050000000  0.4868240000000  0.5178830000000 1.0
C      1  0.5226490000000  0.4382180000000  0.5539590000000 1.0
C      1  0.4853470000000  0.4646030000000  0.4727670000000 1.0
C      1  0.5669830000000  0.5042830000000  0.4480340000000 1.0
C      1  0.4316150000000  0.4867310000000  0.4837620000000 1.0
C      1  0.4977410000000  0.5367120000000  0.4902030000000 1.0
C      1  0.4610880000000  0.4459380000000  0.4813050000000 1.0
C      1  0.5334800000000  0.4762880000000  0.4715200000000 1.0
C      1  0.4955970000000  0.4334070000000  0.5466340000000 1.0
C      1  0.4218100000000  0.5325170000000  0.5000040000000 1.0
C      1  0.5348780000000  0.4793060000000  0.4233690000000 1.0
C      1  0.5115540000000  0.5746540000000  0.5297220000000 1.0
C      1  0.5354850000000  0.4361850000000  0.4378670000000 1.0
C      1  0.5271190000000  0.5779550000000  0.4819100000000 1.0
C      1  0.4689210000000  0.5548970000000  0.5620220000000 1.0
END
