TITL C-87686-5311-9 -0.00899142272613018 125000 -82.2008329418199 0 0 13 (C1) n - 1
REM
REM in /rds/project/t2_vol4/rds-t2-cs072/BORA/CARBON/from-Arr/AIRSS/Generating-Clusters/GAP-ML-2020/Only-C1/SD-CG/HFTN-CG
REM
REM
REM
REM
REM
REM ./C.cell (11c1c37f851c82e70ff6c80c92926a4b)
REM AIRSS Version 0.9.1 bugfix July 2018 build 013d7b7c2542+ Fri, 06 Jul 2018 19:26:36 +0100
REM compiler GCC version 9.3.0
REM options -cpp -mtune=generic -march=x86-64 -g -O0
REM seed -2146854412 -878282423 2000149236 200295940 1585373554 1630984086 1630487209 -1426825183 1005061672 -195785923 830201143 -316727689 1536337287 -894073593 1920819468 -510930762 -1795842993 -244348340 -1040733788 2012500333 1416315720 964778606 -1893687845 -850229869 709621678 567578100 -1160996815 -530114716 -1800746982 -143520836 -108611129 1610388536 -388902739
REM
CELL 1.54180   50.00000   50.00000   50.00000   90.00000   90.00000   90.00000
LATT -1
SFAC C  
C      1  0.4901030000000  0.4689560000000  0.4917170000000 1.0
C      1  0.4659000000000  0.5073400000000  0.4784640000000 1.0
C      1  0.5122370000000  0.4565260000000  0.4927600000000 1.0
C      1  0.5310230000000  0.4682110000000  0.5070300000000 1.0
C      1  0.5293510000000  0.5298850000000  0.5083630000000 1.0
C      1  0.5011430000000  0.5019040000000  0.5337240000000 1.0
C      1  0.4653750000000  0.5121470000000  0.4509260000000 1.0
C      1  0.5266720000000  0.5078830000000  0.5245050000000 1.0
C      1  0.4519070000000  0.5281370000000  0.4660980000000 1.0
C      1  0.4747770000000  0.4899780000000  0.4985150000000 1.0
C      1  0.5312230000000  0.5512660000000  0.4954390000000 1.0
C      1  0.4777270000000  0.4943700000000  0.5287070000000 1.0
C      1  0.5425620000000  0.4833970000000  0.5237500000000 1.0
END
