TITL C-87697-5366-4 -15.3330958925011 125000 -511.994173643934 0 0 73 (C1) n - 1
REM
REM in /rds/project/t2_vol4/rds-t2-cs072/BORA/CARBON/from-Arr/AIRSS/Generating-Clusters/GAP-ML-2020/Only-C1/SD-CG/HFTN-CG
REM
REM
REM
REM
REM
REM ./C.cell (11c1c37f851c82e70ff6c80c92926a4b)
REM AIRSS Version 0.9.1 bugfix July 2018 build 013d7b7c2542+ Fri, 06 Jul 2018 19:26:36 +0100
REM compiler GCC version 9.3.0
REM options -cpp -mtune=generic -march=x86-64 -g -O0
REM seed -1808633659 -1622824785 -751126398 -45196062 -144578259 2950219 -1499680165 1792264306 821160112 -1243721334 523430711 2068918544 -1857416171 1050350889 355487792 -1903945271 -1386331726 -13196447 1481792205 1116896692 2009990601 -865468033 644548120 123978928 -140356776 681389200 -1524123812 -358849349 2113796247 1771780658 -348992921 -234190526 -1724643527
REM
CELL 1.54180   50.00000   50.00000   50.00000   90.00000   90.00000   90.00000
LATT -1
SFAC C  
C      1  0.5724750000000  0.4675660000000  0.5073590000000 1.0
C      1  0.5113000000000  0.4630410000000  0.4471750000000 1.0
C      1  0.4502330000000  0.4967470000000  0.4728560000000 1.0
C      1  0.4339840000000  0.4783030000000  0.5297280000000 1.0
C      1  0.4532270000000  0.4549900000000  0.5339820000000 1.0
C      1  0.4930940000000  0.5142930000000  0.4497290000000 1.0
C      1  0.5760590000000  0.4920730000000  0.4704950000000 1.0
C      1  0.5809380000000  0.4925200000000  0.4986570000000 1.0
C      1  0.4500430000000  0.4948790000000  0.4414760000000 1.0
C      1  0.4272170000000  0.5432280000000  0.4619010000000 1.0
C      1  0.4666200000000  0.4477760000000  0.4430640000000 1.0
C      1  0.4764710000000  0.5655610000000  0.5002290000000 1.0
C      1  0.4617490000000  0.4692220000000  0.5584520000000 1.0
C      1  0.5425150000000  0.5493350000000  0.4926280000000 1.0
C      1  0.4949290000000  0.4846980000000  0.4609900000000 1.0
C      1  0.4513170000000  0.5204430000000  0.5550410000000 1.0
C      1  0.4883460000000  0.5641320000000  0.5446550000000 1.0
C      1  0.4614190000000  0.5197290000000  0.4925700000000 1.0
C      1  0.5261400000000  0.5704090000000  0.4834690000000 1.0
C      1  0.4581860000000  0.4713410000000  0.4312750000000 1.0
C      1  0.5533820000000  0.4892540000000  0.5467080000000 1.0
C      1  0.5164380000000  0.5171000000000  0.4314420000000 1.0
C      1  0.4534240000000  0.5428270000000  0.4554590000000 1.0
C      1  0.4719790000000  0.5457590000000  0.4797040000000 1.0
C      1  0.5393350000000  0.4359720000000  0.5017080000000 1.0
C      1  0.5577940000000  0.5161530000000  0.5354580000000 1.0
C      1  0.4694710000000  0.4757880000000  0.4779910000000 1.0
C      1  0.5109010000000  0.4841400000000  0.4876470000000 1.0
C      1  0.4575800000000  0.4495440000000  0.4703760000000 1.0
C      1  0.5094360000000  0.5725310000000  0.5287730000000 1.0
C      1  0.4971940000000  0.4317330000000  0.5232520000000 1.0
C      1  0.4688000000000  0.4362470000000  0.5180310000000 1.0
C      1  0.4658780000000  0.5594590000000  0.5268540000000 1.0
C      1  0.4358700000000  0.5252980000000  0.5092210000000 1.0
C      1  0.5122080000000  0.4641110000000  0.5613810000000 1.0
C      1  0.4256500000000  0.4963730000000  0.5110400000000 1.0
C      1  0.5725750000000  0.5172300000000  0.5104990000000 1.0
C      1  0.4873350000000  0.4818230000000  0.5030990000000 1.0
C      1  0.5393610000000  0.5357980000000  0.5432130000000 1.0
C      1  0.4949690000000  0.4397270000000  0.4496970000000 1.0
C      1  0.5187700000000  0.5078430000000  0.5753520000000 1.0
C      1  0.5387470000000  0.4722810000000  0.4424280000000 1.0
C      1  0.5556050000000  0.5218760000000  0.4405880000000 1.0
C      1  0.4200570000000  0.5281910000000  0.4826930000000 1.0
C      1  0.5589510000000  0.4522820000000  0.4868540000000 1.0
C      1  0.5387800000000  0.4987220000000  0.4318680000000 1.0
C      1  0.4445500000000  0.4924170000000  0.5533410000000 1.0
C      1  0.4640040000000  0.5191790000000  0.4424790000000 1.0
C      1  0.5184900000000  0.5274310000000  0.4948800000000 1.0
C      1  0.5304590000000  0.5022530000000  0.4898380000000 1.0
C      1  0.5409300000000  0.4444690000000  0.5291500000000 1.0
C      1  0.5602570000000  0.4687080000000  0.4624780000000 1.0
C      1  0.5664720000000  0.5350620000000  0.4885760000000 1.0
C      1  0.4672570000000  0.4308840000000  0.4891620000000 1.0
C      1  0.4931120000000  0.4266140000000  0.4766830000000 1.0
C      1  0.5594960000000  0.4657460000000  0.5321560000000 1.0
C      1  0.5023830000000  0.5243710000000  0.5185840000000 1.0
C      1  0.4756500000000  0.5244050000000  0.5697900000000 1.0
C      1  0.4945490000000  0.5452100000000  0.5642250000000 1.0
C      1  0.5698160000000  0.5188100000000  0.4642120000000 1.0
C      1  0.4467820000000  0.5390040000000  0.5327020000000 1.0
C      1  0.5332450000000  0.5400470000000  0.4400900000000 1.0
C      1  0.4988640000000  0.5361980000000  0.4701270000000 1.0
C      1  0.5159860000000  0.4431330000000  0.5426380000000 1.0
C      1  0.5118890000000  0.4266060000000  0.4985580000000 1.0
C      1  0.4813960000000  0.5075400000000  0.5123010000000 1.0
C      1  0.5318610000000  0.4851100000000  0.5646380000000 1.0
C      1  0.4910070000000  0.5018970000000  0.5778090000000 1.0
C      1  0.4868460000000  0.4749250000000  0.5696980000000 1.0
C      1  0.4222040000000  0.4983090000000  0.4825690000000 1.0
C      1  0.5217330000000  0.5338760000000  0.5646680000000 1.0
C      1  0.5195100000000  0.5549400000000  0.4595490000000 1.0
C      1  0.5044970000000  0.5745100000000  0.5020360000000 1.0
END
