TITL C-89224-3874-6 -38.9606533784542 125000 -945.897360522707 0 0 136 (C1) n - 1
REM
REM in /rds/project/t2_vol4/rds-t2-cs072/BORA/CARBON/from-Arr/AIRSS/Generating-Clusters/GAP-ML-2020/Only-C1/SD-CG/HFTN-CG
REM
REM
REM
REM
REM
REM ./C.cell (11c1c37f851c82e70ff6c80c92926a4b)
REM AIRSS Version 0.9.1 bugfix July 2018 build 013d7b7c2542+ Fri, 06 Jul 2018 19:26:36 +0100
REM compiler GCC version 9.3.0
REM options -cpp -mtune=generic -march=x86-64 -g -O0
REM seed -775733420 1325496375 -1017107323 468147035 504298433 -1290202792 -1645973995 1891144374 357245548 624335135 1447537718 1378918025 -2106521196 -1986761938 896897572 -1734896045 -312136883 -1338874015 689314591 -1056002858 -1490330245 -524680660 -1874844792 1038555057 611417986 -1011085757 680261103 -963085910 1023328765 -464125121 125210372 -470149228 1795577405
REM
CELL 1.54180   50.00000   50.00000   50.00000   90.00000   90.00000   90.00000
LATT -1
SFAC C  
C      1  0.4385970000000  0.5025290000000  0.4371540000000 1.0
C      1  0.5318430000000  0.5253420000000  0.5794070000000 1.0
C      1  0.5754550000000  0.5334270000000  0.5620220000000 1.0
C      1  0.4469370000000  0.5819220000000  0.5079370000000 1.0
C      1  0.5192790000000  0.4772560000000  0.5897410000000 1.0
C      1  0.4711660000000  0.4857280000000  0.5981720000000 1.0
C      1  0.4543210000000  0.4230640000000  0.4908170000000 1.0
C      1  0.5095340000000  0.4012890000000  0.4849980000000 1.0
C      1  0.4467170000000  0.4407530000000  0.5437190000000 1.0
C      1  0.5170980000000  0.5465300000000  0.5090510000000 1.0
C      1  0.4805960000000  0.5622260000000  0.5333740000000 1.0
C      1  0.5885320000000  0.4856450000000  0.4884010000000 1.0
C      1  0.5331900000000  0.5412260000000  0.4844450000000 1.0
C      1  0.5581790000000  0.5130680000000  0.5719010000000 1.0
C      1  0.5358640000000  0.4818210000000  0.4137480000000 1.0
C      1  0.4872760000000  0.5560490000000  0.4121670000000 1.0
C      1  0.4863330000000  0.5091800000000  0.5939620000000 1.0
C      1  0.4264620000000  0.5246300000000  0.5540950000000 1.0
C      1  0.5570710000000  0.4869390000000  0.5607790000000 1.0
C      1  0.4908010000000  0.4652140000000  0.5925700000000 1.0
C      1  0.5664490000000  0.5672320000000  0.5143700000000 1.0
C      1  0.5457960000000  0.5161500000000  0.4921050000000 1.0
C      1  0.5978100000000  0.5134180000000  0.4882980000000 1.0
C      1  0.4116320000000  0.5105250000000  0.5331380000000 1.0
C      1  0.4906830000000  0.5826190000000  0.4198620000000 1.0
C      1  0.4508360000000  0.5386020000000  0.4941240000000 1.0
C      1  0.5798540000000  0.5415590000000  0.5190120000000 1.0
C      1  0.5412190000000  0.5848280000000  0.4668250000000 1.0
C      1  0.4837020000000  0.4646560000000  0.5624840000000 1.0
C      1  0.5115140000000  0.4428470000000  0.4454300000000 1.0
C      1  0.4340650000000  0.5137190000000  0.4869760000000 1.0
C      1  0.5334480000000  0.4194720000000  0.4840730000000 1.0
C      1  0.5522440000000  0.4612380000000  0.4262820000000 1.0
C      1  0.4966870000000  0.4589640000000  0.4920000000000 1.0
C      1  0.6034570000000  0.5259740000000  0.5140080000000 1.0
C      1  0.5604650000000  0.5587910000000  0.5646830000000 1.0
C      1  0.4936520000000  0.4198270000000  0.4420370000000 1.0
C      1  0.5731160000000  0.4750900000000  0.4408190000000 1.0
C      1  0.4919910000000  0.5598870000000  0.4689660000000 1.0
C      1  0.4130280000000  0.4541200000000  0.4845570000000 1.0
C      1  0.5504600000000  0.5694800000000  0.5385740000000 1.0
C      1  0.4260960000000  0.4325420000000  0.5003150000000 1.0
C      1  0.4423390000000  0.5510750000000  0.5542810000000 1.0
C      1  0.4705980000000  0.5358430000000  0.5193680000000 1.0
C      1  0.5562340000000  0.5464900000000  0.4348010000000 1.0
C      1  0.4739230000000  0.5214590000000  0.5719540000000 1.0
C      1  0.5085740000000  0.5362130000000  0.4093350000000 1.0
C      1  0.5190160000000  0.4462110000000  0.4768700000000 1.0
C      1  0.5243570000000  0.4876100000000  0.5228270000000 1.0
C      1  0.5348210000000  0.5030660000000  0.4349530000000 1.0
C      1  0.4145710000000  0.5641430000000  0.4723300000000 1.0
C      1  0.4548910000000  0.4711710000000  0.4992240000000 1.0
C      1  0.4693330000000  0.5398340000000  0.4690950000000 1.0
C      1  0.4832640000000  0.4151620000000  0.5819920000000 1.0
C      1  0.4666250000000  0.4281220000000  0.4432150000000 1.0
C      1  0.4927920000000  0.4673270000000  0.4375120000000 1.0
C      1  0.4555490000000  0.4681370000000  0.5269460000000 1.0
C      1  0.4620460000000  0.5441840000000  0.4211070000000 1.0
C      1  0.5630570000000  0.4489560000000  0.5018460000000 1.0
C      1  0.5141050000000  0.5396490000000  0.4604140000000 1.0
C      1  0.5289810000000  0.5336420000000  0.4321250000000 1.0
C      1  0.4123760000000  0.5028850000000  0.5053400000000 1.0
C      1  0.5605820000000  0.5709170000000  0.4488920000000 1.0
C      1  0.5845980000000  0.4670770000000  0.4657170000000 1.0
C      1  0.4657980000000  0.5472930000000  0.5703080000000 1.0
C      1  0.5783480000000  0.5603460000000  0.4695370000000 1.0
C      1  0.4075000000000  0.4639380000000  0.5299440000000 1.0
C      1  0.5899400000000  0.5337440000000  0.4667850000000 1.0
C      1  0.5726150000000  0.4429580000000  0.4750360000000 1.0
C      1  0.4692100000000  0.4099660000000  0.5128890000000 1.0
C      1  0.5368650000000  0.5558820000000  0.5798830000000 1.0
C      1  0.4217130000000  0.4386590000000  0.5277550000000 1.0
C      1  0.5020860000000  0.4656210000000  0.5224930000000 1.0
C      1  0.4623940000000  0.4100400000000  0.4657260000000 1.0
C      1  0.4774410000000  0.5099980000000  0.5420180000000 1.0
C      1  0.4889580000000  0.4757300000000  0.4089450000000 1.0
C      1  0.5957360000000  0.5326730000000  0.5414690000000 1.0
C      1  0.5551560000000  0.5203350000000  0.5197160000000 1.0
C      1  0.4396700000000  0.4736210000000  0.4447510000000 1.0
C      1  0.4782490000000  0.4811230000000  0.5373640000000 1.0
C      1  0.4468140000000  0.4793100000000  0.5829910000000 1.0
C      1  0.5026180000000  0.4457470000000  0.5486960000000 1.0
C      1  0.5137570000000  0.4860400000000  0.3982630000000 1.0
C      1  0.5240610000000  0.5821210000000  0.5418620000000 1.0
C      1  0.4284820000000  0.4969750000000  0.5688020000000 1.0
C      1  0.4259600000000  0.5474460000000  0.4537850000000 1.0
C      1  0.5155430000000  0.5722290000000  0.5666480000000 1.0
C      1  0.4749110000000  0.5009290000000  0.4040620000000 1.0
C      1  0.4917660000000  0.5905800000000  0.4463540000000 1.0
C      1  0.4861390000000  0.5077240000000  0.4874330000000 1.0
C      1  0.4693240000000  0.4520020000000  0.4827430000000 1.0
C      1  0.4970120000000  0.5850450000000  0.4918620000000 1.0
C      1  0.4585200000000  0.4971330000000  0.4908050000000 1.0
C      1  0.4047920000000  0.4749180000000  0.5042550000000 1.0
C      1  0.5752700000000  0.5265900000000  0.4432580000000 1.0
C      1  0.5163780000000  0.5319310000000  0.5523090000000 1.0
C      1  0.4529550000000  0.5551800000000  0.4462470000000 1.0
C      1  0.4552750000000  0.5158770000000  0.4175330000000 1.0
C      1  0.5063090000000  0.5108370000000  0.5342690000000 1.0
C      1  0.5149070000000  0.5051400000000  0.5931580000000 1.0
C      1  0.4901570000000  0.4013450000000  0.4640660000000 1.0
C      1  0.5007740000000  0.5120550000000  0.3971730000000 1.0
C      1  0.5108780000000  0.4065370000000  0.5345870000000 1.0
C      1  0.4969210000000  0.4010740000000  0.5106590000000 1.0
C      1  0.4320050000000  0.5634960000000  0.4928240000000 1.0
C      1  0.4201420000000  0.4617090000000  0.4596720000000 1.0
C      1  0.5413620000000  0.4648870000000  0.4835350000000 1.0
C      1  0.4660370000000  0.4572870000000  0.4498840000000 1.0
C      1  0.5548030000000  0.5661960000000  0.4880340000000 1.0
C      1  0.5744470000000  0.4743910000000  0.5116610000000 1.0
C      1  0.5397930000000  0.4664760000000  0.5718160000000 1.0
C      1  0.4519850000000  0.5708480000000  0.5346130000000 1.0
C      1  0.4923530000000  0.5544820000000  0.5590600000000 1.0
C      1  0.4116280000000  0.4854750000000  0.5482240000000 1.0
C      1  0.5136260000000  0.5930330000000  0.4678320000000 1.0
C      1  0.4957840000000  0.5253830000000  0.5095670000000 1.0
C      1  0.5304580000000  0.4428860000000  0.5574930000000 1.0
C      1  0.4645750000000  0.4189330000000  0.5384820000000 1.0
C      1  0.5307510000000  0.4907780000000  0.4930800000000 1.0
C      1  0.4922560000000  0.5189610000000  0.4609600000000 1.0
C      1  0.5353920000000  0.5398700000000  0.5317130000000 1.0
C      1  0.5409720000000  0.4392260000000  0.4391530000000 1.0
C      1  0.4542200000000  0.4530380000000  0.5711370000000 1.0
C      1  0.4898020000000  0.4169050000000  0.5534340000000 1.0
C      1  0.4683660000000  0.5793390000000  0.4596740000000 1.0
C      1  0.5061600000000  0.4924290000000  0.4503750000000 1.0
C      1  0.4269940000000  0.5190520000000  0.4575120000000 1.0
C      1  0.5050790000000  0.5736380000000  0.5184770000000 1.0
C      1  0.5563580000000  0.4906800000000  0.5309780000000 1.0
C      1  0.4678890000000  0.5879530000000  0.4885010000000 1.0
C      1  0.5537030000000  0.4269980000000  0.4620330000000 1.0
C      1  0.5358960000000  0.4217240000000  0.5365020000000 1.0
C      1  0.5642790000000  0.5014450000000  0.4389990000000 1.0
C      1  0.5472330000000  0.4261810000000  0.5104100000000 1.0
C      1  0.4731050000000  0.4386710000000  0.5903920000000 1.0
C      1  0.5052570000000  0.4863860000000  0.4799970000000 1.0
END
