TITL C-89223-2526-3 0.03410446514814 125000 -316.137931892028 0 0 48 (C1) n - 1
REM
REM in /rds/project/t2_vol4/rds-t2-cs072/BORA/CARBON/from-Arr/AIRSS/Generating-Clusters/GAP-ML-2020/Only-C1/SD-CG/HFTN-CG
REM
REM
REM
REM
REM
REM ./C.cell (11c1c37f851c82e70ff6c80c92926a4b)
REM AIRSS Version 0.9.1 bugfix July 2018 build 013d7b7c2542+ Fri, 06 Jul 2018 19:26:36 +0100
REM compiler GCC version 9.3.0
REM options -cpp -mtune=generic -march=x86-64 -g -O0
REM seed 1070361592 552334693 440353875 -1915511731 -1008573353 -495456412 430692901 1784521357 600038138 87704709 -1155021287 -1775482121 1168447206 -1280325984 -1531438039 983048416 1741873769 507437124 -857529202 -935788324 -1213571924 2098083364 401330404 1778096151 1237855960 -570113556 1586602636 386823842 1723645481 991668051 -1171951962 854333299 -993041804
REM
CELL 1.54180   50.00000   50.00000   50.00000   90.00000   90.00000   90.00000
LATT -1
SFAC C  
C      1  0.4496280000000  0.4784850000000  0.4741470000000 1.0
C      1  0.5363950000000  0.4903810000000  0.5475840000000 1.0
C      1  0.4742900000000  0.4432640000000  0.4548550000000 1.0
C      1  0.4936910000000  0.4752260000000  0.5253460000000 1.0
C      1  0.5479120000000  0.5374730000000  0.4713180000000 1.0
C      1  0.4834840000000  0.5038440000000  0.4924350000000 1.0
C      1  0.5382920000000  0.4599290000000  0.5093090000000 1.0
C      1  0.4861240000000  0.4531190000000  0.5452960000000 1.0
C      1  0.4531450000000  0.5360230000000  0.5105140000000 1.0
C      1  0.5201170000000  0.4388000000000  0.5185800000000 1.0
C      1  0.4420650000000  0.4657120000000  0.5347610000000 1.0
C      1  0.5392030000000  0.5121880000000  0.4600970000000 1.0
C      1  0.5287640000000  0.5063990000000  0.5052000000000 1.0
C      1  0.4964580000000  0.4543680000000  0.4500300000000 1.0
C      1  0.5286850000000  0.5336190000000  0.5383020000000 1.0
C      1  0.5599480000000  0.5364850000000  0.4962460000000 1.0
C      1  0.5494230000000  0.5229160000000  0.5190630000000 1.0
C      1  0.5210620000000  0.4841810000000  0.5227080000000 1.0
C      1  0.4350240000000  0.4941010000000  0.4934750000000 1.0
C      1  0.5242890000000  0.5135810000000  0.5587090000000 1.0
C      1  0.5162390000000  0.5660340000000  0.4427330000000 1.0
C      1  0.5069140000000  0.5194570000000  0.4919520000000 1.0
C      1  0.5617400000000  0.4967140000000  0.5333940000000 1.0
C      1  0.4673740000000  0.5031180000000  0.4687830000000 1.0
C      1  0.5086500000000  0.4377030000000  0.5431720000000 1.0
C      1  0.4640180000000  0.5196710000000  0.5317440000000 1.0
C      1  0.5623290000000  0.4728010000000  0.5205550000000 1.0
C      1  0.4833370000000  0.5312200000000  0.5499410000000 1.0
C      1  0.4654870000000  0.5600020000000  0.5079670000000 1.0
C      1  0.5143570000000  0.5006510000000  0.4513560000000 1.0
C      1  0.5448020000000  0.4942810000000  0.4814900000000 1.0
C      1  0.4607470000000  0.4459030000000  0.5320120000000 1.0
C      1  0.4471530000000  0.5189800000000  0.4870430000000 1.0
C      1  0.4841040000000  0.5339540000000  0.4316740000000 1.0
C      1  0.4960990000000  0.5569650000000  0.4283430000000 1.0
C      1  0.5034080000000  0.5462880000000  0.5336020000000 1.0
C      1  0.4737600000000  0.4951190000000  0.5180150000000 1.0
C      1  0.4589890000000  0.4518860000000  0.4780560000000 1.0
C      1  0.4448830000000  0.4874170000000  0.5188520000000 1.0
C      1  0.4954540000000  0.4509240000000  0.5053280000000 1.0
C      1  0.4865050000000  0.5117730000000  0.4464380000000 1.0
C      1  0.4931340000000  0.5581410000000  0.5087900000000 1.0
C      1  0.4983310000000  0.5155230000000  0.5670890000000 1.0
C      1  0.5074010000000  0.5473750000000  0.4862940000000 1.0
C      1  0.5168570000000  0.4719140000000  0.4580440000000 1.0
C      1  0.5257900000000  0.5559650000000  0.4660530000000 1.0
C      1  0.5355470000000  0.4681120000000  0.4796020000000 1.0
C      1  0.4685910000000  0.4420140000000  0.5037020000000 1.0
END
