TITL C-89221-2556-1 -0.0115546096520169 125000 -81.215274003982 0 0 13 (C1) n - 1
REM
REM in /rds/project/t2_vol4/rds-t2-cs072/BORA/CARBON/from-Arr/AIRSS/Generating-Clusters/GAP-ML-2020/Only-C1/SD-CG/HFTN-CG
REM
REM
REM
REM
REM
REM ./C.cell (11c1c37f851c82e70ff6c80c92926a4b)
REM AIRSS Version 0.9.1 bugfix July 2018 build 013d7b7c2542+ Fri, 06 Jul 2018 19:26:36 +0100
REM compiler GCC version 9.3.0
REM options -cpp -mtune=generic -march=x86-64 -g -O0
REM seed 1376766499 -772459994 1415213080 1791032065 -1334325672 2094235922 -444050531 -99625194 -317261012 991139747 -1687020706 489951298 -88690598 1847986949 -34816251 2054014610 -274982611 -538449997 -509891188 -1902709282 -1807030639 -1724753732 -728340563 1327241443 -1049743665 1638751314 -1683183599 -1815320743 -1914751622 1077710815 -949320076 -1392424684 148945146
REM
CELL 1.54180   50.00000   50.00000   50.00000   90.00000   90.00000   90.00000
LATT -1
SFAC C  
C      1  0.5215240000000  0.4859620000000  0.5244230000000 1.0
C      1  0.5206120000000  0.5065610000000  0.5396650000000 1.0
C      1  0.4802320000000  0.5339470000000  0.5502590000000 1.0
C      1  0.4978040000000  0.5206480000000  0.4852350000000 1.0
C      1  0.4833830000000  0.5140120000000  0.5071680000000 1.0
C      1  0.5212380000000  0.4626700000000  0.5129860000000 1.0
C      1  0.4966990000000  0.4557210000000  0.5068880000000 1.0
C      1  0.5218490000000  0.5077930000000  0.4420450000000 1.0
C      1  0.5112350000000  0.5210820000000  0.4228200000000 1.0
C      1  0.4955890000000  0.5192990000000  0.5344450000000 1.0
C      1  0.5070470000000  0.5180510000000  0.4620770000000 1.0
C      1  0.4716590000000  0.4643330000000  0.5068270000000 1.0
C      1  0.4711290000000  0.4899190000000  0.5051620000000 1.0
END
