TITL C-89231-2688-1 12.3882126853257 125000 -257.774623723074 0 0 39 (C1) n - 1
REM
REM in /rds/project/t2_vol4/rds-t2-cs072/BORA/CARBON/from-Arr/AIRSS/Generating-Clusters/GAP-ML-2020/Only-C1/SD-CG/HFTN-CG
REM
REM
REM
REM
REM
REM ./C.cell (11c1c37f851c82e70ff6c80c92926a4b)
REM AIRSS Version 0.9.1 bugfix July 2018 build 013d7b7c2542+ Fri, 06 Jul 2018 19:26:36 +0100
REM compiler GCC version 9.3.0
REM options -cpp -mtune=generic -march=x86-64 -g -O0
REM seed 1577911809 -373886910 768745940 1521376771 -769238725 -1834529104 18546748 1932919172 -579577349 365262818 -1910449666 -1589323170 -1184467644 1778267427 -1000253451 -631685034 331643405 827798356 1665754326 1941828989 -1252960683 -431011248 481177225 -1638592391 -1124808750 -1990127379 1536441425 736007956 777737682 1516624476 2065038701 -1557571171 -1132341945
REM
CELL 1.54180   50.00000   50.00000   50.00000   90.00000   90.00000   90.00000
LATT -1
SFAC C  
C      1  0.5227410000000  0.4901210000000  0.4633640000000 1.0
C      1  0.4581510000000  0.5338860000000  0.5029650000000 1.0
C      1  0.4725990000000  0.5279470000000  0.5264290000000 1.0
C      1  0.4553830000000  0.4813140000000  0.5142830000000 1.0
C      1  0.5162160000000  0.5227040000000  0.5489690000000 1.0
C      1  0.4667860000000  0.5002080000000  0.5343880000000 1.0
C      1  0.4779620000000  0.5139430000000  0.4357040000000 1.0
C      1  0.5277750000000  0.4631410000000  0.4739040000000 1.0
C      1  0.5386020000000  0.5361910000000  0.4730060000000 1.0
C      1  0.4407360000000  0.5330510000000  0.4651400000000 1.0
C      1  0.5346050000000  0.4806640000000  0.5408930000000 1.0
C      1  0.5435280000000  0.4654950000000  0.4978290000000 1.0
C      1  0.5442000000000  0.5261450000000  0.5387990000000 1.0
C      1  0.4661070000000  0.4921070000000  0.4403220000000 1.0
C      1  0.4659780000000  0.5415020000000  0.4753150000000 1.0
C      1  0.5052300000000  0.4468280000000  0.4748630000000 1.0
C      1  0.5059180000000  0.4457810000000  0.5228760000000 1.0
C      1  0.4866540000000  0.4842110000000  0.5481060000000 1.0
C      1  0.5310080000000  0.4581500000000  0.5228830000000 1.0
C      1  0.5019250000000  0.4884170000000  0.5015480000000 1.0
C      1  0.5203870000000  0.5093720000000  0.5043490000000 1.0
C      1  0.5128100000000  0.5432630000000  0.4639890000000 1.0
C      1  0.5447470000000  0.5494730000000  0.5256310000000 1.0
C      1  0.4857140000000  0.4579060000000  0.5385530000000 1.0
C      1  0.5511250000000  0.5002150000000  0.5280720000000 1.0
C      1  0.4862760000000  0.4431270000000  0.4992130000000 1.0
C      1  0.4394790000000  0.5159850000000  0.4877980000000 1.0
C      1  0.4698960000000  0.4807310000000  0.4676270000000 1.0
C      1  0.4991120000000  0.5389340000000  0.5331560000000 1.0
C      1  0.5188400000000  0.5542160000000  0.5153270000000 1.0
C      1  0.4891610000000  0.5260570000000  0.4624600000000 1.0
C      1  0.5121090000000  0.4949250000000  0.5517860000000 1.0
C      1  0.4668920000000  0.4561150000000  0.5174930000000 1.0
C      1  0.4947280000000  0.4981180000000  0.4743390000000 1.0
C      1  0.4502170000000  0.4899240000000  0.4881710000000 1.0
C      1  0.5214780000000  0.5556350000000  0.4870510000000 1.0
C      1  0.5402050000000  0.5086110000000  0.4802110000000 1.0
C      1  0.4796210000000  0.4534730000000  0.4728500000000 1.0
C      1  0.5550970000000  0.4921120000000  0.5003400000000 1.0
END
