TITL C-89223-2526-6 0.0292906366710977 125000 -282.666817375235 0 0 41 (C1) n - 1
REM
REM in /rds/project/t2_vol4/rds-t2-cs072/BORA/CARBON/from-Arr/AIRSS/Generating-Clusters/GAP-ML-2020/Only-C1/SD-CG/HFTN-CG
REM
REM
REM
REM
REM
REM ./C.cell (11c1c37f851c82e70ff6c80c92926a4b)
REM AIRSS Version 0.9.1 bugfix July 2018 build 013d7b7c2542+ Fri, 06 Jul 2018 19:26:36 +0100
REM compiler GCC version 9.3.0
REM options -cpp -mtune=generic -march=x86-64 -g -O0
REM seed -479561870 54757231 2030794810 -181377901 -1118782350 30827151 -2120318247 -971850614 -2035851681 -18942233 -350939850 -580012551 -517653481 801993983 409386158 -361432590 2128145284 -840285030 -714270317 -1967826563 245969961 717703027 -1389427453 -510962331 -555052923 101320123 -1782724230 599117257 -82195078 962794732 -1315301257 -1124041046 -1382170564
REM
CELL 1.54180   50.00000   50.00000   50.00000   90.00000   90.00000   90.00000
LATT -1
SFAC C  
C      1  0.5113660000000  0.4978240000000  0.5587070000000 1.0
C      1  0.5300850000000  0.5316340000000  0.5330760000000 1.0
C      1  0.5354970000000  0.4631410000000  0.5191690000000 1.0
C      1  0.4699910000000  0.5169080000000  0.4564090000000 1.0
C      1  0.5160790000000  0.4540030000000  0.5377830000000 1.0
C      1  0.5093660000000  0.5015670000000  0.4972990000000 1.0
C      1  0.5048980000000  0.4477950000000  0.4802950000000 1.0
C      1  0.4564380000000  0.4908000000000  0.4574110000000 1.0
C      1  0.4900270000000  0.5175690000000  0.5529370000000 1.0
C      1  0.5514010000000  0.5545520000000  0.4928550000000 1.0
C      1  0.4997790000000  0.4630860000000  0.4549980000000 1.0
C      1  0.5482380000000  0.4885740000000  0.5252900000000 1.0
C      1  0.5428320000000  0.5185790000000  0.4614800000000 1.0
C      1  0.5052330000000  0.5451400000000  0.4697210000000 1.0
C      1  0.5344210000000  0.5431540000000  0.4742660000000 1.0
C      1  0.4774080000000  0.4636990000000  0.5534410000000 1.0
C      1  0.4430150000000  0.5246500000000  0.4976460000000 1.0
C      1  0.4617890000000  0.4805750000000  0.5370780000000 1.0
C      1  0.4740040000000  0.4694180000000  0.5111530000000 1.0
C      1  0.5343360000000  0.5056790000000  0.5439540000000 1.0
C      1  0.4570290000000  0.5291630000000  0.5222350000000 1.0
C      1  0.5015450000000  0.5381260000000  0.5361970000000 1.0
C      1  0.5223720000000  0.4790430000000  0.4508650000000 1.0
C      1  0.4886450000000  0.4480860000000  0.5308930000000 1.0
C      1  0.4612150000000  0.5343350000000  0.4773720000000 1.0
C      1  0.4760920000000  0.4530080000000  0.4868470000000 1.0
C      1  0.4805910000000  0.5458480000000  0.5169610000000 1.0
C      1  0.5045450000000  0.4708640000000  0.5593150000000 1.0
C      1  0.4218910000000  0.5078680000000  0.4886940000000 1.0
C      1  0.5209240000000  0.5073340000000  0.4468830000000 1.0
C      1  0.5555980000000  0.4983690000000  0.4778710000000 1.0
C      1  0.4975310000000  0.5234120000000  0.4513560000000 1.0
C      1  0.4641350000000  0.5092680000000  0.5418830000000 1.0
C      1  0.5420360000000  0.4737070000000  0.4715670000000 1.0
C      1  0.4831270000000  0.5489660000000  0.4883300000000 1.0
C      1  0.4726610000000  0.4682370000000  0.4610630000000 1.0
C      1  0.5306860000000  0.4562570000000  0.4912280000000 1.0
C      1  0.5582570000000  0.5061610000000  0.5050810000000 1.0
C      1  0.5484620000000  0.5337670000000  0.5105160000000 1.0
C      1  0.4312060000000  0.4928130000000  0.4700230000000 1.0
C      1  0.4852520000000  0.4970210000000  0.4998570000000 1.0
END
