TITL C-89229-2830-3 -519.641570437387 125000 -905.354393151217 0 0 129 (C1) n - 1
REM
REM in /rds/project/t2_vol4/rds-t2-cs072/BORA/CARBON/from-Arr/AIRSS/Generating-Clusters/GAP-ML-2020/Only-C1/SD-CG/HFTN-CG
REM
REM
REM
REM
REM
REM ./C.cell (11c1c37f851c82e70ff6c80c92926a4b)
REM AIRSS Version 0.9.1 bugfix July 2018 build 013d7b7c2542+ Fri, 06 Jul 2018 19:26:36 +0100
REM compiler GCC version 9.3.0
REM options -cpp -mtune=generic -march=x86-64 -g -O0
REM seed -1005253396 -769728324 -1468098007 -1773122486 198882805 -1783552153 -1392978955 -2124357402 209290603 1338064931 -600494465 1714120810 -1309429361 -941233874 739941347 -864503099 252845270 1597929016 -2017248450 731499935 -1424731897 1227940823 1445149079 -1266783268 1497881074 516275266 42748341 734125780 -308484621 1706157436 1615311077 607529554 272683499
REM
CELL 1.54180   50.00000   50.00000   50.00000   90.00000   90.00000   90.00000
LATT -1
SFAC C  
C      1  0.4466910000000  0.4518330000000  0.4400170000000 1.0
C      1  0.4592940000000  0.4834370000000  0.5863640000000 1.0
C      1  0.5101840000000  0.5091470000000  0.5565590000000 1.0
C      1  0.4688280000000  0.4179440000000  0.5326870000000 1.0
C      1  0.5984310000000  0.5222650000000  0.4503420000000 1.0
C      1  0.4683400000000  0.4331260000000  0.4421790000000 1.0
C      1  0.5502810000000  0.5355400000000  0.4375410000000 1.0
C      1  0.4306380000000  0.5461480000000  0.5380000000000 1.0
C      1  0.4565210000000  0.4575060000000  0.5752830000000 1.0
C      1  0.5099400000000  0.4786300000000  0.5920000000000 1.0
C      1  0.4925510000000  0.5426890000000  0.4939920000000 1.0
C      1  0.4900860000000  0.4917840000000  0.3980180000000 1.0
C      1  0.5308440000000  0.4449530000000  0.5635550000000 1.0
C      1  0.4777400000000  0.5636800000000  0.4380200000000 1.0
C      1  0.5662430000000  0.5058500000000  0.4839570000000 1.0
C      1  0.5626950000000  0.4119180000000  0.4763380000000 1.0
C      1  0.3962550000000  0.5137070000000  0.4546340000000 1.0
C      1  0.5030690000000  0.5493270000000  0.4380720000000 1.0
C      1  0.5842680000000  0.4952150000000  0.5448920000000 1.0
C      1  0.5514260000000  0.5650070000000  0.5218150000000 1.0
C      1  0.5716440000000  0.4708710000000  0.5525190000000 1.0
C      1  0.4192340000000  0.4746120000000  0.5471040000000 1.0
C      1  0.4585290000000  0.4954060000000  0.4605820000000 1.0
C      1  0.4380550000000  0.4292440000000  0.4781650000000 1.0
C      1  0.4124130000000  0.5341140000000  0.4643670000000 1.0
C      1  0.4578770000000  0.4775810000000  0.4368200000000 1.0
C      1  0.4976190000000  0.5583510000000  0.5688860000000 1.0
C      1  0.5358250000000  0.5726370000000  0.4701090000000 1.0
C      1  0.5708920000000  0.4466840000000  0.5367480000000 1.0
C      1  0.5702530000000  0.5446370000000  0.5318680000000 1.0
C      1  0.5788210000000  0.5409960000000  0.4405100000000 1.0
C      1  0.4826300000000  0.6076800000000  0.4937050000000 1.0
C      1  0.5454720000000  0.5116730000000  0.5266390000000 1.0
C      1  0.5012380000000  0.4449660000000  0.4893000000000 1.0
C      1  0.5252190000000  0.5645360000000  0.5637610000000 1.0
C      1  0.4434310000000  0.4849780000000  0.5086030000000 1.0
C      1  0.4382590000000  0.4541110000000  0.5527530000000 1.0
C      1  0.5309080000000  0.4882400000000  0.4216250000000 1.0
C      1  0.4578670000000  0.5099040000000  0.5166420000000 1.0
C      1  0.4429640000000  0.5797680000000  0.4984360000000 1.0
C      1  0.5660010000000  0.4475600000000  0.5065640000000 1.0
C      1  0.5662290000000  0.4363800000000  0.4625950000000 1.0
C      1  0.4693540000000  0.5378210000000  0.4798970000000 1.0
C      1  0.4542950000000  0.5440640000000  0.4353190000000 1.0
C      1  0.4648830000000  0.4197450000000  0.4679480000000 1.0
C      1  0.5466040000000  0.4703180000000  0.5657680000000 1.0
C      1  0.4131530000000  0.4703750000000  0.4726230000000 1.0
C      1  0.5354520000000  0.4580260000000  0.4269160000000 1.0
C      1  0.4430220000000  0.5764370000000  0.4684650000000 1.0
C      1  0.4466850000000  0.5319260000000  0.4985880000000 1.0
C      1  0.5103540000000  0.6033290000000  0.5022080000000 1.0
C      1  0.4825020000000  0.4870980000000  0.4793410000000 1.0
C      1  0.5832230000000  0.4524760000000  0.4811660000000 1.0
C      1  0.3942500000000  0.4881360000000  0.4588560000000 1.0
C      1  0.4561670000000  0.5442970000000  0.5509860000000 1.0
C      1  0.5041890000000  0.5316760000000  0.5798570000000 1.0
C      1  0.5426780000000  0.4493770000000  0.4527910000000 1.0
C      1  0.4632460000000  0.5143590000000  0.5475080000000 1.0
C      1  0.4761870000000  0.4604110000000  0.4879060000000 1.0
C      1  0.6014500000000  0.4740780000000  0.4766150000000 1.0
C      1  0.5992970000000  0.4962240000000  0.5209740000000 1.0
C      1  0.5092050000000  0.5910470000000  0.5275680000000 1.0
C      1  0.5320220000000  0.4934690000000  0.5746190000000 1.0
C      1  0.4085710000000  0.5090340000000  0.5140940000000 1.0
C      1  0.4215640000000  0.5008720000000  0.5578910000000 1.0
C      1  0.4648320000000  0.5943800000000  0.5109080000000 1.0
C      1  0.5456460000000  0.4958940000000  0.5012560000000 1.0
C      1  0.5313720000000  0.5764240000000  0.5384040000000 1.0
C      1  0.4870960000000  0.4945560000000  0.5491300000000 1.0
C      1  0.4888650000000  0.4776430000000  0.5256330000000 1.0
C      1  0.5299780000000  0.5547530000000  0.4468710000000 1.0
C      1  0.5382880000000  0.4656360000000  0.5023780000000 1.0
C      1  0.5504470000000  0.5070860000000  0.4342340000000 1.0
C      1  0.4813610000000  0.5853470000000  0.5334740000000 1.0
C      1  0.5495730000000  0.5188370000000  0.5732860000000 1.0
C      1  0.5110980000000  0.4579940000000  0.5176840000000 1.0
C      1  0.5431050000000  0.4098900000000  0.5252980000000 1.0
C      1  0.4560930000000  0.5293700000000  0.4098370000000 1.0
C      1  0.4462240000000  0.5032370000000  0.5697990000000 1.0
C      1  0.5103990000000  0.4882050000000  0.4680670000000 1.0
C      1  0.5881350000000  0.5412420000000  0.5106490000000 1.0
C      1  0.5921230000000  0.5478700000000  0.4631220000000 1.0
C      1  0.4846110000000  0.5009920000000  0.5066700000000 1.0
C      1  0.5552970000000  0.5677260000000  0.4925070000000 1.0
C      1  0.5062640000000  0.4941600000000  0.4392470000000 1.0
C      1  0.5111450000000  0.4359890000000  0.5408860000000 1.0
C      1  0.5202220000000  0.5214070000000  0.5322560000000 1.0
C      1  0.4352720000000  0.5562790000000  0.5119860000000 1.0
C      1  0.5340370000000  0.5411190000000  0.5775000000000 1.0
C      1  0.4477080000000  0.4390570000000  0.5274320000000 1.0
C      1  0.4868130000000  0.4173350000000  0.4866070000000 1.0
C      1  0.5151620000000  0.4428690000000  0.4179390000000 1.0
C      1  0.5169460000000  0.5928920000000  0.4756890000000 1.0
C      1  0.5243280000000  0.5087350000000  0.4857380000000 1.0
C      1  0.4279800000000  0.4366760000000  0.5039630000000 1.0
C      1  0.5169860000000  0.4902450000000  0.3949340000000 1.0
C      1  0.4754740000000  0.5650710000000  0.5531970000000 1.0
C      1  0.4351030000000  0.4920490000000  0.4797210000000 1.0
C      1  0.5242090000000  0.4599600000000  0.4744520000000 1.0
C      1  0.5596960000000  0.4175130000000  0.5026650000000 1.0
C      1  0.4808860000000  0.4424520000000  0.5762340000000 1.0
C      1  0.4098960000000  0.4583060000000  0.5005470000000 1.0
C      1  0.5968950000000  0.4943340000000  0.4541080000000 1.0
C      1  0.4633630000000  0.4635610000000  0.5145020000000 1.0
C      1  0.5811810000000  0.5566270000000  0.4877680000000 1.0
C      1  0.4851850000000  0.4273820000000  0.5534980000000 1.0
C      1  0.5525600000000  0.4280760000000  0.5473670000000 1.0
C      1  0.4915340000000  0.5178650000000  0.6001450000000 1.0
C      1  0.4888010000000  0.5988730000000  0.4673120000000 1.0
C      1  0.4272770000000  0.4477610000000  0.4596260000000 1.0
C      1  0.4316080000000  0.5541330000000  0.4538770000000 1.0
C      1  0.5661510000000  0.5185960000000  0.5485500000000 1.0
C      1  0.4845830000000  0.4916260000000  0.5983030000000 1.0
C      1  0.4156400000000  0.5216560000000  0.5382380000000 1.0
C      1  0.4886970000000  0.4073300000000  0.5131520000000 1.0
C      1  0.5916870000000  0.5152050000000  0.5015480000000 1.0
C      1  0.4224480000000  0.5185580000000  0.4881440000000 1.0
C      1  0.4685830000000  0.5843660000000  0.4543380000000 1.0
C      1  0.4793790000000  0.5170350000000  0.4075060000000 1.0
C      1  0.4900440000000  0.4463260000000  0.4266320000000 1.0
C      1  0.6108450000000  0.4809870000000  0.5016880000000 1.0
C      1  0.4932650000000  0.5209710000000  0.4354540000000 1.0
C      1  0.5075400000000  0.4526910000000  0.5830840000000 1.0
C      1  0.5682230000000  0.4972620000000  0.4554620000000 1.0
C      1  0.4138870000000  0.4799890000000  0.5191910000000 1.0
C      1  0.4684500000000  0.5226410000000  0.4533580000000 1.0
C      1  0.5152600000000  0.4101670000000  0.5255080000000 1.0
C      1  0.5061170000000  0.5218030000000  0.5061140000000 1.0
C      1  0.4840710000000  0.4757570000000  0.4248600000000 1.0
END
