TITL C-89215-2661-8 202.593370716969 125000 -409.237214076268 0 0 61 (C1) n - 1
REM
REM in /rds/project/t2_vol4/rds-t2-cs072/BORA/CARBON/from-Arr/AIRSS/Generating-Clusters/GAP-ML-2020/Only-C1/SD-CG/HFTN-CG
REM
REM
REM
REM
REM
REM ./C.cell (11c1c37f851c82e70ff6c80c92926a4b)
REM AIRSS Version 0.9.1 bugfix July 2018 build 013d7b7c2542+ Fri, 06 Jul 2018 19:26:36 +0100
REM compiler GCC version 9.3.0
REM options -cpp -mtune=generic -march=x86-64 -g -O0
REM seed -375146400 -198997603 1966637083 1628220853 1612310166 484012658 -313529757 -367672020 -278921362 -655133418 1487963350 -1256276768 -1972685293 1170410540 327926061 1180044761 1532095817 2012916976 1892166394 -1736667514 -350577657 1169267555 1768572998 -1668231270 1165834713 -515033660 -1573528027 -1461317534 1404770166 -55025041 -373139606 -2128489434 1469200088
REM
CELL 1.54180   50.00000   50.00000   50.00000   90.00000   90.00000   90.00000
LATT -1
SFAC C  
C      1  0.5531930000000  0.5385490000000  0.5222040000000 1.0
C      1  0.4909560000000  0.5576910000000  0.5388410000000 1.0
C      1  0.5169510000000  0.4365240000000  0.4869690000000 1.0
C      1  0.5684520000000  0.4871270000000  0.5167510000000 1.0
C      1  0.5252240000000  0.4726760000000  0.5517730000000 1.0
C      1  0.4605600000000  0.4639670000000  0.4993990000000 1.0
C      1  0.4975580000000  0.4905990000000  0.4884110000000 1.0
C      1  0.4279230000000  0.5136070000000  0.5318940000000 1.0
C      1  0.5563670000000  0.4739070000000  0.4684120000000 1.0
C      1  0.5105020000000  0.5599160000000  0.4859990000000 1.0
C      1  0.4731900000000  0.4395720000000  0.5030510000000 1.0
C      1  0.4636450000000  0.4884140000000  0.5175320000000 1.0
C      1  0.5220890000000  0.4794240000000  0.5000370000000 1.0
C      1  0.4636260000000  0.5680750000000  0.4952750000000 1.0
C      1  0.5078780000000  0.5351470000000  0.4301320000000 1.0
C      1  0.5164870000000  0.5114230000000  0.4163360000000 1.0
C      1  0.4896580000000  0.4361770000000  0.5264380000000 1.0
C      1  0.4642130000000  0.4647820000000  0.5597510000000 1.0
C      1  0.5042830000000  0.5010990000000  0.4628880000000 1.0
C      1  0.5706300000000  0.4904040000000  0.4883730000000 1.0
C      1  0.5506170000000  0.5089580000000  0.5302450000000 1.0
C      1  0.5596790000000  0.4628150000000  0.5233770000000 1.0
C      1  0.5152310000000  0.5483660000000  0.5542540000000 1.0
C      1  0.4775910000000  0.4383150000000  0.4563770000000 1.0
C      1  0.4856230000000  0.4465990000000  0.5534990000000 1.0
C      1  0.4808900000000  0.5164080000000  0.5559890000000 1.0
C      1  0.4360960000000  0.4974680000000  0.5094210000000 1.0
C      1  0.4356510000000  0.4965800000000  0.5543470000000 1.0
C      1  0.5157950000000  0.4368330000000  0.5156150000000 1.0
C      1  0.5410740000000  0.5124120000000  0.4324400000000 1.0
C      1  0.5345750000000  0.5506780000000  0.4732860000000 1.0
C      1  0.4671030000000  0.4920320000000  0.5477150000000 1.0
C      1  0.4837170000000  0.5077670000000  0.5056050000000 1.0
C      1  0.5312220000000  0.4606420000000  0.5248220000000 1.0
C      1  0.5098590000000  0.5199800000000  0.5539600000000 1.0
C      1  0.4407380000000  0.5010380000000  0.4809520000000 1.0
C      1  0.4474280000000  0.5467110000000  0.5016040000000 1.0
C      1  0.4479790000000  0.5283900000000  0.4774630000000 1.0
C      1  0.5443940000000  0.4859230000000  0.4441760000000 1.0
C      1  0.4451460000000  0.5368110000000  0.5285810000000 1.0
C      1  0.4367500000000  0.4708520000000  0.5629920000000 1.0
C      1  0.5086290000000  0.5530560000000  0.5146810000000 1.0
C      1  0.4692020000000  0.5401600000000  0.5443450000000 1.0
C      1  0.4991610000000  0.4907130000000  0.4113690000000 1.0
C      1  0.5066050000000  0.5214690000000  0.5163380000000 1.0
C      1  0.4546430000000  0.4762970000000  0.4735880000000 1.0
C      1  0.4893760000000  0.5229630000000  0.4489630000000 1.0
C      1  0.5332110000000  0.5542490000000  0.5327780000000 1.0
C      1  0.5088430000000  0.4562790000000  0.5663480000000 1.0
C      1  0.5297740000000  0.4619040000000  0.4764110000000 1.0
C      1  0.4895640000000  0.4323600000000  0.4794900000000 1.0
C      1  0.5554850000000  0.5142770000000  0.4863180000000 1.0
C      1  0.5552320000000  0.5414300000000  0.4927740000000 1.0
C      1  0.5310740000000  0.5004330000000  0.5525310000000 1.0
C      1  0.5328080000000  0.5382750000000  0.4460550000000 1.0
C      1  0.5174470000000  0.4768830000000  0.4512170000000 1.0
C      1  0.5317130000000  0.5068680000000  0.5064250000000 1.0
C      1  0.4701570000000  0.5383220000000  0.4623650000000 1.0
C      1  0.4828730000000  0.5603790000000  0.4765870000000 1.0
C      1  0.4935200000000  0.4749910000000  0.4336500000000 1.0
C      1  0.4701430000000  0.4640320000000  0.4505790000000 1.0
END
