TITL C-89223-2526-8 17.4162998986464 125000 -418.101278136803 0 0 62 (C1) n - 1
REM
REM in /rds/project/t2_vol4/rds-t2-cs072/BORA/CARBON/from-Arr/AIRSS/Generating-Clusters/GAP-ML-2020/Only-C1/SD-CG/HFTN-CG
REM
REM
REM
REM
REM
REM ./C.cell (11c1c37f851c82e70ff6c80c92926a4b)
REM AIRSS Version 0.9.1 bugfix July 2018 build 013d7b7c2542+ Fri, 06 Jul 2018 19:26:36 +0100
REM compiler GCC version 9.3.0
REM options -cpp -mtune=generic -march=x86-64 -g -O0
REM seed 366558943 -455440943 847440644 1439631399 1545506817 96539991 -1964177758 1281146696 1308746966 -1484172717 -429070414 -475330128 1884402884 -1739775365 -1085498712 1633710226 -290870452 -1914989262 405124726 -135106805 360517515 438456519 -575778130 1177220503 -671139422 647181345 877655908 -16721945 1264003178 -1150870007 577301182 -1594712826 2139943153
REM
CELL 1.54180   50.00000   50.00000   50.00000   90.00000   90.00000   90.00000
LATT -1
SFAC C  
C      1  0.5029260000000  0.4482170000000  0.5158050000000 1.0
C      1  0.5000690000000  0.4526060000000  0.4570430000000 1.0
C      1  0.5660870000000  0.4729160000000  0.4745910000000 1.0
C      1  0.4975120000000  0.5706820000000  0.5348070000000 1.0
C      1  0.4629160000000  0.4962510000000  0.4870510000000 1.0
C      1  0.4436500000000  0.4490350000000  0.5039610000000 1.0
C      1  0.5243030000000  0.5683830000000  0.4843900000000 1.0
C      1  0.5374130000000  0.4324670000000  0.4873970000000 1.0
C      1  0.5420930000000  0.5120440000000  0.4454520000000 1.0
C      1  0.5323020000000  0.4828630000000  0.5050690000000 1.0
C      1  0.5529620000000  0.4774640000000  0.5455060000000 1.0
C      1  0.4780890000000  0.4422560000000  0.4725730000000 1.0
C      1  0.4434020000000  0.4759090000000  0.5491270000000 1.0
C      1  0.4369390000000  0.5024950000000  0.5509780000000 1.0
C      1  0.4723170000000  0.4662510000000  0.5544230000000 1.0
C      1  0.5069150000000  0.5296670000000  0.5508960000000 1.0
C      1  0.5312740000000  0.4408700000000  0.5137480000000 1.0
C      1  0.5245060000000  0.4404650000000  0.4639460000000 1.0
C      1  0.5725810000000  0.4651750000000  0.5003290000000 1.0
C      1  0.5423760000000  0.5018990000000  0.5508170000000 1.0
C      1  0.5454770000000  0.5549670000000  0.4724010000000 1.0
C      1  0.5121640000000  0.5183620000000  0.4846010000000 1.0
C      1  0.4940620000000  0.4944470000000  0.4829420000000 1.0
C      1  0.4969370000000  0.4813770000000  0.4502800000000 1.0
C      1  0.4717480000000  0.5192110000000  0.4454950000000 1.0
C      1  0.4709930000000  0.5676900000000  0.5377830000000 1.0
C      1  0.5512920000000  0.4494390000000  0.4698160000000 1.0
C      1  0.5159010000000  0.5598040000000  0.5123770000000 1.0
C      1  0.4388690000000  0.5238560000000  0.5337900000000 1.0
C      1  0.4976120000000  0.5253370000000  0.4358880000000 1.0
C      1  0.4981700000000  0.5380090000000  0.5030920000000 1.0
C      1  0.5524880000000  0.5265400000000  0.5334550000000 1.0
C      1  0.5385860000000  0.5405280000000  0.4496690000000 1.0
C      1  0.4613080000000  0.4851590000000  0.5129140000000 1.0
C      1  0.4282940000000  0.5173680000000  0.5066270000000 1.0
C      1  0.4918940000000  0.4870440000000  0.5546530000000 1.0
C      1  0.5778340000000  0.5182900000000  0.4846630000000 1.0
C      1  0.4849500000000  0.4318810000000  0.4979160000000 1.0
C      1  0.5599960000000  0.5013530000000  0.4676250000000 1.0
C      1  0.5389640000000  0.5070680000000  0.4925650000000 1.0
C      1  0.4517210000000  0.4797490000000  0.4656040000000 1.0
C      1  0.4526350000000  0.4539140000000  0.4763250000000 1.0
C      1  0.5036710000000  0.4796260000000  0.5072330000000 1.0
C      1  0.4340670000000  0.4716340000000  0.5201380000000 1.0
C      1  0.4617830000000  0.5358750000000  0.4668380000000 1.0
C      1  0.5340880000000  0.5479450000000  0.5340690000000 1.0
C      1  0.5111230000000  0.5487990000000  0.4440560000000 1.0
C      1  0.4803120000000  0.4458500000000  0.5369260000000 1.0
C      1  0.4621660000000  0.5410330000000  0.5358190000000 1.0
C      1  0.4851030000000  0.4951290000000  0.5276290000000 1.0
C      1  0.5020420000000  0.5641940000000  0.4656040000000 1.0
C      1  0.5610380000000  0.5207260000000  0.5065680000000 1.0
C      1  0.4689680000000  0.4904010000000  0.4450550000000 1.0
C      1  0.5149410000000  0.5027870000000  0.4381730000000 1.0
C      1  0.5511150000000  0.4639040000000  0.5201500000000 1.0
C      1  0.4633790000000  0.4342430000000  0.5171430000000 1.0
C      1  0.4183640000000  0.4917080000000  0.5079710000000 1.0
C      1  0.4469370000000  0.5202050000000  0.4849360000000 1.0
C      1  0.5147510000000  0.5041320000000  0.5604690000000 1.0
C      1  0.5152020000000  0.5556980000000  0.5540940000000 1.0
C      1  0.4869230000000  0.5251630000000  0.5284470000000 1.0
C      1  0.4814990000000  0.5516360000000  0.4802960000000 1.0
END
