TITL C-89231-2688-5 -17.3322486436728 125000 -1126.92930879719 0 0 160 (C1) n - 1
REM
REM in /rds/project/t2_vol4/rds-t2-cs072/BORA/CARBON/from-Arr/AIRSS/Generating-Clusters/GAP-ML-2020/Only-C1/SD-CG/HFTN-CG
REM
REM
REM
REM
REM
REM ./C.cell (11c1c37f851c82e70ff6c80c92926a4b)
REM AIRSS Version 0.9.1 bugfix July 2018 build 013d7b7c2542+ Fri, 06 Jul 2018 19:26:36 +0100
REM compiler GCC version 9.3.0
REM options -cpp -mtune=generic -march=x86-64 -g -O0
REM seed 1601093208 -1555203530 1134290007 -2145746262 1187427693 -550298553 -1991788071 -298433110 569207948 1522855480 -865199488 667314606 1951775576 -857981358 -1399201859 -3184456 399543420 1424575202 244750429 -608535227 -1557792768 -1425515350 1392605734 -1109705568 -815529692 -2062743279 1356092119 1865655787 -355201662 1199467268 1094264732 1622991724 -979423498
REM
CELL 1.54180   50.00000   50.00000   50.00000   90.00000   90.00000   90.00000
LATT -1
SFAC C  
C      1  0.5048610000000  0.5445380000000  0.4637610000000 1.0
C      1  0.4644400000000  0.4151640000000  0.4404550000000 1.0
C      1  0.4587970000000  0.5918490000000  0.4905850000000 1.0
C      1  0.5526410000000  0.4951500000000  0.5006420000000 1.0
C      1  0.4846250000000  0.6106950000000  0.5329630000000 1.0
C      1  0.5351010000000  0.5122660000000  0.5424980000000 1.0
C      1  0.4665730000000  0.4392150000000  0.5676510000000 1.0
C      1  0.4211410000000  0.5358430000000  0.5623300000000 1.0
C      1  0.4889660000000  0.4493350000000  0.4676130000000 1.0
C      1  0.5142520000000  0.5369810000000  0.4089580000000 1.0
C      1  0.5630490000000  0.4523560000000  0.5329940000000 1.0
C      1  0.4173470000000  0.5082210000000  0.5661620000000 1.0
C      1  0.4870120000000  0.5197910000000  0.5012320000000 1.0
C      1  0.4582320000000  0.5124850000000  0.5021470000000 1.0
C      1  0.5022230000000  0.5033200000000  0.4827410000000 1.0
C      1  0.6110580000000  0.5161430000000  0.4942420000000 1.0
C      1  0.5800870000000  0.4511750000000  0.5053440000000 1.0
C      1  0.4653770000000  0.4017660000000  0.5124610000000 1.0
C      1  0.5219190000000  0.4578490000000  0.5006170000000 1.0
C      1  0.5886310000000  0.4884230000000  0.4593170000000 1.0
C      1  0.5427960000000  0.5682290000000  0.5463140000000 1.0
C      1  0.4540640000000  0.5239120000000  0.5937320000000 1.0
C      1  0.5959640000000  0.5391230000000  0.4879170000000 1.0
C      1  0.4173090000000  0.5667750000000  0.4958440000000 1.0
C      1  0.5104270000000  0.4070100000000  0.4965980000000 1.0
C      1  0.4279160000000  0.5532490000000  0.4497390000000 1.0
C      1  0.4748270000000  0.3809840000000  0.4690340000000 1.0
C      1  0.4087700000000  0.5152990000000  0.4921850000000 1.0
C      1  0.4494700000000  0.4628900000000  0.5632120000000 1.0
C      1  0.5056490000000  0.4838820000000  0.5052720000000 1.0
C      1  0.4838140000000  0.3922560000000  0.4925740000000 1.0
C      1  0.5489280000000  0.5397990000000  0.5360080000000 1.0
C      1  0.5226580000000  0.4024330000000  0.5238990000000 1.0
C      1  0.4775100000000  0.5069140000000  0.3982690000000 1.0
C      1  0.5047760000000  0.4070030000000  0.5456410000000 1.0
C      1  0.5414730000000  0.5645270000000  0.4414810000000 1.0
C      1  0.4654180000000  0.5574870000000  0.5631930000000 1.0
C      1  0.4502340000000  0.4880940000000  0.4853560000000 1.0
C      1  0.5119410000000  0.5515070000000  0.5147730000000 1.0
C      1  0.4545700000000  0.5117300000000  0.5322650000000 1.0
C      1  0.4876860000000  0.4978330000000  0.4570020000000 1.0
C      1  0.4115030000000  0.4693830000000  0.5306030000000 1.0
C      1  0.5732850000000  0.5292490000000  0.5542310000000 1.0
C      1  0.5719290000000  0.5106970000000  0.4515240000000 1.0
C      1  0.5055660000000  0.4652960000000  0.5477940000000 1.0
C      1  0.5076740000000  0.5295210000000  0.5854620000000 1.0
C      1  0.4941420000000  0.4581560000000  0.5988800000000 1.0
C      1  0.4456690000000  0.5767720000000  0.4462990000000 1.0
C      1  0.4653100000000  0.5722560000000  0.4264840000000 1.0
C      1  0.4682640000000  0.5393730000000  0.5395600000000 1.0
C      1  0.4946430000000  0.4446460000000  0.5729880000000 1.0
C      1  0.4935250000000  0.4910660000000  0.5579630000000 1.0
C      1  0.4499740000000  0.5051470000000  0.3960130000000 1.0
C      1  0.4606780000000  0.4585660000000  0.4876230000000 1.0
C      1  0.4846120000000  0.6030820000000  0.4515130000000 1.0
C      1  0.5122340000000  0.4792660000000  0.6066500000000 1.0
C      1  0.4884960000000  0.4952130000000  0.6120910000000 1.0
C      1  0.5727020000000  0.5350310000000  0.4696360000000 1.0
C      1  0.5397180000000  0.5608570000000  0.5748510000000 1.0
C      1  0.4188990000000  0.4870820000000  0.4837630000000 1.0
C      1  0.5683420000000  0.4595960000000  0.4267780000000 1.0
C      1  0.5411850000000  0.5441530000000  0.5072590000000 1.0
C      1  0.5748810000000  0.4972230000000  0.5220320000000 1.0
C      1  0.6030770000000  0.4877970000000  0.5259990000000 1.0
C      1  0.5558220000000  0.5887840000000  0.5280280000000 1.0
C      1  0.5096150000000  0.6047470000000  0.4934280000000 1.0
C      1  0.5583530000000  0.5605010000000  0.4639970000000 1.0
C      1  0.4920440000000  0.4269700000000  0.4420560000000 1.0
C      1  0.4909210000000  0.5827840000000  0.4324440000000 1.0
C      1  0.4266940000000  0.4448990000000  0.4610510000000 1.0
C      1  0.5552170000000  0.5365680000000  0.5802670000000 1.0
C      1  0.4673380000000  0.4873430000000  0.5441560000000 1.0
C      1  0.5007420000000  0.4382630000000  0.4941950000000 1.0
C      1  0.5405790000000  0.5059300000000  0.4472320000000 1.0
C      1  0.4194570000000  0.4716120000000  0.4569340000000 1.0
C      1  0.5918080000000  0.5546270000000  0.5127210000000 1.0
C      1  0.4955910000000  0.5315240000000  0.5306950000000 1.0
C      1  0.4272380000000  0.4515950000000  0.5462710000000 1.0
C      1  0.4611230000000  0.5480400000000  0.4143660000000 1.0
C      1  0.4364570000000  0.5017510000000  0.5877680000000 1.0
C      1  0.5359830000000  0.5176240000000  0.4176570000000 1.0
C      1  0.5310090000000  0.4928450000000  0.5207850000000 1.0
C      1  0.4859050000000  0.5308750000000  0.4137630000000 1.0
C      1  0.5649810000000  0.4722020000000  0.5565740000000 1.0
C      1  0.4857510000000  0.4708720000000  0.5251170000000 1.0
C      1  0.4768820000000  0.4593180000000  0.4090090000000 1.0
C      1  0.4621030000000  0.3883200000000  0.4479250000000 1.0
C      1  0.5965500000000  0.5364410000000  0.5354400000000 1.0
C      1  0.5137990000000  0.4240060000000  0.5673000000000 1.0
C      1  0.5312700000000  0.4776560000000  0.4558370000000 1.0
C      1  0.5479450000000  0.4638300000000  0.5770020000000 1.0
C      1  0.5559230000000  0.4270980000000  0.5471520000000 1.0
C      1  0.4588610000000  0.5970510000000  0.4621430000000 1.0
C      1  0.4202720000000  0.5425100000000  0.4784880000000 1.0
C      1  0.4401920000000  0.4182260000000  0.5102600000000 1.0
C      1  0.5361220000000  0.4860810000000  0.5937480000000 1.0
C      1  0.5225100000000  0.4491130000000  0.4070340000000 1.0
C      1  0.4447290000000  0.4362420000000  0.4392060000000 1.0
C      1  0.5480440000000  0.4050150000000  0.5332840000000 1.0
C      1  0.5172690000000  0.4120390000000  0.4479540000000 1.0
C      1  0.4775490000000  0.4493390000000  0.5099030000000 1.0
C      1  0.5370420000000  0.5476390000000  0.4190400000000 1.0
C      1  0.5405120000000  0.4356390000000  0.5696510000000 1.0
C      1  0.5484530000000  0.5226600000000  0.4888170000000 1.0
C      1  0.5743650000000  0.5768220000000  0.5102500000000 1.0
C      1  0.4707370000000  0.4732040000000  0.6058710000000 1.0
C      1  0.5290330000000  0.4067470000000  0.4738900000000 1.0
C      1  0.4501160000000  0.5363950000000  0.4834530000000 1.0
C      1  0.5531590000000  0.4218550000000  0.4671210000000 1.0
C      1  0.5426980000000  0.4934870000000  0.4020710000000 1.0
C      1  0.5077930000000  0.5158140000000  0.5538170000000 1.0
C      1  0.5252110000000  0.5206500000000  0.4701560000000 1.0
C      1  0.4577430000000  0.4963580000000  0.4576800000000 1.0
C      1  0.5504640000000  0.5696240000000  0.4925870000000 1.0
C      1  0.5663880000000  0.4475380000000  0.4774140000000 1.0
C      1  0.6112010000000  0.5144030000000  0.5233170000000 1.0
C      1  0.5467450000000  0.4409590000000  0.4200520000000 1.0
C      1  0.4865480000000  0.5269750000000  0.4466250000000 1.0
C      1  0.4337810000000  0.4420870000000  0.4908960000000 1.0
C      1  0.4911370000000  0.4819340000000  0.3981060000000 1.0
C      1  0.5141070000000  0.5728570000000  0.4505470000000 1.0
C      1  0.4896740000000  0.5730040000000  0.5683820000000 1.0
C      1  0.4346650000000  0.5073960000000  0.4181770000000 1.0
C      1  0.4269180000000  0.5609460000000  0.5220600000000 1.0
C      1  0.5318090000000  0.4628960000000  0.5291560000000 1.0
C      1  0.5793350000000  0.4621620000000  0.4529620000000 1.0
C      1  0.4575580000000  0.4179850000000  0.5529800000000 1.0
C      1  0.5116180000000  0.5584870000000  0.5813260000000 1.0
C      1  0.5027350000000  0.4734780000000  0.4561030000000 1.0
C      1  0.4826800000000  0.6073530000000  0.5057660000000 1.0
C      1  0.4973780000000  0.5907290000000  0.5468150000000 1.0
C      1  0.4076860000000  0.4963530000000  0.5403710000000 1.0
C      1  0.4657010000000  0.5603580000000  0.4951500000000 1.0
C      1  0.5654850000000  0.4820180000000  0.4119520000000 1.0
C      1  0.5644620000000  0.5004420000000  0.5489550000000 1.0
C      1  0.4400540000000  0.5341260000000  0.4309040000000 1.0
C      1  0.5183060000000  0.5766740000000  0.5300480000000 1.0
C      1  0.4827220000000  0.5197090000000  0.6003470000000 1.0
C      1  0.5197080000000  0.4757770000000  0.3973390000000 1.0
C      1  0.4927890000000  0.5491060000000  0.4911750000000 1.0
C      1  0.5427190000000  0.4223950000000  0.4399800000000 1.0
C      1  0.4553310000000  0.5591740000000  0.5232120000000 1.0
C      1  0.5085330000000  0.5987860000000  0.4662950000000 1.0
C      1  0.5325090000000  0.5913030000000  0.5076740000000 1.0
C      1  0.4304170000000  0.5896510000000  0.4955780000000 1.0
C      1  0.5434760000000  0.4688980000000  0.4822600000000 1.0
C      1  0.4478540000000  0.4761970000000  0.5902030000000 1.0
C      1  0.4384810000000  0.4831250000000  0.4362240000000 1.0
C      1  0.4132940000000  0.5415710000000  0.5359700000000 1.0
C      1  0.6053140000000  0.4904750000000  0.4823140000000 1.0
C      1  0.4518730000000  0.4588030000000  0.4236460000000 1.0
C      1  0.5369110000000  0.5167180000000  0.5914040000000 1.0
C      1  0.6016980000000  0.4704970000000  0.5036490000000 1.0
C      1  0.4572960000000  0.5263520000000  0.4555290000000 1.0
C      1  0.4769910000000  0.4039050000000  0.5384590000000 1.0
C      1  0.4967630000000  0.4402800000000  0.4159350000000 1.0
C      1  0.4160620000000  0.4648000000000  0.5030140000000 1.0
C      1  0.4051120000000  0.5174070000000  0.5209440000000 1.0
C      1  0.4442510000000  0.5452710000000  0.5773520000000 1.0
C      1  0.4351090000000  0.4261730000000  0.5368230000000 1.0
END
