TITL C-89222-3250-3 0.00646862016663512 125000 -866.782422828974 0 0 124 (C1) n - 1
REM
REM in /rds/project/t2_vol4/rds-t2-cs072/BORA/CARBON/from-Arr/AIRSS/Generating-Clusters/GAP-ML-2020/Only-C1/SD-CG/HFTN-CG
REM
REM
REM
REM
REM
REM ./C.cell (11c1c37f851c82e70ff6c80c92926a4b)
REM AIRSS Version 0.9.1 bugfix July 2018 build 013d7b7c2542+ Fri, 06 Jul 2018 19:26:36 +0100
REM compiler GCC version 9.3.0
REM options -cpp -mtune=generic -march=x86-64 -g -O0
REM seed 1056077675 385450881 624415238 -1435621493 -1968114849 -152089300 1573744096 1332038237 1154339745 -701357193 1126758170 -570883907 -427516698 -967329052 377357674 175718390 1679002829 -704998263 -1301238091 1453782356 1957338472 -505281379 1736932757 1024633055 -1392476749 -1448205796 1063799622 753687533 352117946 1879819426 1978360593 -744129077 -1603914011
REM
CELL 1.54180   50.00000   50.00000   50.00000   90.00000   90.00000   90.00000
LATT -1
SFAC C  
C      1  0.5562910000000  0.4666180000000  0.4282070000000 1.0
C      1  0.5124930000000  0.4643730000000  0.4765490000000 1.0
C      1  0.4909640000000  0.5899050000000  0.4701720000000 1.0
C      1  0.5913100000000  0.4975320000000  0.4850450000000 1.0
C      1  0.5190190000000  0.4364580000000  0.5623140000000 1.0
C      1  0.5840300000000  0.5351320000000  0.5232750000000 1.0
C      1  0.4191360000000  0.5465230000000  0.5185600000000 1.0
C      1  0.5678080000000  0.4446980000000  0.4905690000000 1.0
C      1  0.5693170000000  0.5152950000000  0.5720710000000 1.0
C      1  0.4981960000000  0.4672990000000  0.4506860000000 1.0
C      1  0.4962530000000  0.4944170000000  0.4380980000000 1.0
C      1  0.5464310000000  0.5244460000000  0.5872260000000 1.0
C      1  0.5212330000000  0.4360920000000  0.4864320000000 1.0
C      1  0.5375190000000  0.4775750000000  0.4088810000000 1.0
C      1  0.5459880000000  0.4863030000000  0.5020200000000 1.0
C      1  0.4759710000000  0.4189060000000  0.5061190000000 1.0
C      1  0.4358910000000  0.5096210000000  0.5793890000000 1.0
C      1  0.4884390000000  0.4178450000000  0.5316280000000 1.0
C      1  0.5262330000000  0.4650950000000  0.5701030000000 1.0
C      1  0.4957620000000  0.5116080000000  0.3948190000000 1.0
C      1  0.5032110000000  0.5045590000000  0.6019880000000 1.0
C      1  0.5325830000000  0.4857010000000  0.5475870000000 1.0
C      1  0.4894600000000  0.4862100000000  0.5458720000000 1.0
C      1  0.5114590000000  0.5480820000000  0.4785970000000 1.0
C      1  0.5425230000000  0.4459550000000  0.4426080000000 1.0
C      1  0.5698960000000  0.4462840000000  0.5410360000000 1.0
C      1  0.5116730000000  0.4483270000000  0.4307920000000 1.0
C      1  0.4404490000000  0.5646650000000  0.5191010000000 1.0
C      1  0.4409060000000  0.4726030000000  0.5541330000000 1.0
C      1  0.4149110000000  0.4622160000000  0.5031140000000 1.0
C      1  0.4626220000000  0.4929800000000  0.5422710000000 1.0
C      1  0.4569780000000  0.5511890000000  0.5634920000000 1.0
C      1  0.5563510000000  0.5481040000000  0.4589340000000 1.0
C      1  0.4949060000000  0.5347920000000  0.4084490000000 1.0
C      1  0.4820060000000  0.5412690000000  0.5744460000000 1.0
C      1  0.5079710000000  0.5358320000000  0.5623780000000 1.0
C      1  0.4596690000000  0.4397850000000  0.4319190000000 1.0
C      1  0.4758740000000  0.5597080000000  0.4389750000000 1.0
C      1  0.4205290000000  0.4548500000000  0.4754310000000 1.0
C      1  0.5740180000000  0.5352220000000  0.5507090000000 1.0
C      1  0.4603420000000  0.4905970000000  0.4193210000000 1.0
C      1  0.5451750000000  0.4785540000000  0.5876670000000 1.0
C      1  0.5532110000000  0.5549710000000  0.5538640000000 1.0
C      1  0.5312000000000  0.4384140000000  0.5152830000000 1.0
C      1  0.4698810000000  0.4669160000000  0.4587010000000 1.0
C      1  0.4534170000000  0.4225310000000  0.4544650000000 1.0
C      1  0.5418520000000  0.5167890000000  0.5051710000000 1.0
C      1  0.5660340000000  0.5131350000000  0.4235270000000 1.0
C      1  0.5762880000000  0.4745560000000  0.4983130000000 1.0
C      1  0.5216050000000  0.5098860000000  0.4365200000000 1.0
C      1  0.4237780000000  0.5004850000000  0.4636820000000 1.0
C      1  0.4091790000000  0.5024470000000  0.5378350000000 1.0
C      1  0.5695170000000  0.4865030000000  0.5729560000000 1.0
C      1  0.4887310000000  0.4306100000000  0.4334380000000 1.0
C      1  0.4826640000000  0.4842160000000  0.5959070000000 1.0
C      1  0.4529700000000  0.5187140000000  0.4263970000000 1.0
C      1  0.5299150000000  0.4713430000000  0.5223690000000 1.0
C      1  0.4394890000000  0.5427480000000  0.4757050000000 1.0
C      1  0.4942910000000  0.4791410000000  0.4946950000000 1.0
C      1  0.5005850000000  0.4736870000000  0.5217220000000 1.0
C      1  0.5145960000000  0.5376560000000  0.4315420000000 1.0
C      1  0.5115720000000  0.4672170000000  0.4085880000000 1.0
C      1  0.5876670000000  0.5046890000000  0.4577500000000 1.0
C      1  0.4811820000000  0.5233860000000  0.5962120000000 1.0
C      1  0.4984170000000  0.5076460000000  0.4806970000000 1.0
C      1  0.5353310000000  0.4823680000000  0.4752440000000 1.0
C      1  0.4374060000000  0.4308780000000  0.4756610000000 1.0
C      1  0.5156710000000  0.4256630000000  0.5361720000000 1.0
C      1  0.4373290000000  0.4451900000000  0.5464630000000 1.0
C      1  0.4521260000000  0.4909310000000  0.5018830000000 1.0
C      1  0.4065290000000  0.4896920000000  0.5109160000000 1.0
C      1  0.4924520000000  0.4382030000000  0.5723040000000 1.0
C      1  0.4690440000000  0.5405920000000  0.4181120000000 1.0
C      1  0.4462970000000  0.5203090000000  0.4564290000000 1.0
C      1  0.5508930000000  0.5699040000000  0.5297430000000 1.0
C      1  0.5747660000000  0.5291550000000  0.4459400000000 1.0
C      1  0.4942140000000  0.4199170000000  0.4836200000000 1.0
C      1  0.5613540000000  0.5658100000000  0.4843630000000 1.0
C      1  0.5203120000000  0.5797500000000  0.4422550000000 1.0
C      1  0.4885060000000  0.4880320000000  0.4089340000000 1.0
C      1  0.4477970000000  0.4228830000000  0.5599580000000 1.0
C      1  0.5402180000000  0.5051090000000  0.4141200000000 1.0
C      1  0.4806480000000  0.5827720000000  0.5368720000000 1.0
C      1  0.4302910000000  0.4424600000000  0.5186590000000 1.0
C      1  0.5266870000000  0.5073970000000  0.4656730000000 1.0
C      1  0.4157870000000  0.5299610000000  0.5413650000000 1.0
C      1  0.5288720000000  0.5833010000000  0.5155850000000 1.0
C      1  0.5190670000000  0.5809590000000  0.4707150000000 1.0
C      1  0.5755370000000  0.4885030000000  0.4355550000000 1.0
C      1  0.5397470000000  0.5842030000000  0.4890010000000 1.0
C      1  0.5313680000000  0.5026050000000  0.5983730000000 1.0
C      1  0.5189230000000  0.5224880000000  0.5203310000000 1.0
C      1  0.4792200000000  0.5810290000000  0.4934180000000 1.0
C      1  0.4812140000000  0.5145630000000  0.4574830000000 1.0
C      1  0.4746730000000  0.4215120000000  0.5568590000000 1.0
C      1  0.4989280000000  0.5303580000000  0.5008140000000 1.0
C      1  0.4940770000000  0.4682600000000  0.5733410000000 1.0
C      1  0.4986110000000  0.5847340000000  0.5170320000000 1.0
C      1  0.4211570000000  0.4905270000000  0.5616970000000 1.0
C      1  0.5356110000000  0.5572480000000  0.4371300000000 1.0
C      1  0.5335900000000  0.5454060000000  0.5728710000000 1.0
C      1  0.4475390000000  0.4266450000000  0.5019430000000 1.0
C      1  0.5122670000000  0.5090120000000  0.5456050000000 1.0
C      1  0.4096510000000  0.5082280000000  0.4878600000000 1.0
C      1  0.4727310000000  0.5338720000000  0.5108910000000 1.0
C      1  0.5608660000000  0.4358930000000  0.5170320000000 1.0
C      1  0.4342230000000  0.5339370000000  0.5646450000000 1.0
C      1  0.4678190000000  0.4754090000000  0.4864970000000 1.0
C      1  0.4577180000000  0.5586280000000  0.4953940000000 1.0
C      1  0.5942330000000  0.5098890000000  0.5120120000000 1.0
C      1  0.4251610000000  0.4736370000000  0.4546730000000 1.0
C      1  0.4903060000000  0.5827990000000  0.4419030000000 1.0
C      1  0.5878210000000  0.4836280000000  0.5249870000000 1.0
C      1  0.4173250000000  0.5350350000000  0.4922640000000 1.0
C      1  0.4500350000000  0.4688710000000  0.4366890000000 1.0
C      1  0.4940460000000  0.5413690000000  0.4540800000000 1.0
C      1  0.5701280000000  0.5582840000000  0.5107230000000 1.0
C      1  0.4819440000000  0.4172860000000  0.4583890000000 1.0
C      1  0.4571550000000  0.5703340000000  0.5422880000000 1.0
C      1  0.5375290000000  0.5321310000000  0.4775910000000 1.0
C      1  0.4601300000000  0.5035000000000  0.5937400000000 1.0
C      1  0.5795010000000  0.4708950000000  0.5496610000000 1.0
C      1  0.5476670000000  0.4372650000000  0.4703890000000 1.0
C      1  0.4601110000000  0.5098660000000  0.5195290000000 1.0
END
