TITL C-89220-3229-6 90.4353581454665 125000 -475.440014755077 0 0 70 (C1) n - 1
REM
REM in /rds/project/t2_vol4/rds-t2-cs072/BORA/CARBON/from-Arr/AIRSS/Generating-Clusters/GAP-ML-2020/Only-C1/SD-CG/HFTN-CG
REM
REM
REM
REM
REM
REM ./C.cell (11c1c37f851c82e70ff6c80c92926a4b)
REM AIRSS Version 0.9.1 bugfix July 2018 build 013d7b7c2542+ Fri, 06 Jul 2018 19:26:36 +0100
REM compiler GCC version 9.3.0
REM options -cpp -mtune=generic -march=x86-64 -g -O0
REM seed -1735056872 -375271047 1568366421 -272142064 171274941 -1169699648 -2061662418 469372155 -1904691512 -108610000 1129891754 764486768 1797209218 1560159537 -1218123683 -38689702 -1449387459 1091084900 -1558292873 -735313277 -1420748594 -1327844085 -538106773 -1818568080 409081642 2109040563 -4255114 1255524094 812019401 -571249679 1687251183 -571202813 -1041478983
REM
CELL 1.54180   50.00000   50.00000   50.00000   90.00000   90.00000   90.00000
LATT -1
SFAC C  
C      1  0.4874750000000  0.5600370000000  0.4561000000000 1.0
C      1  0.5562190000000  0.5721290000000  0.4801220000000 1.0
C      1  0.5032140000000  0.4649370000000  0.5021430000000 1.0
C      1  0.4671750000000  0.5670450000000  0.5098530000000 1.0
C      1  0.4802810000000  0.4493950000000  0.4604160000000 1.0
C      1  0.4625980000000  0.5510090000000  0.5326660000000 1.0
C      1  0.5045960000000  0.5667940000000  0.4789470000000 1.0
C      1  0.5654250000000  0.5106680000000  0.4671530000000 1.0
C      1  0.4647560000000  0.5420550000000  0.4931470000000 1.0
C      1  0.5098370000000  0.4789540000000  0.5269690000000 1.0
C      1  0.5112610000000  0.5077850000000  0.5696300000000 1.0
C      1  0.4450280000000  0.4559780000000  0.5262110000000 1.0
C      1  0.4367200000000  0.4822710000000  0.5363340000000 1.0
C      1  0.5151370000000  0.4298910000000  0.5172530000000 1.0
C      1  0.5325080000000  0.5604330000000  0.4708320000000 1.0
C      1  0.5324700000000  0.5447400000000  0.5199690000000 1.0
C      1  0.4709460000000  0.4401600000000  0.4860150000000 1.0
C      1  0.4749420000000  0.4788250000000  0.5699360000000 1.0
C      1  0.5194890000000  0.5168780000000  0.4744570000000 1.0
C      1  0.5624520000000  0.5098170000000  0.5199570000000 1.0
C      1  0.5536340000000  0.4558710000000  0.5224770000000 1.0
C      1  0.5267420000000  0.4653550000000  0.5590050000000 1.0
C      1  0.5273190000000  0.5363080000000  0.4528930000000 1.0
C      1  0.5220240000000  0.4263780000000  0.4680500000000 1.0
C      1  0.5520860000000  0.5493320000000  0.4968680000000 1.0
C      1  0.5381420000000  0.5110390000000  0.5600740000000 1.0
C      1  0.5484000000000  0.4845590000000  0.5572090000000 1.0
C      1  0.4877280000000  0.5220960000000  0.5592690000000 1.0
C      1  0.4862180000000  0.4891290000000  0.4921870000000 1.0
C      1  0.4495890000000  0.4850110000000  0.4615950000000 1.0
C      1  0.4579570000000  0.5251500000000  0.4465720000000 1.0
C      1  0.4884360000000  0.4397830000000  0.5101460000000 1.0
C      1  0.5475280000000  0.5173450000000  0.4440410000000 1.0
C      1  0.5649560000000  0.5226620000000  0.4935570000000 1.0
C      1  0.4499260000000  0.4556990000000  0.4981830000000 1.0
C      1  0.5412470000000  0.4896360000000  0.4387890000000 1.0
C      1  0.5083560000000  0.5612260000000  0.5299410000000 1.0
C      1  0.4697210000000  0.4715150000000  0.4473160000000 1.0
C      1  0.4945680000000  0.5737370000000  0.5069910000000 1.0
C      1  0.5541320000000  0.4449490000000  0.4964020000000 1.0
C      1  0.4360600000000  0.5079750000000  0.4528750000000 1.0
C      1  0.5471650000000  0.5262690000000  0.5373910000000 1.0
C      1  0.4875630000000  0.5488610000000  0.5462920000000 1.0
C      1  0.5610640000000  0.4826110000000  0.5318140000000 1.0
C      1  0.5000880000000  0.5040490000000  0.5134250000000 1.0
C      1  0.4624120000000  0.5478210000000  0.4635410000000 1.0
C      1  0.5149830000000  0.5250730000000  0.5014420000000 1.0
C      1  0.5172060000000  0.4744030000000  0.4350200000000 1.0
C      1  0.5303790000000  0.4463370000000  0.5368680000000 1.0
C      1  0.5047430000000  0.4933670000000  0.4690930000000 1.0
C      1  0.4790180000000  0.5084010000000  0.5326050000000 1.0
C      1  0.5039560000000  0.4802250000000  0.5727160000000 1.0
C      1  0.5097040000000  0.4487700000000  0.4561720000000 1.0
C      1  0.4837090000000  0.5179880000000  0.4355250000000 1.0
C      1  0.4945720000000  0.5407900000000  0.4893830000000 1.0
C      1  0.5190970000000  0.4679290000000  0.4772800000000 1.0
C      1  0.5488710000000  0.4647010000000  0.4768080000000 1.0
C      1  0.5606060000000  0.4831750000000  0.4597810000000 1.0
C      1  0.4466980000000  0.4892790000000  0.5624980000000 1.0
C      1  0.4923810000000  0.4898140000000  0.4403600000000 1.0
C      1  0.4567470000000  0.5244900000000  0.5189610000000 1.0
C      1  0.4154170000000  0.5148120000000  0.4713700000000 1.0
C      1  0.4644010000000  0.5075670000000  0.5721500000000 1.0
C      1  0.4375510000000  0.5015260000000  0.5123780000000 1.0
C      1  0.4538450000000  0.4833340000000  0.4907870000000 1.0
C      1  0.4133420000000  0.5102590000000  0.4963870000000 1.0
C      1  0.4827900000000  0.4759380000000  0.5414820000000 1.0
C      1  0.4716120000000  0.4508360000000  0.5318970000000 1.0
C      1  0.5316770000000  0.4259530000000  0.4939150000000 1.0
C      1  0.5011050000000  0.5408650000000  0.4401100000000 1.0
END
