TITL C-89224-3874-12 -66.4457045833873 125000 -275.773387902487 0 0 42 (C1) n - 1
REM
REM in /rds/project/t2_vol4/rds-t2-cs072/BORA/CARBON/from-Arr/AIRSS/Generating-Clusters/GAP-ML-2020/Only-C1/SD-CG/HFTN-CG
REM
REM
REM
REM
REM
REM ./C.cell (11c1c37f851c82e70ff6c80c92926a4b)
REM AIRSS Version 0.9.1 bugfix July 2018 build 013d7b7c2542+ Fri, 06 Jul 2018 19:26:36 +0100
REM compiler GCC version 9.3.0
REM options -cpp -mtune=generic -march=x86-64 -g -O0
REM seed -1013619098 152745251 1889397701 -1357481039 664705482 499314039 1094771073 451792154 -1010801288 1116735532 1820783390 -241631939 1996432870 -1464274147 -1637624333 -1111179234 -780755553 -1790827405 616047886 1590517645 -1197140870 -924608795 39953845 14351794 497275418 -1647589265 -347252690 -1363636249 -649853437 462455836 -2075519592 1218308606 -421692537
REM
CELL 1.54180   50.00000   50.00000   50.00000   90.00000   90.00000   90.00000
LATT -1
SFAC C  
C      1  0.5458680000000  0.4682970000000  0.4749250000000 1.0
C      1  0.4979950000000  0.5276210000000  0.5129350000000 1.0
C      1  0.5049610000000  0.5543770000000  0.4664020000000 1.0
C      1  0.4708010000000  0.4939590000000  0.5140600000000 1.0
C      1  0.5285300000000  0.5625130000000  0.4841720000000 1.0
C      1  0.5117820000000  0.4856430000000  0.4993290000000 1.0
C      1  0.5171400000000  0.4350350000000  0.4961950000000 1.0
C      1  0.4697750000000  0.5241670000000  0.5106610000000 1.0
C      1  0.4983810000000  0.4848910000000  0.5241040000000 1.0
C      1  0.5270310000000  0.4497500000000  0.5178770000000 1.0
C      1  0.4625140000000  0.5285790000000  0.4822520000000 1.0
C      1  0.5375730000000  0.5143130000000  0.5391180000000 1.0
C      1  0.4500330000000  0.4814520000000  0.4997250000000 1.0
C      1  0.4966900000000  0.5091850000000  0.4462540000000 1.0
C      1  0.4785250000000  0.4579660000000  0.4680880000000 1.0
C      1  0.4795930000000  0.5073700000000  0.4696520000000 1.0
C      1  0.5120720000000  0.4627550000000  0.5388770000000 1.0
C      1  0.4271130000000  0.5098700000000  0.5258000000000 1.0
C      1  0.4249880000000  0.4894390000000  0.5097460000000 1.0
C      1  0.5399360000000  0.5864220000000  0.4823000000000 1.0
C      1  0.5138230000000  0.5318350000000  0.4523150000000 1.0
C      1  0.5134770000000  0.4861640000000  0.4471970000000 1.0
C      1  0.4942920000000  0.4189410000000  0.4944430000000 1.0
C      1  0.5264770000000  0.4477870000000  0.4702930000000 1.0
C      1  0.4662020000000  0.4819080000000  0.4759540000000 1.0
C      1  0.4784960000000  0.5610330000000  0.4684910000000 1.0
C      1  0.4516520000000  0.5234990000000  0.5344820000000 1.0
C      1  0.4650930000000  0.5207440000000  0.5585150000000 1.0
C      1  0.5471950000000  0.5284990000000  0.5179720000000 1.0
C      1  0.5458000000000  0.4944880000000  0.5572090000000 1.0
C      1  0.5369310000000  0.4723760000000  0.5016000000000 1.0
C      1  0.4537110000000  0.5531200000000  0.4707690000000 1.0
C      1  0.5384330000000  0.4921910000000  0.4603200000000 1.0
C      1  0.5034790000000  0.4909180000000  0.5758880000000 1.0
C      1  0.5426340000000  0.5370980000000  0.4926260000000 1.0
C      1  0.4765770000000  0.4337250000000  0.4830690000000 1.0
C      1  0.4909730000000  0.5115310000000  0.5622020000000 1.0
C      1  0.5068080000000  0.5115640000000  0.4895840000000 1.0
C      1  0.5320350000000  0.5187420000000  0.4717260000000 1.0
C      1  0.5049090000000  0.4605190000000  0.4553190000000 1.0
C      1  0.5067720000000  0.5125760000000  0.5360000000000 1.0
C      1  0.5229280000000  0.4771400000000  0.5615540000000 1.0
END
