TITL C-89235-2895-3 19.6819602150689 125000 -318.644684591326 0 0 48 (C1) n - 1
REM
REM in /rds/project/t2_vol4/rds-t2-cs072/BORA/CARBON/from-Arr/AIRSS/Generating-Clusters/GAP-ML-2020/Only-C1/SD-CG/HFTN-CG
REM
REM
REM
REM
REM
REM ./C.cell (11c1c37f851c82e70ff6c80c92926a4b)
REM AIRSS Version 0.9.1 bugfix July 2018 build 013d7b7c2542+ Fri, 06 Jul 2018 19:26:36 +0100
REM compiler GCC version 9.3.0
REM options -cpp -mtune=generic -march=x86-64 -g -O0
REM seed -545455140 1182216335 -895038008 -440607968 1646647216 -860781970 -1027756100 -663086521 -735990578 1786629214 -1875619981 -1175678096 173137573 -410341044 659911992 972632591 941592873 1421472130 -1696816420 -2064682097 2009935700 -1253493787 -962638349 1263137044 -928306315 -211369085 1704318161 -1043608677 886880146 -230160849 1339994314 -1452956083 -526062978
REM
CELL 1.54180   50.00000   50.00000   50.00000   90.00000   90.00000   90.00000
LATT -1
SFAC C  
C      1  0.5451260000000  0.5386310000000  0.5298060000000 1.0
C      1  0.5124250000000  0.4325750000000  0.5302410000000 1.0
C      1  0.4925130000000  0.5165030000000  0.5728830000000 1.0
C      1  0.4458220000000  0.5080180000000  0.4762680000000 1.0
C      1  0.5553760000000  0.5005110000000  0.5359540000000 1.0
C      1  0.5019270000000  0.5585280000000  0.5125120000000 1.0
C      1  0.4842010000000  0.5082910000000  0.5129500000000 1.0
C      1  0.5166250000000  0.5055860000000  0.5629880000000 1.0
C      1  0.4585390000000  0.5339000000000  0.5382070000000 1.0
C      1  0.4747310000000  0.4749180000000  0.4588760000000 1.0
C      1  0.5240890000000  0.4774440000000  0.4591450000000 1.0
C      1  0.4782020000000  0.5419540000000  0.4719900000000 1.0
C      1  0.4809600000000  0.4911110000000  0.5360940000000 1.0
C      1  0.4817770000000  0.5371970000000  0.5195230000000 1.0
C      1  0.4769200000000  0.5150890000000  0.4337480000000 1.0
C      1  0.5225220000000  0.4440040000000  0.5055600000000 1.0
C      1  0.5440120000000  0.4829870000000  0.4794540000000 1.0
C      1  0.4754540000000  0.4386630000000  0.4994990000000 1.0
C      1  0.4753350000000  0.4444140000000  0.5441750000000 1.0
C      1  0.4805260000000  0.5544040000000  0.4959570000000 1.0
C      1  0.5000350000000  0.4478420000000  0.4885740000000 1.0
C      1  0.5403550000000  0.4661420000000  0.5032900000000 1.0
C      1  0.5142810000000  0.4839960000000  0.4333660000000 1.0
C      1  0.4712590000000  0.5136610000000  0.5564510000000 1.0
C      1  0.5300340000000  0.5570060000000  0.5140450000000 1.0
C      1  0.5477850000000  0.5119290000000  0.4894860000000 1.0
C      1  0.5183390000000  0.5326360000000  0.4543230000000 1.0
C      1  0.4819420000000  0.4871480000000  0.4350300000000 1.0
C      1  0.5071390000000  0.5250750000000  0.4294400000000 1.0
C      1  0.5098580000000  0.4804820000000  0.5457320000000 1.0
C      1  0.5394980000000  0.5191830000000  0.5513390000000 1.0
C      1  0.5391970000000  0.5367360000000  0.4728810000000 1.0
C      1  0.4325550000000  0.5227780000000  0.4971800000000 1.0
C      1  0.4575190000000  0.4618640000000  0.5016190000000 1.0
C      1  0.4536190000000  0.4793850000000  0.4779590000000 1.0
C      1  0.5040350000000  0.4511940000000  0.5511180000000 1.0
C      1  0.5619040000000  0.5187750000000  0.5145480000000 1.0
C      1  0.5337480000000  0.4837410000000  0.5257450000000 1.0
C      1  0.4625950000000  0.5247200000000  0.4573420000000 1.0
C      1  0.5407270000000  0.5600290000000  0.4873350000000 1.0
C      1  0.4997910000000  0.5233860000000  0.4724920000000 1.0
C      1  0.5208260000000  0.5045550000000  0.4170380000000 1.0
C      1  0.4833770000000  0.4265230000000  0.5245990000000 1.0
C      1  0.5230860000000  0.5050460000000  0.5063100000000 1.0
C      1  0.4360810000000  0.5305870000000  0.5215790000000 1.0
C      1  0.4995110000000  0.4725750000000  0.4743790000000 1.0
C      1  0.4638310000000  0.4672840000000  0.5300280000000 1.0
C      1  0.4999930000000  0.5009940000000  0.4909440000000 1.0
END
