TITL C-89235-2895-2 -38.3085593535082 125000 -535.946851534906 0 0 77 (C1) n - 1
REM
REM in /rds/project/t2_vol4/rds-t2-cs072/BORA/CARBON/from-Arr/AIRSS/Generating-Clusters/GAP-ML-2020/Only-C1/SD-CG/HFTN-CG
REM
REM
REM
REM
REM
REM ./C.cell (11c1c37f851c82e70ff6c80c92926a4b)
REM AIRSS Version 0.9.1 bugfix July 2018 build 013d7b7c2542+ Fri, 06 Jul 2018 19:26:36 +0100
REM compiler GCC version 9.3.0
REM options -cpp -mtune=generic -march=x86-64 -g -O0
REM seed 543584759 -501675306 -363418997 2087811077 -1838932565 -1423070036 -207520473 -852141356 1230182058 1081093974 -2117732548 -1523341594 985853243 -758168998 768183013 -2114807633 -906847258 -906829409 311098923 1772511770 -698206474 -1220354427 -1676543827 -733240364 -572639602 -241186066 1218078490 845527208 -1629408445 -904389449 -150429491 215572129 -1627357738
REM
CELL 1.54180   50.00000   50.00000   50.00000   90.00000   90.00000   90.00000
LATT -1
SFAC C  
C      1  0.4556600000000  0.5219290000000  0.4339940000000 1.0
C      1  0.4299530000000  0.5296350000000  0.5379690000000 1.0
C      1  0.4998140000000  0.4370880000000  0.4555740000000 1.0
C      1  0.4777020000000  0.5029390000000  0.4372760000000 1.0
C      1  0.5178630000000  0.4882800000000  0.4791890000000 1.0
C      1  0.4640330000000  0.5126630000000  0.5645280000000 1.0
C      1  0.4375330000000  0.4545060000000  0.5204320000000 1.0
C      1  0.4945460000000  0.4262830000000  0.4996420000000 1.0
C      1  0.4321540000000  0.5103910000000  0.4460860000000 1.0
C      1  0.5524310000000  0.5124530000000  0.5051390000000 1.0
C      1  0.5422580000000  0.4551140000000  0.4529330000000 1.0
C      1  0.5458720000000  0.4570650000000  0.5361680000000 1.0
C      1  0.4500000000000  0.4334720000000  0.5323210000000 1.0
C      1  0.4397540000000  0.5077160000000  0.5497210000000 1.0
C      1  0.4340150000000  0.5277960000000  0.4916100000000 1.0
C      1  0.5279450000000  0.4987010000000  0.4320500000000 1.0
C      1  0.5055190000000  0.5712900000000  0.5333910000000 1.0
C      1  0.4741280000000  0.4411190000000  0.5449170000000 1.0
C      1  0.4747610000000  0.4731110000000  0.4338140000000 1.0
C      1  0.5743610000000  0.5113070000000  0.4830210000000 1.0
C      1  0.5251010000000  0.4699460000000  0.4345870000000 1.0
C      1  0.5515160000000  0.5010550000000  0.5537220000000 1.0
C      1  0.5263940000000  0.4388580000000  0.5244230000000 1.0
C      1  0.5267070000000  0.5555260000000  0.4923180000000 1.0
C      1  0.4881280000000  0.5285990000000  0.4771810000000 1.0
C      1  0.4630060000000  0.4955120000000  0.5161780000000 1.0
C      1  0.5052170000000  0.5362510000000  0.4537360000000 1.0
C      1  0.5541090000000  0.5458680000000  0.5021580000000 1.0
C      1  0.4852470000000  0.4776480000000  0.5081290000000 1.0
C      1  0.5415310000000  0.4750060000000  0.5592480000000 1.0
C      1  0.4480210000000  0.5024020000000  0.4918900000000 1.0
C      1  0.5671120000000  0.5469720000000  0.5286550000000 1.0
C      1  0.5278500000000  0.5492980000000  0.4633980000000 1.0
C      1  0.4796240000000  0.4313760000000  0.4749030000000 1.0
C      1  0.4986840000000  0.4584060000000  0.4358350000000 1.0
C      1  0.4973420000000  0.4323960000000  0.5286760000000 1.0
C      1  0.4860920000000  0.5151010000000  0.5242050000000 1.0
C      1  0.5042870000000  0.5145130000000  0.4350380000000 1.0
C      1  0.4524050000000  0.4635780000000  0.4484400000000 1.0
C      1  0.5242780000000  0.4758720000000  0.5804020000000 1.0
C      1  0.5097490000000  0.5205280000000  0.5677500000000 1.0
C      1  0.4368910000000  0.4557850000000  0.4920410000000 1.0
C      1  0.4462930000000  0.4801090000000  0.5372080000000 1.0
C      1  0.5258100000000  0.4366940000000  0.4672240000000 1.0
C      1  0.5370840000000  0.5249530000000  0.5606730000000 1.0
C      1  0.5684200000000  0.4949020000000  0.4606070000000 1.0
C      1  0.4321680000000  0.4835330000000  0.4537760000000 1.0
C      1  0.4851850000000  0.5299300000000  0.5524790000000 1.0
C      1  0.5638340000000  0.4676940000000  0.4670620000000 1.0
C      1  0.4904930000000  0.4824090000000  0.4808010000000 1.0
C      1  0.5457090000000  0.5499350000000  0.5491560000000 1.0
C      1  0.4787430000000  0.5679700000000  0.4944850000000 1.0
C      1  0.5517490000000  0.5367440000000  0.4560230000000 1.0
C      1  0.4535600000000  0.5457680000000  0.4521610000000 1.0
C      1  0.4543040000000  0.4450600000000  0.4711120000000 1.0
C      1  0.4302970000000  0.5332390000000  0.4641990000000 1.0
C      1  0.4734350000000  0.5040230000000  0.4720620000000 1.0
C      1  0.4657980000000  0.4674740000000  0.5562090000000 1.0
C      1  0.5057690000000  0.4928090000000  0.5224180000000 1.0
C      1  0.5040820000000  0.5278660000000  0.5015540000000 1.0
C      1  0.5236990000000  0.5041240000000  0.5013200000000 1.0
C      1  0.5843910000000  0.5248570000000  0.5305460000000 1.0
C      1  0.5231160000000  0.4311780000000  0.4956090000000 1.0
C      1  0.5673940000000  0.5009340000000  0.5296070000000 1.0
C      1  0.5279670000000  0.5714720000000  0.5484440000000 1.0
C      1  0.5059140000000  0.5722810000000  0.5037530000000 1.0
C      1  0.5515280000000  0.5101590000000  0.4438670000000 1.0
C      1  0.4753690000000  0.5532830000000  0.4692900000000 1.0
C      1  0.4301560000000  0.4808630000000  0.4816680000000 1.0
C      1  0.5695920000000  0.5389130000000  0.4778630000000 1.0
C      1  0.5689460000000  0.4634190000000  0.4937140000000 1.0
C      1  0.4634680000000  0.5599780000000  0.5177640000000 1.0
C      1  0.4766640000000  0.4884160000000  0.5716580000000 1.0
C      1  0.5043390000000  0.4943270000000  0.5778100000000 1.0
C      1  0.4389260000000  0.5431910000000  0.5153670000000 1.0
C      1  0.5650690000000  0.4707520000000  0.5191400000000 1.0
C      1  0.4811330000000  0.5573910000000  0.5406890000000 1.0
END
