TITL C-89234-2779-4 -598.534556762122 125000 -747.172095953612 0 0 105 (C1) n - 1
REM
REM in /rds/project/t2_vol4/rds-t2-cs072/BORA/CARBON/from-Arr/AIRSS/Generating-Clusters/GAP-ML-2020/Only-C1/SD-CG/HFTN-CG
REM
REM
REM
REM
REM
REM ./C.cell (11c1c37f851c82e70ff6c80c92926a4b)
REM AIRSS Version 0.9.1 bugfix July 2018 build 013d7b7c2542+ Fri, 06 Jul 2018 19:26:36 +0100
REM compiler GCC version 9.3.0
REM options -cpp -mtune=generic -march=x86-64 -g -O0
REM seed 587533983 2121635183 -758042093 1736247044 -1929891891 1980800051 2114079173 -1302011838 -1213351971 1779982976 1591577643 1732019794 1348645676 -1662376851 -494317289 1944389278 -1218786257 563330297 -749220695 1268034364 -1602788904 624384225 140117601 -875903674 -352794196 -40175060 1471466277 1260469143 691348923 -1698401460 2120045938 1982655447 -1732483128
REM
CELL 1.54180   50.00000   50.00000   50.00000   90.00000   90.00000   90.00000
LATT -1
SFAC C  
C      1  0.5354880000000  0.5197400000000  0.5757660000000 1.0
C      1  0.5735600000000  0.4495420000000  0.4911700000000 1.0
C      1  0.5916190000000  0.5165290000000  0.5087110000000 1.0
C      1  0.5077630000000  0.5267770000000  0.4974080000000 1.0
C      1  0.5356070000000  0.5695590000000  0.4804870000000 1.0
C      1  0.4919370000000  0.5242710000000  0.5729420000000 1.0
C      1  0.5103220000000  0.4519340000000  0.4346250000000 1.0
C      1  0.4704760000000  0.4834410000000  0.4330420000000 1.0
C      1  0.5842900000000  0.4871310000000  0.5383250000000 1.0
C      1  0.5575990000000  0.4369790000000  0.5440350000000 1.0
C      1  0.5068210000000  0.4697390000000  0.4840040000000 1.0
C      1  0.5592470000000  0.5591710000000  0.4931240000000 1.0
C      1  0.5850660000000  0.5156450000000  0.5788110000000 1.0
C      1  0.4614740000000  0.5525270000000  0.4294060000000 1.0
C      1  0.4907230000000  0.4239130000000  0.4669560000000 1.0
C      1  0.4372390000000  0.5132360000000  0.4156570000000 1.0
C      1  0.5324130000000  0.5551340000000  0.4546160000000 1.0
C      1  0.4814070000000  0.4242430000000  0.5206180000000 1.0
C      1  0.4215180000000  0.4860090000000  0.4406820000000 1.0
C      1  0.5057610000000  0.4807300000000  0.5841110000000 1.0
C      1  0.4175480000000  0.4656570000000  0.4873950000000 1.0
C      1  0.4961120000000  0.5219360000000  0.4731450000000 1.0
C      1  0.4151810000000  0.5044620000000  0.5188020000000 1.0
C      1  0.5956240000000  0.4892680000000  0.5134770000000 1.0
C      1  0.5240640000000  0.4657460000000  0.5667140000000 1.0
C      1  0.4440270000000  0.4440810000000  0.4625040000000 1.0
C      1  0.5097320000000  0.5486260000000  0.4385210000000 1.0
C      1  0.5148530000000  0.4302180000000  0.4528180000000 1.0
C      1  0.4853930000000  0.5339680000000  0.5180090000000 1.0
C      1  0.5297810000000  0.5310730000000  0.5480180000000 1.0
C      1  0.4140960000000  0.4765320000000  0.5133350000000 1.0
C      1  0.5738100000000  0.5288910000000  0.5279180000000 1.0
C      1  0.4387530000000  0.5579580000000  0.4459910000000 1.0
C      1  0.4948540000000  0.4144730000000  0.4951630000000 1.0
C      1  0.4601350000000  0.5013560000000  0.5754310000000 1.0
C      1  0.4329240000000  0.5634710000000  0.4920620000000 1.0
C      1  0.4695230000000  0.4376480000000  0.4527320000000 1.0
C      1  0.5539680000000  0.5369930000000  0.4527570000000 1.0
C      1  0.5531200000000  0.5113980000000  0.4408450000000 1.0
C      1  0.4294910000000  0.5181320000000  0.4995830000000 1.0
C      1  0.5840240000000  0.5137070000000  0.5521340000000 1.0
C      1  0.5247160000000  0.5062050000000  0.5081780000000 1.0
C      1  0.5693620000000  0.4895220000000  0.4493270000000 1.0
C      1  0.5580190000000  0.4426430000000  0.5170630000000 1.0
C      1  0.4628350000000  0.5154310000000  0.5047990000000 1.0
C      1  0.5015910000000  0.4944850000000  0.5295190000000 1.0
C      1  0.5118820000000  0.5089880000000  0.5861870000000 1.0
C      1  0.5610790000000  0.5551480000000  0.5209210000000 1.0
C      1  0.5595820000000  0.4439990000000  0.4662880000000 1.0
C      1  0.4635690000000  0.4871080000000  0.4655600000000 1.0
C      1  0.5522990000000  0.4782870000000  0.5647040000000 1.0
C      1  0.4525130000000  0.4737210000000  0.5389160000000 1.0
C      1  0.4906310000000  0.4447450000000  0.5398140000000 1.0
C      1  0.4449030000000  0.5619060000000  0.5176210000000 1.0
C      1  0.5296570000000  0.5010630000000  0.4297780000000 1.0
C      1  0.5288830000000  0.4802560000000  0.4958450000000 1.0
C      1  0.4358860000000  0.4334980000000  0.5146370000000 1.0
C      1  0.4848180000000  0.5627010000000  0.4417810000000 1.0
C      1  0.4830790000000  0.5092990000000  0.4209140000000 1.0
C      1  0.4616310000000  0.5272360000000  0.4167090000000 1.0
C      1  0.4197950000000  0.5380710000000  0.4539460000000 1.0
C      1  0.4562990000000  0.5509120000000  0.5624630000000 1.0
C      1  0.4547430000000  0.4161550000000  0.5236800000000 1.0
C      1  0.5186110000000  0.4001430000000  0.4944740000000 1.0
C      1  0.5171920000000  0.5760550000000  0.5273530000000 1.0
C      1  0.4716380000000  0.4594580000000  0.5560240000000 1.0
C      1  0.4878150000000  0.5783330000000  0.4917530000000 1.0
C      1  0.5400360000000  0.3995050000000  0.4806360000000 1.0
C      1  0.5710200000000  0.5406900000000  0.4746080000000 1.0
C      1  0.5371790000000  0.5587880000000  0.5363820000000 1.0
C      1  0.5310130000000  0.4714210000000  0.4325880000000 1.0
C      1  0.4745000000000  0.5728750000000  0.5602800000000 1.0
C      1  0.4755290000000  0.5765640000000  0.4665620000000 1.0
C      1  0.4273230000000  0.5170930000000  0.5416740000000 1.0
C      1  0.5460000000000  0.5127180000000  0.5286290000000 1.0
C      1  0.5499120000000  0.4492890000000  0.5663830000000 1.0
C      1  0.4425790000000  0.4859270000000  0.4207730000000 1.0
C      1  0.5874670000000  0.5195430000000  0.4815910000000 1.0
C      1  0.5892800000000  0.4732490000000  0.4909350000000 1.0
C      1  0.4307160000000  0.4585340000000  0.5280940000000 1.0
C      1  0.5557640000000  0.4648180000000  0.4463380000000 1.0
C      1  0.5399990000000  0.4235310000000  0.4649870000000 1.0
C      1  0.4380230000000  0.5451920000000  0.5409490000000 1.0
C      1  0.4297500000000  0.4393370000000  0.4871710000000 1.0
C      1  0.5132560000000  0.4653880000000  0.5385550000000 1.0
C      1  0.4739560000000  0.4885590000000  0.5148470000000 1.0
C      1  0.4901450000000  0.5754610000000  0.5385790000000 1.0
C      1  0.4415370000000  0.4965980000000  0.5551630000000 1.0
C      1  0.4182830000000  0.5151980000000  0.4374170000000 1.0
C      1  0.5863310000000  0.4931850000000  0.4703660000000 1.0
C      1  0.4344030000000  0.4736950000000  0.4637070000000 1.0
C      1  0.4654570000000  0.5289410000000  0.5783830000000 1.0
C      1  0.4473390000000  0.5725860000000  0.4690220000000 1.0
C      1  0.5152900000000  0.5799720000000  0.4982110000000 1.0
C      1  0.5085230000000  0.5199150000000  0.4261560000000 1.0
C      1  0.4196960000000  0.5393730000000  0.4829470000000 1.0
C      1  0.5386440000000  0.4647930000000  0.5203340000000 1.0
C      1  0.4696930000000  0.5141740000000  0.4750700000000 1.0
C      1  0.5550290000000  0.4849710000000  0.5362120000000 1.0
C      1  0.4748460000000  0.5647670000000  0.5152670000000 1.0
C      1  0.4822120000000  0.4565070000000  0.4344830000000 1.0
C      1  0.5002130000000  0.5225200000000  0.5435060000000 1.0
C      1  0.4785420000000  0.4776130000000  0.5765110000000 1.0
C      1  0.5596700000000  0.5045340000000  0.5778390000000 1.0
C      1  0.4804730000000  0.4749640000000  0.4887390000000 1.0
END
