TITL C-89218-3798-1 20.9962633170363 125000 -870.905559945484 0 0 123 (C1) n - 1
REM
REM in /rds/project/t2_vol4/rds-t2-cs072/BORA/CARBON/from-Arr/AIRSS/Generating-Clusters/GAP-ML-2020/Only-C1/SD-CG/HFTN-CG
REM
REM
REM
REM
REM
REM ./C.cell (11c1c37f851c82e70ff6c80c92926a4b)
REM AIRSS Version 0.9.1 bugfix July 2018 build 013d7b7c2542+ Fri, 06 Jul 2018 19:26:36 +0100
REM compiler GCC version 9.3.0
REM options -cpp -mtune=generic -march=x86-64 -g -O0
REM seed 1580859014 1174467590 782554973 -1093022370 84515507 2117776595 -277799696 -15120353 539022815 -1090346996 867146603 6939434 -180462800 1274017819 -388741280 -295062829 970065340 -1376204642 1171909210 684588391 -1753716136 -1923489558 -1105687485 1242144897 2032379186 1019016395 346642226 1775255805 1418320046 1301242826 1325877741 1978920881 -361875793
REM
CELL 1.54180   50.00000   50.00000   50.00000   90.00000   90.00000   90.00000
LATT -1
SFAC C  
C      1  0.5400830000000  0.4905960000000  0.4622800000000 1.0
C      1  0.4397630000000  0.4320160000000  0.4777380000000 1.0
C      1  0.4712240000000  0.5344140000000  0.5171540000000 1.0
C      1  0.5307610000000  0.4929620000000  0.4929730000000 1.0
C      1  0.5236910000000  0.4776010000000  0.4175140000000 1.0
C      1  0.5239630000000  0.5600880000000  0.4673770000000 1.0
C      1  0.4367750000000  0.5567510000000  0.5369100000000 1.0
C      1  0.5435420000000  0.5790890000000  0.5109530000000 1.0
C      1  0.4770770000000  0.4144980000000  0.4548260000000 1.0
C      1  0.5630970000000  0.5306170000000  0.5612950000000 1.0
C      1  0.4204790000000  0.5424320000000  0.5161680000000 1.0
C      1  0.5013570000000  0.5919510000000  0.4978900000000 1.0
C      1  0.4520610000000  0.5474500000000  0.5608650000000 1.0
C      1  0.4922810000000  0.4313850000000  0.5569070000000 1.0
C      1  0.5460860000000  0.4414890000000  0.4581200000000 1.0
C      1  0.5136330000000  0.4107030000000  0.4858620000000 1.0
C      1  0.4345930000000  0.5195630000000  0.4733660000000 1.0
C      1  0.4091370000000  0.5063710000000  0.5486170000000 1.0
C      1  0.4422200000000  0.5669410000000  0.4804450000000 1.0
C      1  0.4829730000000  0.4137400000000  0.4825920000000 1.0
C      1  0.5662240000000  0.4503310000000  0.4763940000000 1.0
C      1  0.5325170000000  0.4663960000000  0.4444560000000 1.0
C      1  0.4769470000000  0.4661530000000  0.4451730000000 1.0
C      1  0.5017230000000  0.4640510000000  0.4059690000000 1.0
C      1  0.5938900000000  0.5660400000000  0.5066990000000 1.0
C      1  0.5045610000000  0.5307760000000  0.4133100000000 1.0
C      1  0.5018260000000  0.4258340000000  0.5296900000000 1.0
C      1  0.4795160000000  0.5606390000000  0.4402930000000 1.0
C      1  0.5412930000000  0.5326380000000  0.5813710000000 1.0
C      1  0.4767680000000  0.5892400000000  0.4846460000000 1.0
C      1  0.5851430000000  0.4846600000000  0.5041840000000 1.0
C      1  0.4628900000000  0.4854950000000  0.5243560000000 1.0
C      1  0.5476900000000  0.5450440000000  0.4268160000000 1.0
C      1  0.5776220000000  0.5082920000000  0.5191930000000 1.0
C      1  0.5023910000000  0.4270630000000  0.4426490000000 1.0
C      1  0.5932970000000  0.5444540000000  0.4662270000000 1.0
C      1  0.4288960000000  0.5053770000000  0.5700150000000 1.0
C      1  0.5023290000000  0.4686520000000  0.5884120000000 1.0
C      1  0.4554290000000  0.4381820000000  0.5236230000000 1.0
C      1  0.4552920000000  0.4910640000000  0.4142370000000 1.0
C      1  0.5080030000000  0.5657320000000  0.4420430000000 1.0
C      1  0.5006890000000  0.5917050000000  0.5271400000000 1.0
C      1  0.5394280000000  0.5708840000000  0.5557200000000 1.0
C      1  0.4312240000000  0.4758850000000  0.5684820000000 1.0
C      1  0.4138610000000  0.4716680000000  0.5213170000000 1.0
C      1  0.4839560000000  0.4448900000000  0.4870780000000 1.0
C      1  0.4673600000000  0.4684700000000  0.4724470000000 1.0
C      1  0.5095810000000  0.5362200000000  0.4837260000000 1.0
C      1  0.5549100000000  0.4373670000000  0.5478760000000 1.0
C      1  0.5139430000000  0.4833960000000  0.5349410000000 1.0
C      1  0.4369120000000  0.4731260000000  0.4288350000000 1.0
C      1  0.5282820000000  0.5857470000000  0.5341080000000 1.0
C      1  0.5385490000000  0.4458990000000  0.5700330000000 1.0
C      1  0.5228930000000  0.5133600000000  0.5928350000000 1.0
C      1  0.4507470000000  0.5221460000000  0.5746350000000 1.0
C      1  0.4734990000000  0.5082190000000  0.5860590000000 1.0
C      1  0.4762100000000  0.4791560000000  0.5848010000000 1.0
C      1  0.6037900000000  0.5608070000000  0.4833850000000 1.0
C      1  0.5625910000000  0.5290050000000  0.5025280000000 1.0
C      1  0.5250860000000  0.5071340000000  0.4196420000000 1.0
C      1  0.4772980000000  0.5828800000000  0.5422680000000 1.0
C      1  0.5444240000000  0.5401420000000  0.4554990000000 1.0
C      1  0.5498230000000  0.4262770000000  0.5212180000000 1.0
C      1  0.5529230000000  0.5182330000000  0.4166630000000 1.0
C      1  0.4266040000000  0.5450190000000  0.4880260000000 1.0
C      1  0.4962210000000  0.5243970000000  0.5903940000000 1.0
C      1  0.5131920000000  0.5088030000000  0.5443710000000 1.0
C      1  0.4897260000000  0.4754470000000  0.5200790000000 1.0
C      1  0.5080890000000  0.4571630000000  0.4806590000000 1.0
C      1  0.4386870000000  0.4634380000000  0.4841430000000 1.0
C      1  0.4537720000000  0.5183690000000  0.4227440000000 1.0
C      1  0.5480460000000  0.4717200000000  0.5790690000000 1.0
C      1  0.4198450000000  0.4883210000000  0.4775940000000 1.0
C      1  0.5683610000000  0.4405370000000  0.5034830000000 1.0
C      1  0.4538820000000  0.4191520000000  0.4983990000000 1.0
C      1  0.5610450000000  0.5546480000000  0.5462870000000 1.0
C      1  0.4765820000000  0.5368020000000  0.4225430000000 1.0
C      1  0.5689260000000  0.5288690000000  0.4712470000000 1.0
C      1  0.4528240000000  0.5847500000000  0.5007080000000 1.0
C      1  0.5273710000000  0.5822060000000  0.4877390000000 1.0
C      1  0.5696690000000  0.4809880000000  0.5613910000000 1.0
C      1  0.5234270000000  0.4164350000000  0.5130100000000 1.0
C      1  0.5254920000000  0.4197800000000  0.4610830000000 1.0
C      1  0.4960690000000  0.5398090000000  0.5103770000000 1.0
C      1  0.4975290000000  0.5512950000000  0.5797260000000 1.0
C      1  0.5738320000000  0.5071430000000  0.5486390000000 1.0
C      1  0.4105810000000  0.4771970000000  0.5483050000000 1.0
C      1  0.5259650000000  0.5562660000000  0.5763850000000 1.0
C      1  0.5024950000000  0.4832210000000  0.4919530000000 1.0
C      1  0.5258460000000  0.4851310000000  0.5920060000000 1.0
C      1  0.4761970000000  0.5630210000000  0.5639070000000 1.0
C      1  0.4598360000000  0.5102790000000  0.5138410000000 1.0
C      1  0.4814890000000  0.4954160000000  0.4748040000000 1.0
C      1  0.4603230000000  0.5116910000000  0.4856370000000 1.0
C      1  0.4840050000000  0.4454840000000  0.5163210000000 1.0
C      1  0.5662130000000  0.5583500000000  0.5167640000000 1.0
C      1  0.4808700000000  0.4800820000000  0.4179910000000 1.0
C      1  0.4223780000000  0.4891460000000  0.4466080000000 1.0
C      1  0.5206810000000  0.5528060000000  0.4205730000000 1.0
C      1  0.5000920000000  0.5159670000000  0.4651920000000 1.0
C      1  0.4956240000000  0.4362960000000  0.4134560000000 1.0
C      1  0.4644390000000  0.4401500000000  0.5538330000000 1.0
C      1  0.4652330000000  0.5727760000000  0.4624880000000 1.0
C      1  0.4525910000000  0.5791070000000  0.5278150000000 1.0
C      1  0.5719330000000  0.5054160000000  0.4303810000000 1.0
C      1  0.5785300000000  0.4774490000000  0.4768680000000 1.0
C      1  0.5333650000000  0.5213570000000  0.5008480000000 1.0
C      1  0.4685430000000  0.4373530000000  0.4101380000000 1.0
C      1  0.5253890000000  0.5131250000000  0.4504280000000 1.0
C      1  0.4558400000000  0.4620490000000  0.5708900000000 1.0
C      1  0.5825310000000  0.4603050000000  0.5185600000000 1.0
C      1  0.5361820000000  0.4793430000000  0.5175660000000 1.0
C      1  0.5693260000000  0.4994710000000  0.4591130000000 1.0
C      1  0.5748920000000  0.4583420000000  0.5452630000000 1.0
C      1  0.4522460000000  0.4464210000000  0.4315340000000 1.0
C      1  0.4333570000000  0.5158540000000  0.4437200000000 1.0
C      1  0.4076370000000  0.5174620000000  0.5218320000000 1.0
C      1  0.5162080000000  0.5273940000000  0.5253700000000 1.0
C      1  0.4409050000000  0.4629960000000  0.5140700000000 1.0
C      1  0.5050020000000  0.4555820000000  0.4516810000000 1.0
C      1  0.4062580000000  0.4933830000000  0.5036480000000 1.0
C      1  0.5100040000000  0.4439230000000  0.5754210000000 1.0
C      1  0.4507790000000  0.4259170000000  0.4522390000000 1.0
END
