TITL C-89232-2795-2 31.273904686533 125000 -86.052796086846 0 0 14 (C1) n - 1
REM
REM in /rds/project/t2_vol4/rds-t2-cs072/BORA/CARBON/from-Arr/AIRSS/Generating-Clusters/GAP-ML-2020/Only-C1/SD-CG/HFTN-CG
REM
REM
REM
REM
REM
REM ./C.cell (11c1c37f851c82e70ff6c80c92926a4b)
REM AIRSS Version 0.9.1 bugfix July 2018 build 013d7b7c2542+ Fri, 06 Jul 2018 19:26:36 +0100
REM compiler GCC version 9.3.0
REM options -cpp -mtune=generic -march=x86-64 -g -O0
REM seed 541715761 387058552 -1510926969 230556280 1562791760 -1669907321 -1198328440 -1965620496 -1744409872 -743516428 1549897117 2084601647 -1482348241 918711657 2066392874 -1176656451 1970885514 2073355482 1308055187 -893906847 -1668824231 2052568764 86258880 -1638639742 -1225125032 1130205710 372275715 -1870063210 -546033061 1674796321 658929892 -1103701650 -551365976
REM
CELL 1.54180   50.00000   50.00000   50.00000   90.00000   90.00000   90.00000
LATT -1
SFAC C  
C      1  0.5186420000000  0.5232080000000  0.4936140000000 1.0
C      1  0.4855520000000  0.5293930000000  0.4465900000000 1.0
C      1  0.4911740000000  0.4893380000000  0.4703120000000 1.0
C      1  0.4775190000000  0.4777280000000  0.4928330000000 1.0
C      1  0.5170200000000  0.4971300000000  0.4824950000000 1.0
C      1  0.4816710000000  0.5043880000000  0.4493540000000 1.0
C      1  0.5485720000000  0.4918050000000  0.5418820000000 1.0
C      1  0.4989430000000  0.4630440000000  0.5040600000000 1.0
C      1  0.5209750000000  0.4798400000000  0.5040930000000 1.0
C      1  0.4883190000000  0.5246140000000  0.5305030000000 1.0
C      1  0.4679850000000  0.5096730000000  0.5258040000000 1.0
C      1  0.5136330000000  0.5218790000000  0.5213360000000 1.0
C      1  0.5291540000000  0.4982480000000  0.5262370000000 1.0
C      1  0.4608410000000  0.4897120000000  0.5108870000000 1.0
END
