TITL C-89216-2701-7 20.6600361116298 125000 -85.8559670617827 0 0 14 (C1) n - 1
REM
REM in /rds/project/t2_vol4/rds-t2-cs072/BORA/CARBON/from-Arr/AIRSS/Generating-Clusters/GAP-ML-2020/Only-C1/SD-CG/HFTN-CG
REM
REM
REM
REM
REM
REM ./C.cell (11c1c37f851c82e70ff6c80c92926a4b)
REM AIRSS Version 0.9.1 bugfix July 2018 build 013d7b7c2542+ Fri, 06 Jul 2018 19:26:36 +0100
REM compiler GCC version 9.3.0
REM options -cpp -mtune=generic -march=x86-64 -g -O0
REM seed 1077897281 356450801 -2119548468 1631986240 -201763159 1043704011 1087719922 -1769231638 -1740131482 -728749408 1507207150 1323115487 -2067041107 -521552858 -1087632481 173446 -1288954575 -916056092 -213927118 -423485630 -1828041900 -880720588 839036920 138068465 -374427436 -764781240 122144145 -1495881657 -1279774676 1321604042 -1080672126 -849606165 351219237
REM
CELL 1.54180   50.00000   50.00000   50.00000   90.00000   90.00000   90.00000
LATT -1
SFAC C  
C      1  0.5324550000000  0.4522060000000  0.5219140000000 1.0
C      1  0.4762380000000  0.4946080000000  0.5234120000000 1.0
C      1  0.5082270000000  0.4536610000000  0.5305910000000 1.0
C      1  0.5227080000000  0.5068790000000  0.5010950000000 1.0
C      1  0.5107430000000  0.4808650000000  0.4506360000000 1.0
C      1  0.5121260000000  0.5249140000000  0.4865490000000 1.0
C      1  0.4673800000000  0.4947780000000  0.4733130000000 1.0
C      1  0.4693510000000  0.4995460000000  0.4981480000000 1.0
C      1  0.4992810000000  0.5022020000000  0.5378480000000 1.0
C      1  0.4874830000000  0.4883690000000  0.4575370000000 1.0
C      1  0.5032610000000  0.5489800000000  0.4818060000000 1.0
C      1  0.5247600000000  0.5072160000000  0.5276380000000 1.0
C      1  0.4925210000000  0.4741580000000  0.5345230000000 1.0
C      1  0.4934660000000  0.5716170000000  0.4749900000000 1.0
END
