TITL C-89238-3723-4 0.0993744745168517 125000 -843.438204264483 0 0 119 (C1) n - 1
REM
REM in /rds/project/t2_vol4/rds-t2-cs072/BORA/CARBON/from-Arr/AIRSS/Generating-Clusters/GAP-ML-2020/Only-C1/SD-CG/HFTN-CG
REM
REM
REM
REM
REM
REM ./C.cell (11c1c37f851c82e70ff6c80c92926a4b)
REM AIRSS Version 0.9.1 bugfix July 2018 build 013d7b7c2542+ Fri, 06 Jul 2018 19:26:36 +0100
REM compiler GCC version 9.3.0
REM options -cpp -mtune=generic -march=x86-64 -g -O0
REM seed 2113238238 -2135140605 307248356 -1369072035 -939390628 786070509 1576810080 1730428010 2076625769 1037278293 1857118883 1186102776 1813007302 -1782002940 -1523555817 565874452 2024009533 -1989070918 -1377603377 1159866873 -1801301968 -1178747240 -1441411374 1701468527 -813179292 1464513618 -820361913 -1907718007 1739157701 -668618287 1631567812 -1882654855 -1504659684
REM
CELL 1.54180   50.00000   50.00000   50.00000   90.00000   90.00000   90.00000
LATT -1
SFAC C  
C      1  0.4574820000000  0.5272270000000  0.4238820000000 1.0
C      1  0.5848290000000  0.4577950000000  0.4710510000000 1.0
C      1  0.5460680000000  0.5630220000000  0.4556190000000 1.0
C      1  0.4598380000000  0.4971270000000  0.4188620000000 1.0
C      1  0.5048860000000  0.5892790000000  0.4688430000000 1.0
C      1  0.4744400000000  0.5735850000000  0.5444550000000 1.0
C      1  0.4475410000000  0.5541680000000  0.4822880000000 1.0
C      1  0.4393410000000  0.4839070000000  0.4323880000000 1.0
C      1  0.4635720000000  0.4074750000000  0.4978750000000 1.0
C      1  0.4947900000000  0.4536090000000  0.5055700000000 1.0
C      1  0.4494860000000  0.4157350000000  0.5208940000000 1.0
C      1  0.4626130000000  0.4104260000000  0.5450290000000 1.0
C      1  0.5995950000000  0.4788150000000  0.5086220000000 1.0
C      1  0.5196770000000  0.5980640000000  0.4914780000000 1.0
C      1  0.4009170000000  0.4980490000000  0.4885890000000 1.0
C      1  0.4879480000000  0.4188800000000  0.5491680000000 1.0
C      1  0.5183780000000  0.5124860000000  0.4120200000000 1.0
C      1  0.4644850000000  0.4808870000000  0.4706230000000 1.0
C      1  0.4609800000000  0.4200190000000  0.4724060000000 1.0
C      1  0.5428030000000  0.4728090000000  0.4935650000000 1.0
C      1  0.5374480000000  0.4922310000000  0.4698170000000 1.0
C      1  0.5116110000000  0.4863130000000  0.4120840000000 1.0
C      1  0.5252840000000  0.5309440000000  0.5779590000000 1.0
C      1  0.5053560000000  0.4039180000000  0.4785880000000 1.0
C      1  0.5402830000000  0.4824510000000  0.5209350000000 1.0
C      1  0.5593380000000  0.5438620000000  0.5399750000000 1.0
C      1  0.5727040000000  0.4421400000000  0.5158340000000 1.0
C      1  0.5401040000000  0.5507230000000  0.5635810000000 1.0
C      1  0.5115640000000  0.5299110000000  0.5242250000000 1.0
C      1  0.5083080000000  0.4844290000000  0.5874490000000 1.0
C      1  0.5309220000000  0.5032750000000  0.5805650000000 1.0
C      1  0.4642410000000  0.5896930000000  0.4991690000000 1.0
C      1  0.5759370000000  0.5263070000000  0.4987260000000 1.0
C      1  0.5247170000000  0.5336560000000  0.4266990000000 1.0
C      1  0.4815250000000  0.5197130000000  0.4609570000000 1.0
C      1  0.4842930000000  0.4812370000000  0.4233680000000 1.0
C      1  0.4742000000000  0.5184630000000  0.5757610000000 1.0
C      1  0.5255730000000  0.4437860000000  0.4339510000000 1.0
C      1  0.4079400000000  0.4748730000000  0.5271170000000 1.0
C      1  0.4575240000000  0.5087570000000  0.4772410000000 1.0
C      1  0.4769790000000  0.5848120000000  0.4730570000000 1.0
C      1  0.4111460000000  0.5018520000000  0.5353890000000 1.0
C      1  0.4293790000000  0.5603370000000  0.5237170000000 1.0
C      1  0.4910410000000  0.4477820000000  0.5609210000000 1.0
C      1  0.4806350000000  0.4907720000000  0.5814350000000 1.0
C      1  0.5082670000000  0.5977620000000  0.5178580000000 1.0
C      1  0.5612110000000  0.5736740000000  0.4776530000000 1.0
C      1  0.5048450000000  0.4071340000000  0.5260750000000 1.0
C      1  0.4877620000000  0.4175180000000  0.4595150000000 1.0
C      1  0.4320280000000  0.5283060000000  0.4327330000000 1.0
C      1  0.5497860000000  0.4367290000000  0.4486180000000 1.0
C      1  0.5472770000000  0.5311070000000  0.4969330000000 1.0
C      1  0.5704060000000  0.5659830000000  0.5236730000000 1.0
C      1  0.5460350000000  0.5340220000000  0.4481390000000 1.0
C      1  0.5101380000000  0.4816950000000  0.4697000000000 1.0
C      1  0.4885590000000  0.5630690000000  0.5911770000000 1.0
C      1  0.4765180000000  0.5439610000000  0.4408970000000 1.0
C      1  0.4555230000000  0.5509270000000  0.5390670000000 1.0
C      1  0.4943710000000  0.4871290000000  0.5354410000000 1.0
C      1  0.4277840000000  0.4582640000000  0.5371400000000 1.0
C      1  0.5680590000000  0.4588110000000  0.4485660000000 1.0
C      1  0.5384120000000  0.4619810000000  0.5654710000000 1.0
C      1  0.5507170000000  0.4876960000000  0.5661350000000 1.0
C      1  0.5752660000000  0.5562290000000  0.4970720000000 1.0
C      1  0.4689810000000  0.4685090000000  0.5677860000000 1.0
C      1  0.5320850000000  0.5219200000000  0.4744020000000 1.0
C      1  0.5674070000000  0.5106590000000  0.4494610000000 1.0
C      1  0.5330880000000  0.4563210000000  0.5371090000000 1.0
C      1  0.4316440000000  0.4375510000000  0.5173280000000 1.0
C      1  0.5483180000000  0.4331420000000  0.5268170000000 1.0
C      1  0.4808260000000  0.5909580000000  0.5224270000000 1.0
C      1  0.4485760000000  0.4773910000000  0.5475760000000 1.0
C      1  0.5049000000000  0.5534500000000  0.4338900000000 1.0
C      1  0.4634520000000  0.5631580000000  0.4603840000000 1.0
C      1  0.4666500000000  0.4888720000000  0.5219540000000 1.0
C      1  0.4904600000000  0.3996810000000  0.5023430000000 1.0
C      1  0.4960380000000  0.5374090000000  0.5822600000000 1.0
C      1  0.5754700000000  0.4362140000000  0.4879970000000 1.0
C      1  0.5316450000000  0.4128620000000  0.5160600000000 1.0
C      1  0.4027030000000  0.5040800000000  0.4621800000000 1.0
C      1  0.4347890000000  0.5046960000000  0.5515790000000 1.0
C      1  0.5137310000000  0.4587370000000  0.5783770000000 1.0
C      1  0.4188800000000  0.5043720000000  0.4403270000000 1.0
C      1  0.4764190000000  0.4545850000000  0.4327540000000 1.0
C      1  0.5187700000000  0.5721560000000  0.4501450000000 1.0
C      1  0.4401420000000  0.4398620000000  0.4678860000000 1.0
C      1  0.5477110000000  0.5930510000000  0.4937500000000 1.0
C      1  0.5166010000000  0.4592360000000  0.4878080000000 1.0
C      1  0.5026730000000  0.4577930000000  0.5342980000000 1.0
C      1  0.5317740000000  0.4700660000000  0.4241810000000 1.0
C      1  0.4527850000000  0.5266550000000  0.5583330000000 1.0
C      1  0.5237050000000  0.5737650000000  0.5579960000000 1.0
C      1  0.4758690000000  0.4742710000000  0.4981000000000 1.0
C      1  0.5650630000000  0.4917850000000  0.5382430000000 1.0
C      1  0.5830500000000  0.5084360000000  0.4741930000000 1.0
C      1  0.5140980000000  0.5001610000000  0.5206500000000 1.0
C      1  0.4949290000000  0.5717360000000  0.5651010000000 1.0
C      1  0.5543840000000  0.4218690000000  0.4732010000000 1.0
C      1  0.5817560000000  0.4686120000000  0.5256650000000 1.0
C      1  0.4875280000000  0.4911360000000  0.4529280000000 1.0
C      1  0.5938380000000  0.4826110000000  0.4820450000000 1.0
C      1  0.4022400000000  0.5174220000000  0.5127870000000 1.0
C      1  0.5329300000000  0.4084410000000  0.4870930000000 1.0
C      1  0.4513300000000  0.4610520000000  0.4496840000000 1.0
C      1  0.5739030000000  0.5191570000000  0.5299040000000 1.0
C      1  0.5358930000000  0.5421140000000  0.5194140000000 1.0
C      1  0.4101510000000  0.5429280000000  0.5172240000000 1.0
C      1  0.4946230000000  0.5396140000000  0.5043050000000 1.0
C      1  0.5537580000000  0.5887510000000  0.5216420000000 1.0
C      1  0.5001100000000  0.4961100000000  0.4933060000000 1.0
C      1  0.4236520000000  0.4474060000000  0.4915230000000 1.0
C      1  0.5291080000000  0.5906070000000  0.5362250000000 1.0
C      1  0.4650690000000  0.5388590000000  0.5087440000000 1.0
C      1  0.5021210000000  0.5245740000000  0.4813230000000 1.0
C      1  0.4065760000000  0.4710380000000  0.4989830000000 1.0
C      1  0.4402180000000  0.5749760000000  0.5003490000000 1.0
C      1  0.5539940000000  0.4835230000000  0.4424090000000 1.0
C      1  0.4562640000000  0.5123620000000  0.5053010000000 1.0
C      1  0.4966350000000  0.4357030000000  0.4386370000000 1.0
END
