TITL C-89216-2701-5 -0.0955125705914042 125000 -461.99557972627 0 0 67 (C1) n - 1
REM
REM in /rds/project/t2_vol4/rds-t2-cs072/BORA/CARBON/from-Arr/AIRSS/Generating-Clusters/GAP-ML-2020/Only-C1/SD-CG/HFTN-CG
REM
REM
REM
REM
REM
REM ./C.cell (11c1c37f851c82e70ff6c80c92926a4b)
REM AIRSS Version 0.9.1 bugfix July 2018 build 013d7b7c2542+ Fri, 06 Jul 2018 19:26:36 +0100
REM compiler GCC version 9.3.0
REM options -cpp -mtune=generic -march=x86-64 -g -O0
REM seed 558347193 -1200996264 476907411 -1416290614 1810341977 -2068889085 -671993866 -12186912 -862298710 1925246168 -1767342838 307026263 -143473860 -1709557896 -1509172722 930870373 112429853 -955137140 891587631 1917515007 1524115944 -355226730 159173272 2060067689 -172152961 641630279 -1557735066 -1197203433 1432502037 -1437393050 1136380418 -1201622513 768834810
REM
CELL 1.54180   50.00000   50.00000   50.00000   90.00000   90.00000   90.00000
LATT -1
SFAC C  
C      1  0.4552020000000  0.4688130000000  0.4485690000000 1.0
C      1  0.4916810000000  0.5059290000000  0.4256810000000 1.0
C      1  0.5497950000000  0.5212870000000  0.5336610000000 1.0
C      1  0.4483770000000  0.4961410000000  0.4474140000000 1.0
C      1  0.4823030000000  0.5052300000000  0.5320080000000 1.0
C      1  0.4445050000000  0.4753620000000  0.5444550000000 1.0
C      1  0.4813160000000  0.5215700000000  0.5114690000000 1.0
C      1  0.5032740000000  0.5335940000000  0.4335060000000 1.0
C      1  0.5328630000000  0.4994110000000  0.4638330000000 1.0
C      1  0.4883750000000  0.5805750000000  0.4926500000000 1.0
C      1  0.4396620000000  0.4998360000000  0.5581650000000 1.0
C      1  0.5542470000000  0.4523110000000  0.5167940000000 1.0
C      1  0.5509500000000  0.4671640000000  0.4422190000000 1.0
C      1  0.5596950000000  0.5218500000000  0.5070620000000 1.0
C      1  0.4443200000000  0.5376250000000  0.5324920000000 1.0
C      1  0.5093050000000  0.5135760000000  0.5710980000000 1.0
C      1  0.4977820000000  0.5079090000000  0.4930760000000 1.0
C      1  0.5671220000000  0.4944630000000  0.5026240000000 1.0
C      1  0.5386660000000  0.4834200000000  0.4886190000000 1.0
C      1  0.5184560000000  0.5201110000000  0.4787800000000 1.0
C      1  0.5166950000000  0.4355730000000  0.4593490000000 1.0
C      1  0.4682680000000  0.5634690000000  0.4879750000000 1.0
C      1  0.4906830000000  0.5734030000000  0.5359070000000 1.0
C      1  0.4845540000000  0.4742180000000  0.5717930000000 1.0
C      1  0.4308050000000  0.5122400000000  0.5332880000000 1.0
C      1  0.4488550000000  0.4583750000000  0.4745890000000 1.0
C      1  0.5402100000000  0.5381820000000  0.4906490000000 1.0
C      1  0.5490100000000  0.5404690000000  0.4583580000000 1.0
C      1  0.4371770000000  0.4810490000000  0.4904650000000 1.0
C      1  0.5614410000000  0.4784410000000  0.5266720000000 1.0
C      1  0.5312730000000  0.5419210000000  0.5379010000000 1.0
C      1  0.4613860000000  0.5400390000000  0.5559610000000 1.0
C      1  0.4439680000000  0.5300360000000  0.4806680000000 1.0
C      1  0.4698760000000  0.4395300000000  0.4812860000000 1.0
C      1  0.4676820000000  0.4605240000000  0.5526080000000 1.0
C      1  0.5769950000000  0.4773590000000  0.4798960000000 1.0
C      1  0.5709740000000  0.4868010000000  0.4535300000000 1.0
C      1  0.5285580000000  0.5555380000000  0.5127390000000 1.0
C      1  0.5582140000000  0.5130090000000  0.4543500000000 1.0
C      1  0.4868200000000  0.5534230000000  0.5535630000000 1.0
C      1  0.4381120000000  0.5040420000000  0.4729020000000 1.0
C      1  0.5110250000000  0.5387940000000  0.5581830000000 1.0
C      1  0.4652780000000  0.5130520000000  0.4332690000000 1.0
C      1  0.4336480000000  0.4863880000000  0.5184670000000 1.0
C      1  0.5161630000000  0.4865400000000  0.5068260000000 1.0
C      1  0.4743360000000  0.5391460000000  0.4421120000000 1.0
C      1  0.5270540000000  0.4919640000000  0.5639030000000 1.0
C      1  0.4594180000000  0.5159530000000  0.5715100000000 1.0
C      1  0.4861280000000  0.4855790000000  0.4783230000000 1.0
C      1  0.4839620000000  0.4448060000000  0.5057090000000 1.0
C      1  0.5063570000000  0.5735270000000  0.5128090000000 1.0
C      1  0.4576060000000  0.5402630000000  0.5060460000000 1.0
C      1  0.5124190000000  0.4473640000000  0.5449180000000 1.0
C      1  0.5485170000000  0.4954080000000  0.5454420000000 1.0
C      1  0.5001810000000  0.4661810000000  0.4945040000000 1.0
C      1  0.4897710000000  0.4399040000000  0.4583400000000 1.0
C      1  0.5003010000000  0.4795590000000  0.4300030000000 1.0
C      1  0.5555240000000  0.4558640000000  0.4862800000000 1.0
C      1  0.5267840000000  0.4825990000000  0.4400510000000 1.0
C      1  0.4849220000000  0.4450280000000  0.5342460000000 1.0
C      1  0.5115340000000  0.4680900000000  0.5651920000000 1.0
C      1  0.4600070000000  0.5480910000000  0.4645390000000 1.0
C      1  0.4806360000000  0.4599960000000  0.4394340000000 1.0
C      1  0.4833420000000  0.5020850000000  0.5787240000000 1.0
C      1  0.5425990000000  0.4449510000000  0.4607180000000 1.0
C      1  0.5278310000000  0.5439930000000  0.4399630000000 1.0
C      1  0.5352060000000  0.4410590000000  0.5318650000000 1.0
END
