TITL C-89217-2658-7 -0.0886171146225588 125000 -467.832669673161 0 0 69 (C1) n - 1
REM
REM in /rds/project/t2_vol4/rds-t2-cs072/BORA/CARBON/from-Arr/AIRSS/Generating-Clusters/GAP-ML-2020/Only-C1/SD-CG/HFTN-CG
REM
REM
REM
REM
REM
REM ./C.cell (11c1c37f851c82e70ff6c80c92926a4b)
REM AIRSS Version 0.9.1 bugfix July 2018 build 013d7b7c2542+ Fri, 06 Jul 2018 19:26:36 +0100
REM compiler GCC version 9.3.0
REM options -cpp -mtune=generic -march=x86-64 -g -O0
REM seed -1723117116 -207206639 -954107996 343221390 520362977 1553074785 -482605724 -979132190 -1050522019 781034686 -1737143781 559180319 1426360154 -237012941 63495645 -1269159614 61266856 877647339 39646410 972155034 -995014122 554140328 -1166923313 -1701374906 -204673985 388091118 -1994927086 324596364 -1796440642 390759658 -1757703313 -958830383 -17433588
REM
CELL 1.54180   50.00000   50.00000   50.00000   90.00000   90.00000   90.00000
LATT -1
SFAC C  
C      1  0.4947910000000  0.5745190000000  0.5304270000000 1.0
C      1  0.5448730000000  0.5663760000000  0.4696280000000 1.0
C      1  0.5597260000000  0.4528730000000  0.4617430000000 1.0
C      1  0.4745490000000  0.4433680000000  0.5401840000000 1.0
C      1  0.5630340000000  0.5374330000000  0.5079860000000 1.0
C      1  0.4549380000000  0.5170670000000  0.4426310000000 1.0
C      1  0.4457990000000  0.5094370000000  0.5540170000000 1.0
C      1  0.4685490000000  0.5239290000000  0.5644860000000 1.0
C      1  0.5474500000000  0.4506550000000  0.5162660000000 1.0
C      1  0.5512360000000  0.4903790000000  0.5453270000000 1.0
C      1  0.4425660000000  0.4628560000000  0.4645250000000 1.0
C      1  0.5248510000000  0.4921530000000  0.4311130000000 1.0
C      1  0.5148910000000  0.4229890000000  0.5417120000000 1.0
C      1  0.4483960000000  0.5218990000000  0.5056950000000 1.0
C      1  0.5407710000000  0.5413110000000  0.5255700000000 1.0
C      1  0.5356640000000  0.5150500000000  0.5493780000000 1.0
C      1  0.5107920000000  0.4808910000000  0.5255120000000 1.0
C      1  0.4765530000000  0.5483720000000  0.5541590000000 1.0
C      1  0.4891750000000  0.5035840000000  0.5659790000000 1.0
C      1  0.5576600000000  0.5453920000000  0.4801400000000 1.0
C      1  0.4836490000000  0.4606210000000  0.4916350000000 1.0
C      1  0.5017200000000  0.4821280000000  0.4755810000000 1.0
C      1  0.5673280000000  0.5095110000000  0.5061570000000 1.0
C      1  0.4568960000000  0.4656720000000  0.5306620000000 1.0
C      1  0.4895480000000  0.4541360000000  0.5614960000000 1.0
C      1  0.5236760000000  0.4809400000000  0.4967930000000 1.0
C      1  0.5686590000000  0.4710300000000  0.4804750000000 1.0
C      1  0.4310700000000  0.4807410000000  0.4851590000000 1.0
C      1  0.4795580000000  0.5281820000000  0.4552690000000 1.0
C      1  0.4358810000000  0.5170850000000  0.5303510000000 1.0
C      1  0.5171230000000  0.5310750000000  0.4813210000000 1.0
C      1  0.4397220000000  0.4633310000000  0.5071040000000 1.0
C      1  0.4964930000000  0.5241130000000  0.5230450000000 1.0
C      1  0.4332690000000  0.5091180000000  0.4827250000000 1.0
C      1  0.5503500000000  0.4958110000000  0.4857270000000 1.0
C      1  0.4954280000000  0.5717560000000  0.4800040000000 1.0
C      1  0.5047850000000  0.5561000000000  0.5517790000000 1.0
C      1  0.5305440000000  0.5178850000000  0.4426300000000 1.0
C      1  0.4824740000000  0.4858840000000  0.4146730000000 1.0
C      1  0.5088970000000  0.5055400000000  0.5431340000000 1.0
C      1  0.4866820000000  0.4646710000000  0.4344910000000 1.0
C      1  0.5178480000000  0.4462750000000  0.5572050000000 1.0
C      1  0.5328750000000  0.4509420000000  0.4642730000000 1.0
C      1  0.4570360000000  0.4930510000000  0.4268770000000 1.0
C      1  0.5068930000000  0.5696890000000  0.5066530000000 1.0
C      1  0.5715330000000  0.4893200000000  0.5251530000000 1.0
C      1  0.5307400000000  0.5437970000000  0.5521290000000 1.0
C      1  0.5182960000000  0.5609510000000  0.4665800000000 1.0
C      1  0.4739930000000  0.5536350000000  0.4771120000000 1.0
C      1  0.5425410000000  0.5202070000000  0.4691290000000 1.0
C      1  0.4791250000000  0.5080340000000  0.5053900000000 1.0
C      1  0.4939740000000  0.4283240000000  0.5245390000000 1.0
C      1  0.4772930000000  0.4780900000000  0.5694480000000 1.0
C      1  0.4814410000000  0.4789710000000  0.5153530000000 1.0
C      1  0.5025630000000  0.5263060000000  0.4349430000000 1.0
C      1  0.4326890000000  0.5206480000000  0.4581450000000 1.0
C      1  0.5163960000000  0.5415530000000  0.5088830000000 1.0
C      1  0.4690000000000  0.5611860000000  0.5279850000000 1.0
C      1  0.5271260000000  0.4496010000000  0.4943400000000 1.0
C      1  0.5010800000000  0.4399310000000  0.5005710000000 1.0
C      1  0.4559950000000  0.4506990000000  0.4864720000000 1.0
C      1  0.4578780000000  0.4678770000000  0.4423140000000 1.0
C      1  0.5707640000000  0.4644190000000  0.5084470000000 1.0
C      1  0.5334490000000  0.4647050000000  0.5400690000000 1.0
C      1  0.5128760000000  0.4699790000000  0.4497130000000 1.0
C      1  0.4594640000000  0.5498130000000  0.5017760000000 1.0
C      1  0.5025840000000  0.5042020000000  0.4160750000000 1.0
C      1  0.4520460000000  0.4811420000000  0.5555190000000 1.0
C      1  0.4924850000000  0.5107890000000  0.4782180000000 1.0
END
