TITL C-89224-3874-5 -117.192121512576 125000 -161.995857695244 0 0 25 (C1) n - 1
REM
REM in /rds/project/t2_vol4/rds-t2-cs072/BORA/CARBON/from-Arr/AIRSS/Generating-Clusters/GAP-ML-2020/Only-C1/SD-CG/HFTN-CG
REM
REM
REM
REM
REM
REM ./C.cell (11c1c37f851c82e70ff6c80c92926a4b)
REM AIRSS Version 0.9.1 bugfix July 2018 build 013d7b7c2542+ Fri, 06 Jul 2018 19:26:36 +0100
REM compiler GCC version 9.3.0
REM options -cpp -mtune=generic -march=x86-64 -g -O0
REM seed 2068048603 1110958935 1026066648 -868445515 -1201872629 655833849 -1669036106 -529606904 322869522 67007201 -920643631 -688097111 -580172719 -848596333 -299730773 463910238 397650450 224450188 -391847759 -1993273819 -945299923 962975674 652767505 768828058 -1893033239 1856574842 -1644668396 -1611296888 1643425435 1611785111 192855656 -947268979 -991395705
REM
CELL 1.54180   50.00000   50.00000   50.00000   90.00000   90.00000   90.00000
LATT -1
SFAC C  
C      1  0.5331740000000  0.4789340000000  0.5413900000000 1.0
C      1  0.5141770000000  0.4614930000000  0.5435310000000 1.0
C      1  0.5583710000000  0.4982910000000  0.4837080000000 1.0
C      1  0.4799730000000  0.4957810000000  0.5392250000000 1.0
C      1  0.5383910000000  0.5167630000000  0.4882760000000 1.0
C      1  0.4482800000000  0.4902050000000  0.4800720000000 1.0
C      1  0.4911190000000  0.5203400000000  0.4645990000000 1.0
C      1  0.5373980000000  0.4727740000000  0.4501380000000 1.0
C      1  0.4731570000000  0.4535510000000  0.4859700000000 1.0
C      1  0.5200520000000  0.5182730000000  0.4645650000000 1.0
C      1  0.5011160000000  0.5090680000000  0.5542230000000 1.0
C      1  0.4709330000000  0.5312490000000  0.4786990000000 1.0
C      1  0.4864140000000  0.5490560000000  0.5220500000000 1.0
C      1  0.5176010000000  0.4912830000000  0.4503450000000 1.0
C      1  0.5105960000000  0.5461420000000  0.5144530000000 1.0
C      1  0.4787700000000  0.4558810000000  0.5104540000000 1.0
C      1  0.4577610000000  0.5108570000000  0.4953800000000 1.0
C      1  0.4885400000000  0.4927470000000  0.4536000000000 1.0
C      1  0.5574840000000  0.4789070000000  0.4669810000000 1.0
C      1  0.4637100000000  0.5405850000000  0.5320000000000 1.0
C      1  0.4871650000000  0.4673720000000  0.5337970000000 1.0
C      1  0.4696240000000  0.4765040000000  0.4688480000000 1.0
C      1  0.4622580000000  0.5126810000000  0.5239200000000 1.0
C      1  0.5286580000000  0.5243660000000  0.5151600000000 1.0
C      1  0.5252790000000  0.5068960000000  0.5386170000000 1.0
END
