TITL C-89235-2895-8 -168.285890699214 125000 -916.204813889037 0 0 134 (C1) n - 1
REM
REM in /rds/project/t2_vol4/rds-t2-cs072/BORA/CARBON/from-Arr/AIRSS/Generating-Clusters/GAP-ML-2020/Only-C1/SD-CG/HFTN-CG
REM
REM
REM
REM
REM
REM ./C.cell (11c1c37f851c82e70ff6c80c92926a4b)
REM AIRSS Version 0.9.1 bugfix July 2018 build 013d7b7c2542+ Fri, 06 Jul 2018 19:26:36 +0100
REM compiler GCC version 9.3.0
REM options -cpp -mtune=generic -march=x86-64 -g -O0
REM seed -167367500 -1854779388 -902124848 -1628013754 -687884203 880221322 1573400986 -754721521 -680902901 -497587082 611490602 1882057413 -1264284557 -955456905 1586699146 -670326148 -712592395 -867771482 1287476113 -369977684 -1990630922 451096835 -1511767552 72208362 -1502310225 -1617596034 -720677037 852961526 -333913029 -1731891347 -1315448106 2109388007 -1088130859
REM
CELL 1.54180   50.00000   50.00000   50.00000   90.00000   90.00000   90.00000
LATT -1
SFAC C  
C      1  0.5054860000000  0.5079650000000  0.6038090000000 1.0
C      1  0.4632380000000  0.4885220000000  0.5393570000000 1.0
C      1  0.5939830000000  0.5261390000000  0.4779170000000 1.0
C      1  0.5383510000000  0.4943440000000  0.4261290000000 1.0
C      1  0.5129500000000  0.5390640000000  0.4209210000000 1.0
C      1  0.5372080000000  0.4906690000000  0.5425330000000 1.0
C      1  0.5066930000000  0.5968320000000  0.5189790000000 1.0
C      1  0.4802040000000  0.5354410000000  0.5444700000000 1.0
C      1  0.4150900000000  0.5201290000000  0.5258950000000 1.0
C      1  0.4582020000000  0.5403730000000  0.4805170000000 1.0
C      1  0.4297450000000  0.5493820000000  0.5253000000000 1.0
C      1  0.4778580000000  0.5030840000000  0.4929250000000 1.0
C      1  0.4634220000000  0.5278220000000  0.4090260000000 1.0
C      1  0.4535090000000  0.4991750000000  0.4143170000000 1.0
C      1  0.5363510000000  0.4303760000000  0.5519200000000 1.0
C      1  0.5521450000000  0.4667740000000  0.5013310000000 1.0
C      1  0.5262210000000  0.4496310000000  0.5044490000000 1.0
C      1  0.5232460000000  0.5004530000000  0.4888810000000 1.0
C      1  0.4606960000000  0.5424460000000  0.5225210000000 1.0
C      1  0.5132800000000  0.4268730000000  0.4446470000000 1.0
C      1  0.4914490000000  0.4865830000000  0.5333900000000 1.0
C      1  0.5657950000000  0.5728270000000  0.5154440000000 1.0
C      1  0.6122080000000  0.4924090000000  0.5155750000000 1.0
C      1  0.4571050000000  0.5207110000000  0.5013470000000 1.0
C      1  0.4996930000000  0.5998400000000  0.4897680000000 1.0
C      1  0.4641890000000  0.4457870000000  0.5708660000000 1.0
C      1  0.5995780000000  0.5067800000000  0.5349210000000 1.0
C      1  0.5840660000000  0.4868300000000  0.5507500000000 1.0
C      1  0.4255820000000  0.5812500000000  0.4820240000000 1.0
C      1  0.5715950000000  0.5448750000000  0.4687710000000 1.0
C      1  0.5254410000000  0.5553850000000  0.4837830000000 1.0
C      1  0.4419780000000  0.4181550000000  0.4625190000000 1.0
C      1  0.5004800000000  0.5594100000000  0.5498030000000 1.0
C      1  0.4888290000000  0.5418460000000  0.4538700000000 1.0
C      1  0.5178540000000  0.5786660000000  0.4475810000000 1.0
C      1  0.5979710000000  0.4784340000000  0.4976470000000 1.0
C      1  0.4402100000000  0.4535750000000  0.5575960000000 1.0
C      1  0.4860720000000  0.4285030000000  0.5625270000000 1.0
C      1  0.4969240000000  0.4116500000000  0.4886270000000 1.0
C      1  0.5796250000000  0.4567160000000  0.5095130000000 1.0
C      1  0.5458480000000  0.5352020000000  0.4821010000000 1.0
C      1  0.5045650000000  0.5474940000000  0.5017760000000 1.0
C      1  0.4216070000000  0.4958760000000  0.5391410000000 1.0
C      1  0.4891720000000  0.5862640000000  0.5408610000000 1.0
C      1  0.4910480000000  0.4295400000000  0.5334350000000 1.0
C      1  0.4795100000000  0.4549060000000  0.4740950000000 1.0
C      1  0.5618210000000  0.4427810000000  0.5526540000000 1.0
C      1  0.5327710000000  0.5572670000000  0.4343120000000 1.0
C      1  0.5804710000000  0.5635320000000  0.4922820000000 1.0
C      1  0.5259930000000  0.4214800000000  0.4888620000000 1.0
C      1  0.5493600000000  0.4146870000000  0.5070150000000 1.0
C      1  0.5314020000000  0.5160340000000  0.4647050000000 1.0
C      1  0.4763720000000  0.5573840000000  0.4979700000000 1.0
C      1  0.4779800000000  0.4851070000000  0.4174150000000 1.0
C      1  0.5605990000000  0.4957990000000  0.5628420000000 1.0
C      1  0.5358870000000  0.4250290000000  0.4620150000000 1.0
C      1  0.5538840000000  0.4680620000000  0.4708400000000 1.0
C      1  0.4904930000000  0.5358610000000  0.4047450000000 1.0
C      1  0.4820810000000  0.4565710000000  0.4185110000000 1.0
C      1  0.5597820000000  0.4382350000000  0.4686390000000 1.0
C      1  0.5517080000000  0.5207770000000  0.5082340000000 1.0
C      1  0.5346050000000  0.5832180000000  0.5174120000000 1.0
C      1  0.4723100000000  0.4467060000000  0.5174710000000 1.0
C      1  0.5696690000000  0.5512030000000  0.5337700000000 1.0
C      1  0.5429050000000  0.4932890000000  0.5114350000000 1.0
C      1  0.5022010000000  0.5179860000000  0.5025280000000 1.0
C      1  0.4731850000000  0.4986460000000  0.4631800000000 1.0
C      1  0.5212970000000  0.5985930000000  0.4701450000000 1.0
C      1  0.4569940000000  0.4736530000000  0.4680040000000 1.0
C      1  0.4053110000000  0.5166580000000  0.4989710000000 1.0
C      1  0.5070720000000  0.4643390000000  0.5776100000000 1.0
C      1  0.4924970000000  0.5288030000000  0.5898580000000 1.0
C      1  0.4117970000000  0.5345200000000  0.4557410000000 1.0
C      1  0.5423960000000  0.5373330000000  0.5322980000000 1.0
C      1  0.4172860000000  0.5058420000000  0.4530690000000 1.0
C      1  0.4912650000000  0.4129950000000  0.4566810000000 1.0
C      1  0.5180260000000  0.4776140000000  0.4387570000000 1.0
C      1  0.4640530000000  0.5283930000000  0.4555830000000 1.0
C      1  0.4289260000000  0.4324730000000  0.5063960000000 1.0
C      1  0.4198540000000  0.4496050000000  0.4862080000000 1.0
C      1  0.4324340000000  0.4891890000000  0.4331190000000 1.0
C      1  0.5102360000000  0.5480100000000  0.5769780000000 1.0
C      1  0.5543660000000  0.5094890000000  0.4429120000000 1.0
C      1  0.4615710000000  0.5860060000000  0.5463330000000 1.0
C      1  0.5213180000000  0.5574040000000  0.5272100000000 1.0
C      1  0.4852530000000  0.4753210000000  0.5071660000000 1.0
C      1  0.4477540000000  0.4168500000000  0.4904130000000 1.0
C      1  0.5574240000000  0.5425540000000  0.4423700000000 1.0
C      1  0.5081220000000  0.5228230000000  0.4448840000000 1.0
C      1  0.5057370000000  0.4654140000000  0.4878570000000 1.0
C      1  0.5157020000000  0.4817420000000  0.6003640000000 1.0
C      1  0.5989280000000  0.5423060000000  0.5009390000000 1.0
C      1  0.5916030000000  0.4977790000000  0.4763210000000 1.0
C      1  0.4274830000000  0.5532510000000  0.4408860000000 1.0
C      1  0.5262230000000  0.5176650000000  0.5464780000000 1.0
C      1  0.5166500000000  0.3915960000000  0.5311880000000 1.0
C      1  0.4609420000000  0.4935970000000  0.5695810000000 1.0
C      1  0.4720940000000  0.5214190000000  0.5717250000000 1.0
C      1  0.4919390000000  0.5698330000000  0.4547490000000 1.0
C      1  0.4962970000000  0.4032290000000  0.5177980000000 1.0
C      1  0.5937120000000  0.5348160000000  0.5276780000000 1.0
C      1  0.4605210000000  0.4430500000000  0.4296440000000 1.0
C      1  0.4377810000000  0.4787530000000  0.5210060000000 1.0
C      1  0.5394680000000  0.4068780000000  0.5334180000000 1.0
C      1  0.4497370000000  0.5915300000000  0.4711770000000 1.0
C      1  0.4413460000000  0.5695940000000  0.5429790000000 1.0
C      1  0.4143150000000  0.4969970000000  0.4798860000000 1.0
C      1  0.4764910000000  0.4693550000000  0.5794670000000 1.0
C      1  0.4324630000000  0.4767860000000  0.4897860000000 1.0
C      1  0.4337320000000  0.4829460000000  0.5636070000000 1.0
C      1  0.4651020000000  0.4195290000000  0.4459210000000 1.0
C      1  0.4779120000000  0.5828080000000  0.4785230000000 1.0
C      1  0.4738550000000  0.4309740000000  0.4922550000000 1.0
C      1  0.5328770000000  0.5326600000000  0.5707780000000 1.0
C      1  0.4943890000000  0.4961440000000  0.4398020000000 1.0
C      1  0.5335840000000  0.5030060000000  0.6037450000000 1.0
C      1  0.5174790000000  0.4455390000000  0.5326160000000 1.0
C      1  0.5138760000000  0.4716030000000  0.5471840000000 1.0
C      1  0.4505340000000  0.5399540000000  0.4312050000000 1.0
C      1  0.4997760000000  0.5151490000000  0.5324570000000 1.0
C      1  0.5119040000000  0.4344160000000  0.5737950000000 1.0
C      1  0.5353590000000  0.5834200000000  0.4882470000000 1.0
C      1  0.5247170000000  0.4779990000000  0.4687360000000 1.0
C      1  0.4418900000000  0.4494200000000  0.5280190000000 1.0
C      1  0.4258550000000  0.4412730000000  0.4596250000000 1.0
C      1  0.4168790000000  0.5601650000000  0.4991950000000 1.0
C      1  0.4307560000000  0.5784240000000  0.4546880000000 1.0
C      1  0.4406430000000  0.4617350000000  0.4435660000000 1.0
C      1  0.5499310000000  0.5135080000000  0.5840450000000 1.0
C      1  0.5701630000000  0.4303760000000  0.4954300000000 1.0
C      1  0.5075800000000  0.4509210000000  0.4293920000000 1.0
C      1  0.5705970000000  0.4902090000000  0.4593180000000 1.0
C      1  0.4048640000000  0.5401300000000  0.4834430000000 1.0
C      1  0.5793130000000  0.4589710000000  0.5403600000000 1.0
END
