TITL C-89224-3874-8 -0.0371501126509389 125000 -87.21405507452 0 0 14 (C1) n - 1
REM
REM in /rds/project/t2_vol4/rds-t2-cs072/BORA/CARBON/from-Arr/AIRSS/Generating-Clusters/GAP-ML-2020/Only-C1/SD-CG/HFTN-CG
REM
REM
REM
REM
REM
REM ./C.cell (11c1c37f851c82e70ff6c80c92926a4b)
REM AIRSS Version 0.9.1 bugfix July 2018 build 013d7b7c2542+ Fri, 06 Jul 2018 19:26:36 +0100
REM compiler GCC version 9.3.0
REM options -cpp -mtune=generic -march=x86-64 -g -O0
REM seed -224446566 -1942985845 -1198257570 -456756794 -1130186519 878065140 1642773558 1160564971 -1678720110 1803449937 -1446343312 -1811638724 732364472 95532929 2069355110 -1719377033 428795137 -1330767688 1763827713 -1933672952 1053762232 -1314200571 -1682250908 -961172544 -220224063 -227719656 -1263646739 -1208745740 88894717 -557011934 831397386 1871006676 -1381724227
REM
CELL 1.54180   50.00000   50.00000   50.00000   90.00000   90.00000   90.00000
LATT -1
SFAC C  
C      1  0.4647790000000  0.4905700000000  0.4956910000000 1.0
C      1  0.5717450000000  0.5236890000000  0.5117610000000 1.0
C      1  0.4902950000000  0.5162310000000  0.5280040000000 1.0
C      1  0.5235140000000  0.5233040000000  0.5663920000000 1.0
C      1  0.5283250000000  0.5193360000000  0.4844530000000 1.0
C      1  0.4834760000000  0.5100040000000  0.5030570000000 1.0
C      1  0.4757530000000  0.4562950000000  0.4639930000000 1.0
C      1  0.4623680000000  0.4665520000000  0.5085890000000 1.0
C      1  0.5512100000000  0.5218670000000  0.4953730000000 1.0
C      1  0.4912560000000  0.5017610000000  0.4570930000000 1.0
C      1  0.5045370000000  0.5211050000000  0.5483830000000 1.0
C      1  0.5023790000000  0.5131550000000  0.4804530000000 1.0
C      1  0.4777030000000  0.4519460000000  0.4906800000000 1.0
C      1  0.4726620000000  0.4841850000000  0.4660780000000 1.0
END
