TITL C-89227-3224-6 77.8703836791367 125000 -659.1068780086 0 0 95 (C1) n - 1
REM
REM in /rds/project/t2_vol4/rds-t2-cs072/BORA/CARBON/from-Arr/AIRSS/Generating-Clusters/GAP-ML-2020/Only-C1/SD-CG/HFTN-CG
REM
REM
REM
REM
REM
REM ./C.cell (11c1c37f851c82e70ff6c80c92926a4b)
REM AIRSS Version 0.9.1 bugfix July 2018 build 013d7b7c2542+ Fri, 06 Jul 2018 19:26:36 +0100
REM compiler GCC version 9.3.0
REM options -cpp -mtune=generic -march=x86-64 -g -O0
REM seed 307104268 1962103911 811564112 2144415240 -1291487849 -1081637929 -205004838 -944320488 1339184766 -1363432258 -113342555 770251207 1003328680 2141352701 -1730540164 532298168 670731273 -279659491 -797108799 -1032427440 -1184394527 896769318 -561537298 -1732024660 1652566431 -1760124999 1928899593 1587596972 1428498136 1250390674 1653746786 677644124 -96897746
REM
CELL 1.54180   50.00000   50.00000   50.00000   90.00000   90.00000   90.00000
LATT -1
SFAC C  
C      1  0.4524640000000  0.5156690000000  0.5460600000000 1.0
C      1  0.4360750000000  0.4920960000000  0.5523790000000 1.0
C      1  0.4248550000000  0.4718950000000  0.4797130000000 1.0
C      1  0.4877410000000  0.4261600000000  0.5390860000000 1.0
C      1  0.4260180000000  0.5333680000000  0.4757350000000 1.0
C      1  0.5158040000000  0.5097710000000  0.5153130000000 1.0
C      1  0.5354320000000  0.4679800000000  0.5358880000000 1.0
C      1  0.4808600000000  0.5093890000000  0.4204380000000 1.0
C      1  0.5249890000000  0.5858000000000  0.4954470000000 1.0
C      1  0.4269980000000  0.4774570000000  0.5286170000000 1.0
C      1  0.5604550000000  0.4793280000000  0.4868230000000 1.0
C      1  0.4851140000000  0.5475110000000  0.5398810000000 1.0
C      1  0.4623470000000  0.5773470000000  0.5061670000000 1.0
C      1  0.5718750000000  0.4885010000000  0.5120280000000 1.0
C      1  0.4516950000000  0.4364620000000  0.4943890000000 1.0
C      1  0.5073180000000  0.4867450000000  0.4979440000000 1.0
C      1  0.5299950000000  0.4423550000000  0.4843290000000 1.0
C      1  0.5098370000000  0.5661000000000  0.5387330000000 1.0
C      1  0.5498020000000  0.5163920000000  0.4289690000000 1.0
C      1  0.5296660000000  0.4855130000000  0.4775440000000 1.0
C      1  0.5554580000000  0.5612730000000  0.5168280000000 1.0
C      1  0.4591390000000  0.5564980000000  0.5258410000000 1.0
C      1  0.5649440000000  0.5156170000000  0.5471660000000 1.0
C      1  0.4632040000000  0.4561850000000  0.4532370000000 1.0
C      1  0.5404090000000  0.4910500000000  0.5776740000000 1.0
C      1  0.4612860000000  0.4874450000000  0.5026880000000 1.0
C      1  0.4919000000000  0.4411240000000  0.5623780000000 1.0
C      1  0.5200970000000  0.4532320000000  0.5132670000000 1.0
C      1  0.5193320000000  0.4732750000000  0.5854180000000 1.0
C      1  0.4421620000000  0.4531680000000  0.5382910000000 1.0
C      1  0.5131690000000  0.5719580000000  0.4699870000000 1.0
C      1  0.5243540000000  0.5142290000000  0.4697950000000 1.0
C      1  0.5029000000000  0.4007080000000  0.4738160000000 1.0
C      1  0.4599480000000  0.5731850000000  0.4769220000000 1.0
C      1  0.4941200000000  0.4859140000000  0.5832350000000 1.0
C      1  0.5661060000000  0.5267530000000  0.4721010000000 1.0
C      1  0.5726050000000  0.5154490000000  0.5199070000000 1.0
C      1  0.4913550000000  0.4824230000000  0.5396230000000 1.0
C      1  0.5066470000000  0.5876340000000  0.5191160000000 1.0
C      1  0.4894850000000  0.4707010000000  0.4542770000000 1.0
C      1  0.5160350000000  0.4219710000000  0.5212750000000 1.0
C      1  0.5591130000000  0.4920550000000  0.4408860000000 1.0
C      1  0.4630520000000  0.4310020000000  0.4676360000000 1.0
C      1  0.5369310000000  0.5560810000000  0.5401590000000 1.0
C      1  0.5174770000000  0.4461130000000  0.5745430000000 1.0
C      1  0.4842950000000  0.5764900000000  0.4612550000000 1.0
C      1  0.5422520000000  0.4256920000000  0.5341630000000 1.0
C      1  0.4780230000000  0.4681590000000  0.5653710000000 1.0
C      1  0.5128680000000  0.5511800000000  0.4914740000000 1.0
C      1  0.4837900000000  0.4917100000000  0.4799110000000 1.0
C      1  0.4312540000000  0.4913460000000  0.5020580000000 1.0
C      1  0.4814530000000  0.5954240000000  0.5134570000000 1.0
C      1  0.5249460000000  0.5144810000000  0.5675780000000 1.0
C      1  0.5512310000000  0.5852140000000  0.5045740000000 1.0
C      1  0.4417840000000  0.5340800000000  0.5253190000000 1.0
C      1  0.5212850000000  0.4616380000000  0.4608860000000 1.0
C      1  0.4804300000000  0.5620850000000  0.4375290000000 1.0
C      1  0.5198170000000  0.4837490000000  0.4204880000000 1.0
C      1  0.5704550000000  0.4982550000000  0.4660380000000 1.0
C      1  0.5367520000000  0.4436020000000  0.5554770000000 1.0
C      1  0.4814230000000  0.4103920000000  0.4630890000000 1.0
C      1  0.5438530000000  0.5336500000000  0.5557610000000 1.0
C      1  0.5262550000000  0.5575140000000  0.4472240000000 1.0
C      1  0.5194010000000  0.4937330000000  0.5409140000000 1.0
C      1  0.5654740000000  0.4704390000000  0.5334030000000 1.0
C      1  0.4681980000000  0.4585840000000  0.5080150000000 1.0
C      1  0.5383070000000  0.4717400000000  0.4384640000000 1.0
C      1  0.5185440000000  0.4154950000000  0.4915770000000 1.0
C      1  0.5632070000000  0.4420940000000  0.5197600000000 1.0
C      1  0.4157400000000  0.5166290000000  0.4554210000000 1.0
C      1  0.4289930000000  0.5215800000000  0.5025080000000 1.0
C      1  0.4562150000000  0.5463200000000  0.4389210000000 1.0
C      1  0.4620630000000  0.4361550000000  0.5260720000000 1.0
C      1  0.5052840000000  0.5517050000000  0.4284740000000 1.0
C      1  0.5576130000000  0.4491890000000  0.4925430000000 1.0
C      1  0.4431250000000  0.5539490000000  0.4634930000000 1.0
C      1  0.4493660000000  0.4684870000000  0.5620730000000 1.0
C      1  0.5630070000000  0.4894670000000  0.5584080000000 1.0
C      1  0.5267160000000  0.5106690000000  0.4140220000000 1.0
C      1  0.4955930000000  0.4661290000000  0.5152520000000 1.0
C      1  0.5451610000000  0.5341950000000  0.4513310000000 1.0
C      1  0.4764920000000  0.5288820000000  0.5615860000000 1.0
C      1  0.4927330000000  0.4836950000000  0.4276630000000 1.0
C      1  0.4723540000000  0.5024170000000  0.5267460000000 1.0
C      1  0.5314860000000  0.5281500000000  0.4962800000000 1.0
C      1  0.4259670000000  0.4466300000000  0.4903600000000 1.0
C      1  0.4366660000000  0.5011560000000  0.4435140000000 1.0
C      1  0.5613390000000  0.5348110000000  0.5010270000000 1.0
C      1  0.4960290000000  0.5143390000000  0.5760440000000 1.0
C      1  0.4401090000000  0.4745810000000  0.4550170000000 1.0
C      1  0.4944210000000  0.5171340000000  0.4719720000000 1.0
C      1  0.4881630000000  0.5362350000000  0.4919220000000 1.0
C      1  0.4903960000000  0.5243050000000  0.5187530000000 1.0
C      1  0.5032290000000  0.5267640000000  0.4153470000000 1.0
C      1  0.4558740000000  0.5188020000000  0.4299160000000 1.0
END
