TITL C-89222-3250-1 68.5762991376945 125000 -255.809043885862 0 0 39 (C1) n - 1
REM
REM in /rds/project/t2_vol4/rds-t2-cs072/BORA/CARBON/from-Arr/AIRSS/Generating-Clusters/GAP-ML-2020/Only-C1/SD-CG/HFTN-CG
REM
REM
REM
REM
REM
REM ./C.cell (11c1c37f851c82e70ff6c80c92926a4b)
REM AIRSS Version 0.9.1 bugfix July 2018 build 013d7b7c2542+ Fri, 06 Jul 2018 19:26:36 +0100
REM compiler GCC version 9.3.0
REM options -cpp -mtune=generic -march=x86-64 -g -O0
REM seed -1637524860 -299770136 1965088837 1455741979 135132851 94057800 -357445380 541534362 386859946 1930656645 2028808306 -1263446155 -1109704110 -1114335104 -1326030392 -1174624463 1431283663 -1665648793 1727482512 598540130 966610827 -1361961166 925308487 -1925495189 1639030343 361276487 -1340738296 987112542 -1225300672 1665291394 434825173 871433218 1120961824
REM
CELL 1.54180   50.00000   50.00000   50.00000   90.00000   90.00000   90.00000
LATT -1
SFAC C  
C      1  0.4489970000000  0.5000290000000  0.4856320000000 1.0
C      1  0.4756320000000  0.4729060000000  0.4814490000000 1.0
C      1  0.4796660000000  0.5092430000000  0.5596510000000 1.0
C      1  0.4935100000000  0.5103880000000  0.4978610000000 1.0
C      1  0.5376130000000  0.4756750000000  0.4487040000000 1.0
C      1  0.5484890000000  0.5245220000000  0.5289650000000 1.0
C      1  0.5005810000000  0.5007890000000  0.4460680000000 1.0
C      1  0.4751480000000  0.5134010000000  0.4481030000000 1.0
C      1  0.4974580000000  0.4908880000000  0.4736660000000 1.0
C      1  0.5053630000000  0.4880860000000  0.5152850000000 1.0
C      1  0.5077010000000  0.4442840000000  0.5408300000000 1.0
C      1  0.4605030000000  0.5216280000000  0.4693850000000 1.0
C      1  0.5107540000000  0.5344850000000  0.5029540000000 1.0
C      1  0.4504960000000  0.5028520000000  0.5143990000000 1.0
C      1  0.5230960000000  0.5202740000000  0.4504580000000 1.0
C      1  0.5205920000000  0.4406510000000  0.5140090000000 1.0
C      1  0.4574030000000  0.5296400000000  0.5230210000000 1.0
C      1  0.4693540000000  0.5454970000000  0.4832040000000 1.0
C      1  0.5044170000000  0.5396020000000  0.5310460000000 1.0
C      1  0.4635690000000  0.4804180000000  0.5282310000000 1.0
C      1  0.5411970000000  0.4560040000000  0.4676030000000 1.0
C      1  0.5276230000000  0.5360130000000  0.5469030000000 1.0
C      1  0.5163240000000  0.4795170000000  0.4317920000000 1.0
C      1  0.5399920000000  0.5268510000000  0.5022880000000 1.0
C      1  0.5313220000000  0.4566970000000  0.4928610000000 1.0
C      1  0.4505100000000  0.4758230000000  0.4725510000000 1.0
C      1  0.5412540000000  0.5055260000000  0.4835310000000 1.0
C      1  0.5028380000000  0.4677410000000  0.5552870000000 1.0
C      1  0.5220790000000  0.4845180000000  0.4912180000000 1.0
C      1  0.5120440000000  0.5442830000000  0.4575550000000 1.0
C      1  0.5182920000000  0.4869720000000  0.5410810000000 1.0
C      1  0.4802590000000  0.5291160000000  0.5411770000000 1.0
C      1  0.5459530000000  0.5043760000000  0.4562200000000 1.0
C      1  0.5338670000000  0.5085370000000  0.5488070000000 1.0
C      1  0.4987690000000  0.5503540000000  0.4801690000000 1.0
C      1  0.4560890000000  0.5508920000000  0.5057550000000 1.0
C      1  0.4771470000000  0.4823470000000  0.5534140000000 1.0
C      1  0.4822050000000  0.4675270000000  0.5101630000000 1.0
C      1  0.4918890000000  0.4416490000000  0.5187080000000 1.0
END
