TITL C-89223-2526-11 -0.130104527140025 125000 -444.525945425839 0 0 65 (C1) n - 1
REM
REM in /rds/project/t2_vol4/rds-t2-cs072/BORA/CARBON/from-Arr/AIRSS/Generating-Clusters/GAP-ML-2020/Only-C1/SD-CG/HFTN-CG
REM
REM
REM
REM
REM
REM ./C.cell (11c1c37f851c82e70ff6c80c92926a4b)
REM AIRSS Version 0.9.1 bugfix July 2018 build 013d7b7c2542+ Fri, 06 Jul 2018 19:26:36 +0100
REM compiler GCC version 9.3.0
REM options -cpp -mtune=generic -march=x86-64 -g -O0
REM seed -1163635595 583481009 2011016111 717438308 -427160438 -2134026972 -1954995311 312719584 2078534108 691516854 -1686018152 -253470746 329223378 -376088528 889234283 1179020194 -1911066690 1975346557 -942186799 129016234 -2082870292 379772807 474780505 -1676179192 2103754063 -1546296240 230797310 1005550659 -1405085062 394057276 231427732 -993780850 878693183
REM
CELL 1.54180   50.00000   50.00000   50.00000   90.00000   90.00000   90.00000
LATT -1
SFAC C  
C      1  0.4561050000000  0.4388930000000  0.5003510000000 1.0
C      1  0.4674650000000  0.5386320000000  0.5014490000000 1.0
C      1  0.4419220000000  0.5294320000000  0.5082460000000 1.0
C      1  0.5163730000000  0.4745560000000  0.5667110000000 1.0
C      1  0.4366980000000  0.4870820000000  0.5291070000000 1.0
C      1  0.4948570000000  0.4578320000000  0.5566980000000 1.0
C      1  0.4809740000000  0.4808790000000  0.5107510000000 1.0
C      1  0.5293320000000  0.5329620000000  0.4644150000000 1.0
C      1  0.5079710000000  0.5693450000000  0.5519300000000 1.0
C      1  0.4786060000000  0.5010580000000  0.5635790000000 1.0
C      1  0.4395540000000  0.5064090000000  0.4408540000000 1.0
C      1  0.4748450000000  0.4303480000000  0.4803640000000 1.0
C      1  0.4762960000000  0.5021540000000  0.4696240000000 1.0
C      1  0.4822890000000  0.5693920000000  0.4552400000000 1.0
C      1  0.5697080000000  0.5415760000000  0.4920250000000 1.0
C      1  0.4514030000000  0.4659230000000  0.5410700000000 1.0
C      1  0.4908800000000  0.4393700000000  0.5349080000000 1.0
C      1  0.4271520000000  0.5135460000000  0.4892520000000 1.0
C      1  0.5443480000000  0.5083380000000  0.5524110000000 1.0
C      1  0.5638930000000  0.5668740000000  0.5058900000000 1.0
C      1  0.4673210000000  0.4964200000000  0.4411610000000 1.0
C      1  0.4611870000000  0.4846610000000  0.4898050000000 1.0
C      1  0.4649610000000  0.4490610000000  0.4597870000000 1.0
C      1  0.5023460000000  0.4305520000000  0.4867070000000 1.0
C      1  0.5107010000000  0.5215570000000  0.5110130000000 1.0
C      1  0.5498830000000  0.4835010000000  0.4654520000000 1.0
C      1  0.5096000000000  0.5372130000000  0.4867040000000 1.0
C      1  0.5512890000000  0.5499840000000  0.4713020000000 1.0
C      1  0.5639330000000  0.5163940000000  0.5033040000000 1.0
C      1  0.4859980000000  0.5151460000000  0.4301610000000 1.0
C      1  0.5138030000000  0.5124040000000  0.4314720000000 1.0
C      1  0.4690970000000  0.5206300000000  0.5454000000000 1.0
C      1  0.4480310000000  0.4596390000000  0.4814430000000 1.0
C      1  0.4758890000000  0.4663070000000  0.4414410000000 1.0
C      1  0.5052020000000  0.4920420000000  0.5031820000000 1.0
C      1  0.5171710000000  0.5490670000000  0.5662370000000 1.0
C      1  0.5480520000000  0.4646560000000  0.5313470000000 1.0
C      1  0.4955410000000  0.5784450000000  0.4756550000000 1.0
C      1  0.5005790000000  0.5618780000000  0.5261830000000 1.0
C      1  0.4710910000000  0.4738330000000  0.5593970000000 1.0
C      1  0.4284460000000  0.5148410000000  0.4620840000000 1.0
C      1  0.5425520000000  0.4792250000000  0.5563630000000 1.0
C      1  0.5375530000000  0.4396180000000  0.5174970000000 1.0
C      1  0.5662220000000  0.4687690000000  0.5074200000000 1.0
C      1  0.4336610000000  0.4884070000000  0.5009350000000 1.0
C      1  0.4627530000000  0.4427660000000  0.5269490000000 1.0
C      1  0.5405080000000  0.5699910000000  0.4910590000000 1.0
C      1  0.5107640000000  0.4312950000000  0.5147780000000 1.0
C      1  0.5277610000000  0.5029440000000  0.4575040000000 1.0
C      1  0.5144070000000  0.5394910000000  0.4403820000000 1.0
C      1  0.5052850000000  0.5006460000000  0.5725930000000 1.0
C      1  0.5002710000000  0.4651780000000  0.4547340000000 1.0
C      1  0.5407030000000  0.5134950000000  0.5225110000000 1.0
C      1  0.5309210000000  0.4855050000000  0.5167760000000 1.0
C      1  0.5536500000000  0.4462540000000  0.4942520000000 1.0
C      1  0.5166610000000  0.4451380000000  0.4659050000000 1.0
C      1  0.4859220000000  0.5362680000000  0.5244650000000 1.0
C      1  0.4854980000000  0.5420000000000  0.4476680000000 1.0
C      1  0.5108080000000  0.5654180000000  0.4964910000000 1.0
C      1  0.4811850000000  0.5305780000000  0.4761260000000 1.0
C      1  0.5664690000000  0.4912160000000  0.4888270000000 1.0
C      1  0.4445000000000  0.5144400000000  0.5333130000000 1.0
C      1  0.5041240000000  0.4906890000000  0.4713660000000 1.0
C      1  0.5427940000000  0.4552600000000  0.4700660000000 1.0
C      1  0.5242350000000  0.5225760000000  0.5679090000000 1.0
END
