TITL C-89218-3798-3 -218.219499834328 125000 -675.481439902525 0 0 99 (C1) n - 1
REM
REM in /rds/project/t2_vol4/rds-t2-cs072/BORA/CARBON/from-Arr/AIRSS/Generating-Clusters/GAP-ML-2020/Only-C1/SD-CG/HFTN-CG
REM
REM
REM
REM
REM
REM ./C.cell (11c1c37f851c82e70ff6c80c92926a4b)
REM AIRSS Version 0.9.1 bugfix July 2018 build 013d7b7c2542+ Fri, 06 Jul 2018 19:26:36 +0100
REM compiler GCC version 9.3.0
REM options -cpp -mtune=generic -march=x86-64 -g -O0
REM seed -565908355 -1882080003 781434989 -1453633203 647765935 -29962541 1768236348 1444461725 -145877607 -1765314845 1610535516 2132092437 1550103474 -428255476 563637773 -2074031561 -522061143 -1691870889 -1282420898 -157516854 -1437319221 -255976981 -476640876 -487242126 -1766577326 191774341 623903932 134911565 -1857398804 823686076 1209568443 -1440963498 -1624002371
REM
CELL 1.54180   50.00000   50.00000   50.00000   90.00000   90.00000   90.00000
LATT -1
SFAC C  
C      1  0.5115480000000  0.5185960000000  0.5741940000000 1.0
C      1  0.4360780000000  0.4393930000000  0.4907340000000 1.0
C      1  0.5289760000000  0.4424640000000  0.4546750000000 1.0
C      1  0.4944000000000  0.5062760000000  0.5205070000000 1.0
C      1  0.5392270000000  0.4702710000000  0.5658680000000 1.0
C      1  0.5374160000000  0.4977000000000  0.4947670000000 1.0
C      1  0.5735790000000  0.4685630000000  0.5077530000000 1.0
C      1  0.4615200000000  0.5683270000000  0.4559320000000 1.0
C      1  0.5832680000000  0.5080050000000  0.5398720000000 1.0
C      1  0.5031980000000  0.5811470000000  0.4744650000000 1.0
C      1  0.4853680000000  0.5296630000000  0.4246380000000 1.0
C      1  0.5511250000000  0.4481090000000  0.5523710000000 1.0
C      1  0.4787450000000  0.4407100000000  0.5549550000000 1.0
C      1  0.4714280000000  0.5040040000000  0.4216750000000 1.0
C      1  0.4489370000000  0.4169580000000  0.5042250000000 1.0
C      1  0.4884610000000  0.5072130000000  0.4623410000000 1.0
C      1  0.4938350000000  0.5424370000000  0.5638620000000 1.0
C      1  0.4529730000000  0.4547610000000  0.5364510000000 1.0
C      1  0.5217480000000  0.5184810000000  0.5037990000000 1.0
C      1  0.4775660000000  0.4115720000000  0.4971580000000 1.0
C      1  0.5233340000000  0.4770070000000  0.4779740000000 1.0
C      1  0.4809050000000  0.5557540000000  0.4373010000000 1.0
C      1  0.5049680000000  0.4442890000000  0.5650130000000 1.0
C      1  0.5457150000000  0.4788980000000  0.5166420000000 1.0
C      1  0.4705430000000  0.5357910000000  0.4982940000000 1.0
C      1  0.4843490000000  0.4638010000000  0.4474920000000 1.0
C      1  0.4910160000000  0.4800670000000  0.4243620000000 1.0
C      1  0.4512790000000  0.5799800000000  0.4949370000000 1.0
C      1  0.5360160000000  0.4712140000000  0.4510590000000 1.0
C      1  0.4755300000000  0.5833310000000  0.4785210000000 1.0
C      1  0.5307700000000  0.5622280000000  0.5392950000000 1.0
C      1  0.5406630000000  0.4934370000000  0.4068990000000 1.0
C      1  0.4700060000000  0.5086050000000  0.5054530000000 1.0
C      1  0.5676860000000  0.4545010000000  0.4809820000000 1.0
C      1  0.4487450000000  0.4236970000000  0.5320740000000 1.0
C      1  0.4418990000000  0.5699220000000  0.5205480000000 1.0
C      1  0.4389120000000  0.4800610000000  0.5447570000000 1.0
C      1  0.5144930000000  0.4674380000000  0.5791040000000 1.0
C      1  0.5737110000000  0.5250730000000  0.4614790000000 1.0
C      1  0.5330260000000  0.4879100000000  0.5430520000000 1.0
C      1  0.5798270000000  0.5203010000000  0.5152930000000 1.0
C      1  0.5015380000000  0.4606430000000  0.5163860000000 1.0
C      1  0.5437480000000  0.5638120000000  0.5144170000000 1.0
C      1  0.4947590000000  0.4790270000000  0.4730590000000 1.0
C      1  0.4444290000000  0.5260550000000  0.5570620000000 1.0
C      1  0.5214450000000  0.4167690000000  0.5241290000000 1.0
C      1  0.5574920000000  0.5109280000000  0.4155880000000 1.0
C      1  0.5322290000000  0.5148580000000  0.5548690000000 1.0
C      1  0.4385590000000  0.5642100000000  0.4735460000000 1.0
C      1  0.5555320000000  0.5246150000000  0.4402210000000 1.0
C      1  0.4215920000000  0.4491420000000  0.4699000000000 1.0
C      1  0.4249990000000  0.4959630000000  0.4984890000000 1.0
C      1  0.4201740000000  0.5156070000000  0.4779730000000 1.0
C      1  0.5785240000000  0.4988320000000  0.4712460000000 1.0
C      1  0.4240500000000  0.4982590000000  0.5269770000000 1.0
C      1  0.4849350000000  0.5514300000000  0.5188840000000 1.0
C      1  0.5177430000000  0.5368520000000  0.4814890000000 1.0
C      1  0.4254230000000  0.5470890000000  0.5154560000000 1.0
C      1  0.5002130000000  0.4384940000000  0.4546710000000 1.0
C      1  0.5071290000000  0.5685200000000  0.5532580000000 1.0
C      1  0.5674340000000  0.5463040000000  0.5053860000000 1.0
C      1  0.4552760000000  0.4757300000000  0.4601040000000 1.0
C      1  0.5192660000000  0.4879920000000  0.4282300000000 1.0
C      1  0.4896830000000  0.5306740000000  0.4781860000000 1.0
C      1  0.4553800000000  0.4597850000000  0.5050310000000 1.0
C      1  0.5281160000000  0.5679010000000  0.4883950000000 1.0
C      1  0.5002250000000  0.4931260000000  0.5819010000000 1.0
C      1  0.5079090000000  0.5155640000000  0.4392470000000 1.0
C      1  0.4229930000000  0.5426770000000  0.4864050000000 1.0
C      1  0.5845040000000  0.4962300000000  0.4983400000000 1.0
C      1  0.4623800000000  0.5473040000000  0.5613540000000 1.0
C      1  0.5682380000000  0.5482630000000  0.4772870000000 1.0
C      1  0.4265830000000  0.4712260000000  0.4550990000000 1.0
C      1  0.5486680000000  0.5675770000000  0.4676600000000 1.0
C      1  0.4523520000000  0.4859710000000  0.4922490000000 1.0
C      1  0.5270640000000  0.4582760000000  0.5037750000000 1.0
C      1  0.5320830000000  0.5614390000000  0.4446750000000 1.0
C      1  0.4968380000000  0.5317840000000  0.5354140000000 1.0
C      1  0.5274100000000  0.5334720000000  0.5329170000000 1.0
C      1  0.4884210000000  0.4314110000000  0.4793280000000 1.0
C      1  0.5036810000000  0.4830840000000  0.5332550000000 1.0
C      1  0.4596440000000  0.5689590000000  0.5430000000000 1.0
C      1  0.5741710000000  0.4597210000000  0.5367720000000 1.0
C      1  0.5652340000000  0.4744690000000  0.4617930000000 1.0
C      1  0.5274490000000  0.4322780000000  0.5484060000000 1.0
C      1  0.4833400000000  0.4577040000000  0.4947870000000 1.0
C      1  0.4854100000000  0.5760030000000  0.5359030000000 1.0
C      1  0.4734610000000  0.4926710000000  0.5787420000000 1.0
C      1  0.5347180000000  0.4299950000000  0.5016490000000 1.0
C      1  0.5052340000000  0.5703150000000  0.4473610000000 1.0
C      1  0.5288640000000  0.5330330000000  0.4501040000000 1.0
C      1  0.4746300000000  0.4156880000000  0.5425570000000 1.0
C      1  0.4937820000000  0.4085630000000  0.5216430000000 1.0
C      1  0.5820210000000  0.4840210000000  0.5487050000000 1.0
C      1  0.4574230000000  0.5020980000000  0.4467710000000 1.0
C      1  0.4515600000000  0.4982950000000  0.5643240000000 1.0
C      1  0.5474000000000  0.4335560000000  0.4765170000000 1.0
C      1  0.4276350000000  0.5021780000000  0.4536250000000 1.0
C      1  0.4262180000000  0.5256020000000  0.5347110000000 1.0
END
