TITL C-89226-2651-3 -0.0907055825291576 125000 -614.018992436844 0 0 88 (C1) n - 1
REM
REM in /rds/project/t2_vol4/rds-t2-cs072/BORA/CARBON/from-Arr/AIRSS/Generating-Clusters/GAP-ML-2020/Only-C1/SD-CG/HFTN-CG
REM
REM
REM
REM
REM
REM ./C.cell (11c1c37f851c82e70ff6c80c92926a4b)
REM AIRSS Version 0.9.1 bugfix July 2018 build 013d7b7c2542+ Fri, 06 Jul 2018 19:26:36 +0100
REM compiler GCC version 9.3.0
REM options -cpp -mtune=generic -march=x86-64 -g -O0
REM seed 1185486882 966881406 -531525264 -1655051648 -387305003 2047209716 1733152702 294258147 -1200412908 -160175949 1646614048 -1008256505 -1363127418 -2113202060 2070284654 -1556784634 1482524300 -416164819 1772726893 1738874680 -1779676100 -1754292142 -490929162 -1291178404 -1625830696 488125454 -1002541097 675119190 1746972520 1644914383 1642830024 954307268 2112550158
REM
CELL 1.54180   50.00000   50.00000   50.00000   90.00000   90.00000   90.00000
LATT -1
SFAC C  
C      1  0.5240900000000  0.4862660000000  0.5206640000000 1.0
C      1  0.4358930000000  0.4485580000000  0.5097610000000 1.0
C      1  0.4924510000000  0.4579860000000  0.5824560000000 1.0
C      1  0.5555750000000  0.4629050000000  0.4548980000000 1.0
C      1  0.4904170000000  0.4853460000000  0.5778670000000 1.0
C      1  0.4939340000000  0.4158900000000  0.4867650000000 1.0
C      1  0.5227510000000  0.4831950000000  0.4899000000000 1.0
C      1  0.5016290000000  0.4700770000000  0.5310300000000 1.0
C      1  0.5488230000000  0.4811950000000  0.5382680000000 1.0
C      1  0.4789750000000  0.4990710000000  0.4717750000000 1.0
C      1  0.4496180000000  0.4284450000000  0.4703540000000 1.0
C      1  0.5484040000000  0.5053880000000  0.4355490000000 1.0
C      1  0.4953950000000  0.4762630000000  0.4845370000000 1.0
C      1  0.5042820000000  0.5215690000000  0.5507400000000 1.0
C      1  0.5156860000000  0.4408500000000  0.4487590000000 1.0
C      1  0.4611720000000  0.5733920000000  0.5101820000000 1.0
C      1  0.4154200000000  0.4973080000000  0.5183740000000 1.0
C      1  0.5548900000000  0.5204620000000  0.5509310000000 1.0
C      1  0.4697760000000  0.5524850000000  0.4532460000000 1.0
C      1  0.4322970000000  0.4959290000000  0.4587280000000 1.0
C      1  0.4795720000000  0.4194600000000  0.5125880000000 1.0
C      1  0.5132790000000  0.5013380000000  0.5698370000000 1.0
C      1  0.4636620000000  0.4607970000000  0.4419260000000 1.0
C      1  0.4590730000000  0.4446530000000  0.5495940000000 1.0
C      1  0.5443500000000  0.5469360000000  0.5456600000000 1.0
C      1  0.5181990000000  0.4430980000000  0.5405350000000 1.0
C      1  0.4186100000000  0.5224280000000  0.5089950000000 1.0
C      1  0.5697230000000  0.5153610000000  0.4542570000000 1.0
C      1  0.4849340000000  0.4784880000000  0.4334130000000 1.0
C      1  0.4763520000000  0.5142450000000  0.5438830000000 1.0
C      1  0.5474470000000  0.4514110000000  0.5348100000000 1.0
C      1  0.5608570000000  0.5621900000000  0.4692460000000 1.0
C      1  0.4825880000000  0.4717940000000  0.5094590000000 1.0
C      1  0.4346020000000  0.4478280000000  0.4808430000000 1.0
C      1  0.4556150000000  0.4846940000000  0.5081370000000 1.0
C      1  0.5250530000000  0.5091990000000  0.4808300000000 1.0
C      1  0.5179860000000  0.5148460000000  0.5237000000000 1.0
C      1  0.4643860000000  0.4926760000000  0.5644900000000 1.0
C      1  0.4870830000000  0.5349370000000  0.4379600000000 1.0
C      1  0.5103900000000  0.5251570000000  0.4976050000000 1.0
C      1  0.5069690000000  0.4392180000000  0.5674090000000 1.0
C      1  0.4941260000000  0.4257950000000  0.4595470000000 1.0
C      1  0.4802470000000  0.5850660000000  0.4915730000000 1.0
C      1  0.5408640000000  0.4401000000000  0.4624900000000 1.0
C      1  0.4290390000000  0.5400540000000  0.4844260000000 1.0
C      1  0.4558500000000  0.4324810000000  0.5234920000000 1.0
C      1  0.4988040000000  0.5686200000000  0.5398160000000 1.0
C      1  0.4447410000000  0.5388520000000  0.4592750000000 1.0
C      1  0.4289550000000  0.5442060000000  0.5263700000000 1.0
C      1  0.4525140000000  0.4890820000000  0.4791730000000 1.0
C      1  0.4368760000000  0.5601550000000  0.5038380000000 1.0
C      1  0.4410230000000  0.4685980000000  0.4598520000000 1.0
C      1  0.4862740000000  0.5728560000000  0.4659150000000 1.0
C      1  0.5675300000000  0.5043610000000  0.5294980000000 1.0
C      1  0.4504540000000  0.5446100000000  0.5459780000000 1.0
C      1  0.5525130000000  0.5584640000000  0.5207440000000 1.0
C      1  0.5426190000000  0.4294550000000  0.4891560000000 1.0
C      1  0.4483660000000  0.4706860000000  0.5518530000000 1.0
C      1  0.5773390000000  0.5025530000000  0.4781090000000 1.0
C      1  0.5156590000000  0.5494060000000  0.5515920000000 1.0
C      1  0.5381970000000  0.5331560000000  0.4339490000000 1.0
C      1  0.5069110000000  0.4212830000000  0.5245300000000 1.0
C      1  0.5725220000000  0.5446220000000  0.5041820000000 1.0
C      1  0.5135180000000  0.5682190000000  0.4589360000000 1.0
C      1  0.5608210000000  0.5424410000000  0.4493610000000 1.0
C      1  0.5356430000000  0.5734240000000  0.4769550000000 1.0
C      1  0.5753860000000  0.4604310000000  0.4979650000000 1.0
C      1  0.4687570000000  0.4348450000000  0.4514840000000 1.0
C      1  0.5386420000000  0.4790470000000  0.4373590000000 1.0
C      1  0.4462440000000  0.5146950000000  0.4442930000000 1.0
C      1  0.5759420000000  0.5153890000000  0.5047480000000 1.0
C      1  0.4788390000000  0.4381280000000  0.5681140000000 1.0
C      1  0.5106590000000  0.5844280000000  0.5182630000000 1.0
C      1  0.4764440000000  0.5070430000000  0.4409360000000 1.0
C      1  0.4832370000000  0.5194740000000  0.4937780000000 1.0
C      1  0.4333080000000  0.4751040000000  0.5253550000000 1.0
C      1  0.5136260000000  0.5464230000000  0.4385080000000 1.0
C      1  0.5346510000000  0.5752170000000  0.5058080000000 1.0
C      1  0.5578660000000  0.4433320000000  0.5095830000000 1.0
C      1  0.5196640000000  0.4172230000000  0.4992880000000 1.0
C      1  0.4701640000000  0.5648430000000  0.5357550000000 1.0
C      1  0.5736710000000  0.4742420000000  0.4749820000000 1.0
C      1  0.4540870000000  0.5208150000000  0.5606050000000 1.0
C      1  0.4719660000000  0.5068540000000  0.5158870000000 1.0
C      1  0.5837650000000  0.5617640000000  0.4854590000000 1.0
C      1  0.4969440000000  0.6037270000000  0.5037760000000 1.0
C      1  0.5405120000000  0.4983650000000  0.5621360000000 1.0
C      1  0.5120130000000  0.4667350000000  0.4353470000000 1.0
END
