TITL C-89240-6119-5 0.0410823878429863 125000 -627.158076848438 0 0 89 (C1) n - 1
REM
REM in /rds/project/t2_vol4/rds-t2-cs072/BORA/CARBON/from-Arr/AIRSS/Generating-Clusters/GAP-ML-2020/Only-C1/SD-CG/HFTN-CG
REM
REM
REM
REM
REM
REM ./C.cell (11c1c37f851c82e70ff6c80c92926a4b)
REM AIRSS Version 0.9.1 bugfix July 2018 build 013d7b7c2542+ Fri, 06 Jul 2018 19:26:36 +0100
REM compiler GCC version 9.3.0
REM options -cpp -mtune=generic -march=x86-64 -g -O0
REM seed 899612270 513633073 123768706 -1843052033 -137978088 -1546149962 -174020939 -1398762900 -1422502321 1312049216 781713364 -1477278259 136011781 1480082420 -1732294969 728170827 47190924 1609103034 710118056 295442575 -638882623 1990232157 1590816177 -1887455813 1518728075 -1004211536 -1342814856 -1417320325 1145935975 1553384002 -2145028525 658736257 1104220768
REM
CELL 1.54180   50.00000   50.00000   50.00000   90.00000   90.00000   90.00000
LATT -1
SFAC C  
C      1  0.5458950000000  0.5665210000000  0.5140850000000 1.0
C      1  0.5714440000000  0.4986720000000  0.5413130000000 1.0
C      1  0.4991990000000  0.4621010000000  0.5835540000000 1.0
C      1  0.5054960000000  0.4593150000000  0.5376310000000 1.0
C      1  0.5375300000000  0.4768110000000  0.4374610000000 1.0
C      1  0.5644790000000  0.5270080000000  0.5305350000000 1.0
C      1  0.4974100000000  0.5821940000000  0.5086220000000 1.0
C      1  0.5795730000000  0.5164550000000  0.4828810000000 1.0
C      1  0.4675910000000  0.4897100000000  0.4243780000000 1.0
C      1  0.4947260000000  0.4155470000000  0.5217620000000 1.0
C      1  0.4397860000000  0.5379400000000  0.5191330000000 1.0
C      1  0.4262410000000  0.5179910000000  0.4531260000000 1.0
C      1  0.5188820000000  0.5523000000000  0.4615370000000 1.0
C      1  0.5432680000000  0.4264790000000  0.5197990000000 1.0
C      1  0.4526120000000  0.5741180000000  0.4909190000000 1.0
C      1  0.4934820000000  0.5719950000000  0.4614530000000 1.0
C      1  0.4547930000000  0.4927020000000  0.5436990000000 1.0
C      1  0.5406350000000  0.4918870000000  0.4842900000000 1.0
C      1  0.5221640000000  0.5113830000000  0.5018140000000 1.0
C      1  0.5271000000000  0.4984930000000  0.5614080000000 1.0
C      1  0.4790340000000  0.4380400000000  0.4515830000000 1.0
C      1  0.5068110000000  0.4679780000000  0.5111310000000 1.0
C      1  0.4223770000000  0.4951940000000  0.5040080000000 1.0
C      1  0.4385400000000  0.5597940000000  0.4711030000000 1.0
C      1  0.4996510000000  0.4302000000000  0.5450550000000 1.0
C      1  0.4776750000000  0.5075870000000  0.5299620000000 1.0
C      1  0.4508370000000  0.4416960000000  0.5070020000000 1.0
C      1  0.5192920000000  0.4147320000000  0.5076990000000 1.0
C      1  0.4870700000000  0.5398540000000  0.4266780000000 1.0
C      1  0.5153230000000  0.4196250000000  0.4799120000000 1.0
C      1  0.5292690000000  0.4424720000000  0.4714100000000 1.0
C      1  0.5581910000000  0.5561310000000  0.5395980000000 1.0
C      1  0.5107650000000  0.5385620000000  0.4901100000000 1.0
C      1  0.5625060000000  0.5243290000000  0.4606480000000 1.0
C      1  0.4435270000000  0.5311760000000  0.4350410000000 1.0
C      1  0.5174720000000  0.4901700000000  0.4214310000000 1.0
C      1  0.4981880000000  0.4518120000000  0.4362660000000 1.0
C      1  0.4662610000000  0.5189890000000  0.4232680000000 1.0
C      1  0.4833310000000  0.5023300000000  0.4817840000000 1.0
C      1  0.4813890000000  0.5295120000000  0.4876070000000 1.0
C      1  0.5444590000000  0.4303420000000  0.5485750000000 1.0
C      1  0.5065070000000  0.4783680000000  0.5606720000000 1.0
C      1  0.4286560000000  0.4900940000000  0.4556260000000 1.0
C      1  0.4700950000000  0.4189260000000  0.5062390000000 1.0
C      1  0.4267000000000  0.4784810000000  0.4815300000000 1.0
C      1  0.5531250000000  0.4470780000000  0.5030600000000 1.0
C      1  0.4791870000000  0.5525560000000  0.5552250000000 1.0
C      1  0.5134930000000  0.5377430000000  0.4362540000000 1.0
C      1  0.4889910000000  0.5856360000000  0.5356580000000 1.0
C      1  0.5234770000000  0.4477460000000  0.5804040000000 1.0
C      1  0.5444320000000  0.5014110000000  0.4536990000000 1.0
C      1  0.4427650000000  0.4545320000000  0.4824600000000 1.0
C      1  0.4675500000000  0.5293020000000  0.5137350000000 1.0
C      1  0.5607800000000  0.5561180000000  0.4927500000000 1.0
C      1  0.4576010000000  0.4657910000000  0.5560630000000 1.0
C      1  0.5806790000000  0.4848770000000  0.5186090000000 1.0
C      1  0.5202810000000  0.4238930000000  0.5638080000000 1.0
C      1  0.4803270000000  0.5809620000000  0.4856410000000 1.0
C      1  0.4766570000000  0.5628590000000  0.4408590000000 1.0
C      1  0.5259670000000  0.5539860000000  0.5618410000000 1.0
C      1  0.4226300000000  0.5238640000000  0.5016450000000 1.0
C      1  0.4728570000000  0.4562180000000  0.5767000000000 1.0
C      1  0.5471860000000  0.4560800000000  0.5650070000000 1.0
C      1  0.5349450000000  0.5193930000000  0.5266980000000 1.0
C      1  0.4498310000000  0.5570810000000  0.4455450000000 1.0
C      1  0.4881690000000  0.4178340000000  0.4700850000000 1.0
C      1  0.4462700000000  0.5658210000000  0.5185110000000 1.0
C      1  0.5305420000000  0.4636770000000  0.4920400000000 1.0
C      1  0.4637000000000  0.5721750000000  0.5394680000000 1.0
C      1  0.5191460000000  0.5252090000000  0.5514570000000 1.0
C      1  0.5267310000000  0.5142680000000  0.4328390000000 1.0
C      1  0.4925270000000  0.4761120000000  0.4223240000000 1.0
C      1  0.5522630000000  0.4849910000000  0.5590540000000 1.0
C      1  0.5760910000000  0.4632770000000  0.5028160000000 1.0
C      1  0.4900240000000  0.5277010000000  0.5469480000000 1.0
C      1  0.5253840000000  0.4528870000000  0.4458430000000 1.0
C      1  0.5764580000000  0.5350920000000  0.5038580000000 1.0
C      1  0.5709960000000  0.4905560000000  0.4908270000000 1.0
C      1  0.4231780000000  0.5353620000000  0.4759700000000 1.0
C      1  0.4959820000000  0.4932920000000  0.5068890000000 1.0
C      1  0.5184730000000  0.5637500000000  0.5067800000000 1.0
C      1  0.5516890000000  0.5643910000000  0.5646240000000 1.0
C      1  0.4339960000000  0.4835220000000  0.5261520000000 1.0
C      1  0.4693340000000  0.4028860000000  0.4836350000000 1.0
C      1  0.5497040000000  0.5496810000000  0.4667530000000 1.0
C      1  0.5026730000000  0.5690520000000  0.5567380000000 1.0
C      1  0.4483060000000  0.4757580000000  0.4405440000000 1.0
C      1  0.4440210000000  0.4570140000000  0.5303780000000 1.0
C      1  0.4553520000000  0.4525470000000  0.4564690000000 1.0
END
