TITL C-89221-2556-4 -20.9520577605263 125000 -134.020133694389 0 0 21 (C1) n - 1
REM
REM in /rds/project/t2_vol4/rds-t2-cs072/BORA/CARBON/from-Arr/AIRSS/Generating-Clusters/GAP-ML-2020/Only-C1/SD-CG/HFTN-CG
REM
REM
REM
REM
REM
REM ./C.cell (11c1c37f851c82e70ff6c80c92926a4b)
REM AIRSS Version 0.9.1 bugfix July 2018 build 013d7b7c2542+ Fri, 06 Jul 2018 19:26:36 +0100
REM compiler GCC version 9.3.0
REM options -cpp -mtune=generic -march=x86-64 -g -O0
REM seed -1337099583 -26325116 1771574683 -1907082544 -189991782 414308419 -218903740 -1285032105 723763350 -689096681 1451793635 -1165701511 303603725 -1980413431 400993736 130691910 -388976158 -712687637 1729303455 -1846422353 894402520 -1390855989 -1761550900 -1005702734 1004564088 -716880096 523831114 884557677 -951737443 -86999891 550421358 -1724458825 -535475258
REM
CELL 1.54180   50.00000   50.00000   50.00000   90.00000   90.00000   90.00000
LATT -1
SFAC C  
C      1  0.4917800000000  0.5194290000000  0.4924840000000 1.0
C      1  0.5362030000000  0.4600610000000  0.4919200000000 1.0
C      1  0.5278910000000  0.5115140000000  0.4670770000000 1.0
C      1  0.4788870000000  0.5190590000000  0.5207880000000 1.0
C      1  0.5570830000000  0.4826140000000  0.4935650000000 1.0
C      1  0.5282590000000  0.5140110000000  0.5183600000000 1.0
C      1  0.4299230000000  0.5239680000000  0.4999770000000 1.0
C      1  0.5034910000000  0.5058370000000  0.5293410000000 1.0
C      1  0.4659870000000  0.5431200000000  0.5264780000000 1.0
C      1  0.5280170000000  0.4696840000000  0.4661420000000 1.0
C      1  0.5077740000000  0.4896010000000  0.4631910000000 1.0
C      1  0.4345840000000  0.4979430000000  0.5047830000000 1.0
C      1  0.5488520000000  0.4924080000000  0.4686460000000 1.0
C      1  0.5194360000000  0.5250190000000  0.4904030000000 1.0
C      1  0.4441040000000  0.5425400000000  0.5115860000000 1.0
C      1  0.4875440000000  0.4942160000000  0.4810490000000 1.0
C      1  0.5011110000000  0.4787800000000  0.5217470000000 1.0
C      1  0.4589260000000  0.4934710000000  0.5140500000000 1.0
C      1  0.5456230000000  0.4914330000000  0.5179270000000 1.0
C      1  0.4785710000000  0.4770160000000  0.5033950000000 1.0
C      1  0.5259520000000  0.4682760000000  0.5170920000000 1.0
END
