TITL C-90472-5976-3 -129.392808202012 125000 -412.815142439672 0 0 62 (C1) n - 1
REM
REM in /rds/project/t2_vol4/rds-t2-cs072/BORA/CARBON/from-Arr/AIRSS/Generating-Clusters/GAP-ML-2020/Only-C1/SD-CG/HFTN-CG
REM
REM
REM
REM
REM
REM ./C.cell (11c1c37f851c82e70ff6c80c92926a4b)
REM AIRSS Version 0.9.1 bugfix July 2018 build 013d7b7c2542+ Fri, 06 Jul 2018 19:26:36 +0100
REM compiler GCC version 9.3.0
REM options -cpp -mtune=generic -march=x86-64 -g -O0
REM seed -1391600862 1934693357 883154937 -862175158 -1794384132 365181096 644610939 769910604 1441572136 -1894073947 536829291 954263015 2037748364 21151172 -1045267485 -1317704314 730887134 -903437483 942325808 -1772271588 -1157653661 1062060308 337729132 -1758824292 818123499 -1929673530 276241144 -548223732 1173782809 -598601656 -258333627 -514848648 302775900
REM
CELL 1.54180   50.00000   50.00000   50.00000   90.00000   90.00000   90.00000
LATT -1
SFAC C  
C      1  0.5444770000000  0.4786130000000  0.4557890000000 1.0
C      1  0.4444810000000  0.5446380000000  0.4709160000000 1.0
C      1  0.5616420000000  0.5205650000000  0.4709020000000 1.0
C      1  0.4894760000000  0.5688610000000  0.5370690000000 1.0
C      1  0.4957770000000  0.5635340000000  0.4887340000000 1.0
C      1  0.5039380000000  0.5337540000000  0.5629170000000 1.0
C      1  0.5664300000000  0.5329350000000  0.4962390000000 1.0
C      1  0.5350680000000  0.4462630000000  0.4887300000000 1.0
C      1  0.5199950000000  0.4244130000000  0.4987770000000 1.0
C      1  0.4783560000000  0.4766050000000  0.5524220000000 1.0
C      1  0.4462400000000  0.5059070000000  0.5307590000000 1.0
C      1  0.5151170000000  0.4270640000000  0.5263400000000 1.0
C      1  0.5289430000000  0.4561220000000  0.4633010000000 1.0
C      1  0.4737550000000  0.4948320000000  0.4272370000000 1.0
C      1  0.5574760000000  0.4931770000000  0.4770730000000 1.0
C      1  0.4785330000000  0.5689570000000  0.5099940000000 1.0
C      1  0.4750220000000  0.5291310000000  0.5607070000000 1.0
C      1  0.5126460000000  0.5549890000000  0.5446430000000 1.0
C      1  0.4691920000000  0.4948330000000  0.4862460000000 1.0
C      1  0.4672910000000  0.4515980000000  0.5375550000000 1.0
C      1  0.5350550000000  0.4956420000000  0.4993610000000 1.0
C      1  0.5458280000000  0.5512710000000  0.5036490000000 1.0
C      1  0.4355290000000  0.5239950000000  0.4856790000000 1.0
C      1  0.5251120000000  0.5597890000000  0.4852140000000 1.0
C      1  0.4539320000000  0.4593120000000  0.5137750000000 1.0
C      1  0.4933820000000  0.4754390000000  0.4843790000000 1.0
C      1  0.5407490000000  0.5258400000000  0.4519530000000 1.0
C      1  0.4914050000000  0.5416160000000  0.4684930000000 1.0
C      1  0.4915340000000  0.4265350000000  0.4958660000000 1.0
C      1  0.4651840000000  0.5377410000000  0.4533530000000 1.0
C      1  0.4783090000000  0.4396720000000  0.4751100000000 1.0
C      1  0.5213570000000  0.5444520000000  0.4608340000000 1.0
C      1  0.5237350000000  0.4887560000000  0.5727870000000 1.0
C      1  0.4411930000000  0.5285670000000  0.5139550000000 1.0
C      1  0.4599130000000  0.4874180000000  0.5130940000000 1.0
C      1  0.4521380000000  0.4506150000000  0.4852880000000 1.0
C      1  0.4901240000000  0.4408340000000  0.5233670000000 1.0
C      1  0.5117940000000  0.4990450000000  0.4823460000000 1.0
C      1  0.5130840000000  0.4903680000000  0.4238640000000 1.0
C      1  0.5332330000000  0.5445560000000  0.5279210000000 1.0
C      1  0.5261810000000  0.5157520000000  0.5274090000000 1.0
C      1  0.4453780000000  0.4976920000000  0.4683590000000 1.0
C      1  0.4618350000000  0.5037250000000  0.5551760000000 1.0
C      1  0.5220510000000  0.5133600000000  0.5592730000000 1.0
C      1  0.4572490000000  0.5112360000000  0.4438230000000 1.0
C      1  0.5328730000000  0.4680620000000  0.5097730000000 1.0
C      1  0.5741390000000  0.5128660000000  0.5161340000000 1.0
C      1  0.4933330000000  0.5027560000000  0.4073390000000 1.0
C      1  0.4665620000000  0.5528240000000  0.5469270000000 1.0
C      1  0.4377740000000  0.4695040000000  0.4708890000000 1.0
C      1  0.4883780000000  0.4881790000000  0.5265290000000 1.0
C      1  0.5050740000000  0.4694510000000  0.5640620000000 1.0
C      1  0.4542520000000  0.5529490000000  0.5208080000000 1.0
C      1  0.5500270000000  0.4713580000000  0.5334800000000 1.0
C      1  0.5020000000000  0.4675440000000  0.5120840000000 1.0
C      1  0.4923340000000  0.4742060000000  0.4374470000000 1.0
C      1  0.5326990000000  0.4684390000000  0.5559470000000 1.0
C      1  0.5704980000000  0.4920280000000  0.5302680000000 1.0
C      1  0.4905770000000  0.5166680000000  0.4899010000000 1.0
C      1  0.5350560000000  0.4994900000000  0.4390570000000 1.0
C      1  0.4981680000000  0.4582770000000  0.4598460000000 1.0
C      1  0.4971200000000  0.5153810000000  0.5188300000000 1.0
END
