TITL C-90480-6736-4 25.3553833070721 125000 -710.104697385653 0 0 102 (C1) n - 1
REM
REM in /rds/project/t2_vol4/rds-t2-cs072/BORA/CARBON/from-Arr/AIRSS/Generating-Clusters/GAP-ML-2020/Only-C1/SD-CG/HFTN-CG
REM
REM
REM
REM
REM
REM ./C.cell (11c1c37f851c82e70ff6c80c92926a4b)
REM AIRSS Version 0.9.1 bugfix July 2018 build 013d7b7c2542+ Fri, 06 Jul 2018 19:26:36 +0100
REM compiler GCC version 9.3.0
REM options -cpp -mtune=generic -march=x86-64 -g -O0
REM seed 413697014 -500137376 1866593044 1934354743 1633336470 1620896627 -832867018 1284001598 -1343233933 1852350026 -284234504 960546133 -1024675663 -1605416563 -1021816040 461250510 -2084888342 1884596176 -1456002537 1298512827 -638714351 -2137753430 -533633953 -203626167 1918966808 1391043998 1918515037 -1778755024 -1992967960 337681451 1306054554 941049032 -871145380
REM
CELL 1.54180   50.00000   50.00000   50.00000   90.00000   90.00000   90.00000
LATT -1
SFAC C  
C      1  0.4702480000000  0.4789040000000  0.5487620000000 1.0
C      1  0.5420910000000  0.5469880000000  0.5543280000000 1.0
C      1  0.5602300000000  0.5476580000000  0.4588350000000 1.0
C      1  0.4951830000000  0.4879460000000  0.5056020000000 1.0
C      1  0.4549400000000  0.5722200000000  0.5061570000000 1.0
C      1  0.4732490000000  0.4938140000000  0.5747780000000 1.0
C      1  0.5373810000000  0.4924600000000  0.4135470000000 1.0
C      1  0.4479360000000  0.4272100000000  0.5391930000000 1.0
C      1  0.4182750000000  0.4530450000000  0.4815290000000 1.0
C      1  0.5810970000000  0.4718630000000  0.5171790000000 1.0
C      1  0.4507090000000  0.5661920000000  0.5346370000000 1.0
C      1  0.4094280000000  0.4712130000000  0.4636560000000 1.0
C      1  0.4976740000000  0.5733440000000  0.5470020000000 1.0
C      1  0.5098780000000  0.4410560000000  0.5788680000000 1.0
C      1  0.5144070000000  0.5105180000000  0.4187340000000 1.0
C      1  0.5820350000000  0.5222100000000  0.5091260000000 1.0
C      1  0.5622430000000  0.5605860000000  0.4838570000000 1.0
C      1  0.4187030000000  0.5160350000000  0.4679710000000 1.0
C      1  0.5774990000000  0.5251010000000  0.4586630000000 1.0
C      1  0.4685760000000  0.4290710000000  0.4752390000000 1.0
C      1  0.5605280000000  0.4978410000000  0.5527820000000 1.0
C      1  0.5446220000000  0.5193540000000  0.5643060000000 1.0
C      1  0.4419510000000  0.4738950000000  0.5459970000000 1.0
C      1  0.5647570000000  0.4525210000000  0.5299270000000 1.0
C      1  0.4360460000000  0.5205520000000  0.5533010000000 1.0
C      1  0.4691090000000  0.4371380000000  0.5221710000000 1.0
C      1  0.4434060000000  0.4852970000000  0.4339090000000 1.0
C      1  0.5209920000000  0.5746860000000  0.4660980000000 1.0
C      1  0.4918760000000  0.5383850000000  0.4798990000000 1.0
C      1  0.4883060000000  0.4345690000000  0.5617950000000 1.0
C      1  0.4756380000000  0.5200960000000  0.4431130000000 1.0
C      1  0.5392960000000  0.5773790000000  0.4871310000000 1.0
C      1  0.4749220000000  0.5423630000000  0.5721960000000 1.0
C      1  0.4199200000000  0.4928860000000  0.4493070000000 1.0
C      1  0.4809820000000  0.5842310000000  0.4988350000000 1.0
C      1  0.4992000000000  0.4780430000000  0.4601400000000 1.0
C      1  0.5195840000000  0.5278110000000  0.5185430000000 1.0
C      1  0.5030500000000  0.5397280000000  0.5767090000000 1.0
C      1  0.5724650000000  0.4992080000000  0.5255910000000 1.0
C      1  0.4892700000000  0.4933670000000  0.4103900000000 1.0
C      1  0.5617910000000  0.4847940000000  0.4279770000000 1.0
C      1  0.5452530000000  0.4507710000000  0.4608970000000 1.0
C      1  0.5672840000000  0.5465840000000  0.5081460000000 1.0
C      1  0.5435200000000  0.5509850000000  0.5250970000000 1.0
C      1  0.4634280000000  0.4216940000000  0.5613880000000 1.0
C      1  0.4172340000000  0.4603420000000  0.5106420000000 1.0
C      1  0.4818360000000  0.4295630000000  0.4517570000000 1.0
C      1  0.5283690000000  0.4811070000000  0.5331970000000 1.0
C      1  0.4816480000000  0.4227230000000  0.5006060000000 1.0
C      1  0.4839750000000  0.5014420000000  0.5295430000000 1.0
C      1  0.5145030000000  0.5404260000000  0.4262050000000 1.0
C      1  0.4839260000000  0.4558940000000  0.4400650000000 1.0
C      1  0.5254710000000  0.4692970000000  0.4711900000000 1.0
C      1  0.5893510000000  0.5146770000000  0.4833310000000 1.0
C      1  0.4591490000000  0.5186930000000  0.5717260000000 1.0
C      1  0.4530250000000  0.4785770000000  0.4835860000000 1.0
C      1  0.5082550000000  0.4148160000000  0.5046260000000 1.0
C      1  0.5070010000000  0.4654310000000  0.5207510000000 1.0
C      1  0.4981240000000  0.4660110000000  0.4156380000000 1.0
C      1  0.5263150000000  0.4656220000000  0.4162370000000 1.0
C      1  0.4320400000000  0.4504070000000  0.5327750000000 1.0
C      1  0.4329930000000  0.5013450000000  0.4918640000000 1.0
C      1  0.5298250000000  0.5745280000000  0.5128510000000 1.0
C      1  0.5014180000000  0.5753490000000  0.5184670000000 1.0
C      1  0.5384580000000  0.4895460000000  0.4858780000000 1.0
C      1  0.5132630000000  0.4679870000000  0.5875530000000 1.0
C      1  0.5645250000000  0.4457260000000  0.4825880000000 1.0
C      1  0.4217770000000  0.5431660000000  0.4725790000000 1.0
C      1  0.5004240000000  0.4926020000000  0.5845280000000 1.0
C      1  0.5308180000000  0.5491970000000  0.4513120000000 1.0
C      1  0.5125020000000  0.5071660000000  0.5405970000000 1.0
C      1  0.5553910000000  0.4346010000000  0.5079710000000 1.0
C      1  0.4880060000000  0.5461050000000  0.4347590000000 1.0
C      1  0.5490300000000  0.4682200000000  0.5515890000000 1.0
C      1  0.5473430000000  0.4874890000000  0.5117660000000 1.0
C      1  0.4471440000000  0.4514610000000  0.4717910000000 1.0
C      1  0.4859410000000  0.4546230000000  0.5389320000000 1.0
C      1  0.5333260000000  0.4172210000000  0.5072000000000 1.0
C      1  0.5489240000000  0.4580530000000  0.4335170000000 1.0
C      1  0.5784610000000  0.4980410000000  0.4467740000000 1.0
C      1  0.5213240000000  0.5096250000000  0.4943640000000 1.0
C      1  0.4266530000000  0.4966390000000  0.5407680000000 1.0
C      1  0.4934380000000  0.5824870000000  0.4719990000000 1.0
C      1  0.4720570000000  0.5259790000000  0.5198970000000 1.0
C      1  0.5037670000000  0.5053660000000  0.4476390000000 1.0
C      1  0.4719500000000  0.5178940000000  0.4747790000000 1.0
C      1  0.4798460000000  0.4884750000000  0.4811270000000 1.0
C      1  0.5893690000000  0.4876260000000  0.4721820000000 1.0
C      1  0.4545400000000  0.4610180000000  0.4433400000000 1.0
C      1  0.5172880000000  0.5589210000000  0.5621260000000 1.0
C      1  0.4403360000000  0.5514100000000  0.4914580000000 1.0
C      1  0.5160260000000  0.5141830000000  0.5725720000000 1.0
C      1  0.4844400000000  0.5599850000000  0.4591610000000 1.0
C      1  0.5343780000000  0.4547460000000  0.5734600000000 1.0
C      1  0.4716650000000  0.5642990000000  0.5540100000000 1.0
C      1  0.4358610000000  0.5443900000000  0.5404660000000 1.0
C      1  0.4173110000000  0.4893330000000  0.5144150000000 1.0
C      1  0.5149950000000  0.5243900000000  0.4691680000000 1.0
C      1  0.4644140000000  0.5019860000000  0.4231120000000 1.0
C      1  0.4521300000000  0.5244450000000  0.4969530000000 1.0
C      1  0.4946080000000  0.5420910000000  0.5102410000000 1.0
C      1  0.5848380000000  0.4656490000000  0.4890640000000 1.0
END
