TITL C-90452-7171-1 -0.0690722770693281 125000 -120.214250358375 0 0 19 (C1) n - 1
REM
REM in /rds/project/t2_vol4/rds-t2-cs072/BORA/CARBON/from-Arr/AIRSS/Generating-Clusters/GAP-ML-2020/Only-C1/SD-CG/HFTN-CG
REM
REM
REM
REM
REM
REM ./C.cell (11c1c37f851c82e70ff6c80c92926a4b)
REM AIRSS Version 0.9.1 bugfix July 2018 build 013d7b7c2542+ Fri, 06 Jul 2018 19:26:36 +0100
REM compiler GCC version 9.3.0
REM options -cpp -mtune=generic -march=x86-64 -g -O0
REM seed 1146647640 829965299 85934957 -1272333489 -1398394318 313815130 -1928870821 -1772204317 -953045801 734238796 1473176692 -1545433109 -1464847656 -1518905808 332667113 -380767852 -1937547447 -1868599980 250529784 -833996476 281784704 1479682650 -2041371221 -169531952 650674993 -359307789 -902855986 492446974 -337744077 1935389139 1433162221 1512303234 1795067210
REM
CELL 1.54180   50.00000   50.00000   50.00000   90.00000   90.00000   90.00000
LATT -1
SFAC C  
C      1  0.4532680000000  0.4960080000000  0.5265720000000 1.0
C      1  0.5234330000000  0.5351190000000  0.4477720000000 1.0
C      1  0.5171370000000  0.5603640000000  0.4396750000000 1.0
C      1  0.5200220000000  0.4867970000000  0.5477340000000 1.0
C      1  0.5245510000000  0.4703170000000  0.5230900000000 1.0
C      1  0.5404850000000  0.5572090000000  0.4491230000000 1.0
C      1  0.4940450000000  0.5390060000000  0.5236820000000 1.0
C      1  0.5031120000000  0.4644850000000  0.5065440000000 1.0
C      1  0.4961550000000  0.4996160000000  0.5532720000000 1.0
C      1  0.4995250000000  0.4744670000000  0.4801030000000 1.0
C      1  0.4780090000000  0.4650220000000  0.5208160000000 1.0
C      1  0.5182600000000  0.4873090000000  0.4650960000000 1.0
C      1  0.4744790000000  0.4841490000000  0.5424790000000 1.0
C      1  0.4665770000000  0.4994690000000  0.4566340000000 1.0
C      1  0.4946860000000  0.5268050000000  0.5457730000000 1.0
C      1  0.5446920000000  0.4829340000000  0.5364930000000 1.0
C      1  0.5210930000000  0.5095130000000  0.4539920000000 1.0
C      1  0.4593540000000  0.4793320000000  0.5040460000000 1.0
C      1  0.4711160000000  0.4820800000000  0.4771040000000 1.0
END
