TITL C-90460-7078-8 -0.00188828097147387 125000 -682.590971932734 0 0 99 (C1) n - 1
REM
REM in /rds/project/t2_vol4/rds-t2-cs072/BORA/CARBON/from-Arr/AIRSS/Generating-Clusters/GAP-ML-2020/Only-C1/SD-CG/HFTN-CG
REM
REM
REM
REM
REM
REM ./C.cell (11c1c37f851c82e70ff6c80c92926a4b)
REM AIRSS Version 0.9.1 bugfix July 2018 build 013d7b7c2542+ Fri, 06 Jul 2018 19:26:36 +0100
REM compiler GCC version 9.3.0
REM options -cpp -mtune=generic -march=x86-64 -g -O0
REM seed 1853519926 140866560 112430750 197710103 933026109 371091973 1474342454 895584509 26828911 823173083 1200931949 -214160261 1066961718 650041949 -142684542 344066050 -1883826089 -1123873532 1199145219 -1931000264 -106497930 1039946823 -585510322 -313272723 -611034107 1756918143 -661748509 -1591063452 371666579 -1046819982 973699949 379385166 1531602887
REM
CELL 1.54180   50.00000   50.00000   50.00000   90.00000   90.00000   90.00000
LATT -1
SFAC C  
C      1  0.5278190000000  0.4332140000000  0.5442700000000 1.0
C      1  0.5437570000000  0.4499450000000  0.4604950000000 1.0
C      1  0.5460360000000  0.4956010000000  0.4917410000000 1.0
C      1  0.4618880000000  0.4488090000000  0.5612490000000 1.0
C      1  0.4352570000000  0.4848110000000  0.4640270000000 1.0
C      1  0.5206420000000  0.5786960000000  0.4752100000000 1.0
C      1  0.5072180000000  0.5039830000000  0.5834360000000 1.0
C      1  0.4180480000000  0.4379670000000  0.4710100000000 1.0
C      1  0.4937340000000  0.5287590000000  0.5717520000000 1.0
C      1  0.5358260000000  0.5261670000000  0.4248560000000 1.0
C      1  0.4943920000000  0.4399360000000  0.4758030000000 1.0
C      1  0.4937980000000  0.5632820000000  0.5170010000000 1.0
C      1  0.4200450000000  0.4722600000000  0.5056050000000 1.0
C      1  0.5366500000000  0.5669170000000  0.5399220000000 1.0
C      1  0.5881290000000  0.5451810000000  0.4818380000000 1.0
C      1  0.5064230000000  0.4656030000000  0.4901030000000 1.0
C      1  0.5440530000000  0.4725940000000  0.5653330000000 1.0
C      1  0.5266540000000  0.4494340000000  0.5679150000000 1.0
C      1  0.4863480000000  0.5523640000000  0.4504830000000 1.0
C      1  0.4654260000000  0.5721260000000  0.4577100000000 1.0
C      1  0.4439560000000  0.4311360000000  0.4634670000000 1.0
C      1  0.4238860000000  0.5176770000000  0.5281130000000 1.0
C      1  0.5363600000000  0.5478530000000  0.5624730000000 1.0
C      1  0.4601940000000  0.4709120000000  0.4781300000000 1.0
C      1  0.5544320000000  0.5141550000000  0.5345100000000 1.0
C      1  0.4784140000000  0.4626990000000  0.5818870000000 1.0
C      1  0.4642260000000  0.4413540000000  0.4845900000000 1.0
C      1  0.5571610000000  0.4401690000000  0.4988980000000 1.0
C      1  0.5416400000000  0.5177920000000  0.4713410000000 1.0
C      1  0.4432980000000  0.5389010000000  0.5360050000000 1.0
C      1  0.5284360000000  0.4973820000000  0.5163810000000 1.0
C      1  0.4740500000000  0.4560310000000  0.4327530000000 1.0
C      1  0.5258800000000  0.4837150000000  0.4321660000000 1.0
C      1  0.5309650000000  0.4747060000000  0.4756100000000 1.0
C      1  0.4352270000000  0.4551140000000  0.5232830000000 1.0
C      1  0.5082830000000  0.5389060000000  0.5012830000000 1.0
C      1  0.4574910000000  0.4401760000000  0.5137250000000 1.0
C      1  0.4869250000000  0.5076630000000  0.4195840000000 1.0
C      1  0.4199010000000  0.5011940000000  0.5050280000000 1.0
C      1  0.4981110000000  0.4469860000000  0.4464200000000 1.0
C      1  0.5822930000000  0.4816860000000  0.4738110000000 1.0
C      1  0.4619730000000  0.5530420000000  0.5151330000000 1.0
C      1  0.5239330000000  0.4554600000000  0.4381380000000 1.0
C      1  0.4222620000000  0.4801450000000  0.5634600000000 1.0
C      1  0.4835920000000  0.4862150000000  0.4861010000000 1.0
C      1  0.4257490000000  0.5086070000000  0.4780860000000 1.0
C      1  0.5449460000000  0.4490310000000  0.5252000000000 1.0
C      1  0.5457410000000  0.5689160000000  0.4878090000000 1.0
C      1  0.5721390000000  0.4909820000000  0.5285810000000 1.0
C      1  0.4498980000000  0.5228340000000  0.4421360000000 1.0
C      1  0.4936000000000  0.4671890000000  0.5354100000000 1.0
C      1  0.5057090000000  0.5156950000000  0.5183120000000 1.0
C      1  0.4450700000000  0.5260920000000  0.5626510000000 1.0
C      1  0.5076940000000  0.5694740000000  0.5429770000000 1.0
C      1  0.4779040000000  0.4406600000000  0.5363930000000 1.0
C      1  0.5613220000000  0.5205330000000  0.4455910000000 1.0
C      1  0.4979150000000  0.5818850000000  0.4935780000000 1.0
C      1  0.4773360000000  0.5032550000000  0.5091450000000 1.0
C      1  0.4405390000000  0.5321580000000  0.4691700000000 1.0
C      1  0.4692530000000  0.4847370000000  0.4252010000000 1.0
C      1  0.4780240000000  0.4914090000000  0.5363640000000 1.0
C      1  0.4508200000000  0.5727690000000  0.4956690000000 1.0
C      1  0.5036390000000  0.4516910000000  0.5816760000000 1.0
C      1  0.5139650000000  0.5655550000000  0.4501230000000 1.0
C      1  0.5688990000000  0.5623390000000  0.4711390000000 1.0
C      1  0.4948230000000  0.5061020000000  0.4681210000000 1.0
C      1  0.4804380000000  0.4915130000000  0.5862610000000 1.0
C      1  0.5081410000000  0.5532580000000  0.5671620000000 1.0
C      1  0.5169440000000  0.4687780000000  0.5182320000000 1.0
C      1  0.4532900000000  0.4386420000000  0.4388560000000 1.0
C      1  0.4653830000000  0.5294140000000  0.4951830000000 1.0
C      1  0.4462190000000  0.4953640000000  0.4384300000000 1.0
C      1  0.5353960000000  0.5530340000000  0.4360860000000 1.0
C      1  0.4178940000000  0.4634590000000  0.4784390000000 1.0
C      1  0.5022530000000  0.4223440000000  0.5343390000000 1.0
C      1  0.5588360000000  0.5359430000000  0.5148970000000 1.0
C      1  0.5130540000000  0.4188260000000  0.4861790000000 1.0
C      1  0.5343640000000  0.4984750000000  0.5749920000000 1.0
C      1  0.4956970000000  0.5125030000000  0.5457590000000 1.0
C      1  0.5806660000000  0.5263980000000  0.4988030000000 1.0
C      1  0.4252980000000  0.5053850000000  0.5544760000000 1.0
C      1  0.5621860000000  0.5507650000000  0.4468100000000 1.0
C      1  0.5781520000000  0.4983780000000  0.4514160000000 1.0
C      1  0.4666280000000  0.5174090000000  0.5789640000000 1.0
C      1  0.5699710000000  0.4552220000000  0.4765910000000 1.0
C      1  0.5386890000000  0.4281900000000  0.4799290000000 1.0
C      1  0.4416390000000  0.5613230000000  0.4707460000000 1.0
C      1  0.4370330000000  0.4589510000000  0.5521690000000 1.0
C      1  0.5054380000000  0.4099390000000  0.5107080000000 1.0
C      1  0.5765870000000  0.4968630000000  0.4996130000000 1.0
C      1  0.5167270000000  0.5060390000000  0.4174880000000 1.0
C      1  0.5359770000000  0.5393130000000  0.4907160000000 1.0
C      1  0.5456900000000  0.5209010000000  0.5611250000000 1.0
C      1  0.5529330000000  0.5649810000000  0.5179100000000 1.0
C      1  0.5215750000000  0.4982670000000  0.4588660000000 1.0
C      1  0.5604260000000  0.4686680000000  0.5418470000000 1.0
C      1  0.4890190000000  0.5336890000000  0.4778990000000 1.0
C      1  0.4729080000000  0.5857890000000  0.4824610000000 1.0
C      1  0.4745350000000  0.5313470000000  0.4312650000000 1.0
END
