TITL C-90469-5980-8 -7.29387132495796 125000 -301.993968914356 0 0 45 (C1) n - 1
REM
REM in /rds/project/t2_vol4/rds-t2-cs072/BORA/CARBON/from-Arr/AIRSS/Generating-Clusters/GAP-ML-2020/Only-C1/SD-CG/HFTN-CG
REM
REM
REM
REM
REM
REM ./C.cell (11c1c37f851c82e70ff6c80c92926a4b)
REM AIRSS Version 0.9.1 bugfix July 2018 build 013d7b7c2542+ Fri, 06 Jul 2018 19:26:36 +0100
REM compiler GCC version 9.3.0
REM options -cpp -mtune=generic -march=x86-64 -g -O0
REM seed 929661775 -2135754398 -383083990 -1369721268 -1462192360 -1702836716 1462582887 -1346293252 539295860 730912819 -446446152 1179211998 1415212633 -2116119115 -687711217 -1098424878 -193961994 1104817767 2014253299 1657294888 983035658 -1818722488 -417278844 -1433990398 -986559014 245713789 1649179931 -830527790 -1005541566 1927561218 -1468542580 654643427 1633206099
REM
CELL 1.54180   50.00000   50.00000   50.00000   90.00000   90.00000   90.00000
LATT -1
SFAC C  
C      1  0.4839450000000  0.5482670000000  0.5213010000000 1.0
C      1  0.4742680000000  0.4908960000000  0.5485880000000 1.0
C      1  0.5182240000000  0.4862340000000  0.5378490000000 1.0
C      1  0.5053220000000  0.4432080000000  0.5164650000000 1.0
C      1  0.4828450000000  0.5538490000000  0.4657110000000 1.0
C      1  0.4753450000000  0.5051230000000  0.4520270000000 1.0
C      1  0.5603770000000  0.4577850000000  0.5255540000000 1.0
C      1  0.5481980000000  0.5157450000000  0.4789910000000 1.0
C      1  0.5446340000000  0.5205010000000  0.4499440000000 1.0
C      1  0.4950220000000  0.5720740000000  0.4827440000000 1.0
C      1  0.4542650000000  0.5520430000000  0.4653730000000 1.0
C      1  0.4477570000000  0.4961390000000  0.5373330000000 1.0
C      1  0.5174570000000  0.5244500000000  0.4379040000000 1.0
C      1  0.5439860000000  0.4966220000000  0.5389760000000 1.0
C      1  0.5262470000000  0.4942100000000  0.4773820000000 1.0
C      1  0.5530930000000  0.4422030000000  0.5065770000000 1.0
C      1  0.5270400000000  0.4475400000000  0.4980540000000 1.0
C      1  0.4947640000000  0.5282150000000  0.4565360000000 1.0
C      1  0.4650760000000  0.4428540000000  0.5483120000000 1.0
C      1  0.4816960000000  0.4633860000000  0.5529550000000 1.0
C      1  0.4630840000000  0.5301460000000  0.5094930000000 1.0
C      1  0.4910590000000  0.4835970000000  0.4429110000000 1.0
C      1  0.4462660000000  0.4754140000000  0.5158860000000 1.0
C      1  0.5006150000000  0.5096670000000  0.4811050000000 1.0
C      1  0.4539000000000  0.5041640000000  0.4712500000000 1.0
C      1  0.4446040000000  0.5215140000000  0.5296550000000 1.0
C      1  0.5259140000000  0.5691130000000  0.5239050000000 1.0
C      1  0.5005250000000  0.5694280000000  0.5090340000000 1.0
C      1  0.5475750000000  0.5232020000000  0.5273210000000 1.0
C      1  0.5279110000000  0.5429210000000  0.5344770000000 1.0
C      1  0.5366440000000  0.4928050000000  0.4451020000000 1.0
C      1  0.4955610000000  0.5033010000000  0.5319760000000 1.0
C      1  0.4946260000000  0.4633950000000  0.4629910000000 1.0
C      1  0.4790140000000  0.4438810000000  0.5049660000000 1.0
C      1  0.5201280000000  0.4651700000000  0.4772960000000 1.0
C      1  0.5135610000000  0.4960340000000  0.4302280000000 1.0
C      1  0.4605800000000  0.4843770000000  0.4925840000000 1.0
C      1  0.5076610000000  0.4598110000000  0.5400080000000 1.0
C      1  0.5013390000000  0.5322510000000  0.5359210000000 1.0
C      1  0.4578380000000  0.4498380000000  0.5233620000000 1.0
C      1  0.4826480000000  0.5056490000000  0.5036850000000 1.0
C      1  0.5644310000000  0.4771530000000  0.5421000000000 1.0
C      1  0.4750270000000  0.4604180000000  0.4827530000000 1.0
C      1  0.4515590000000  0.5306140000000  0.4817070000000 1.0
C      1  0.5583680000000  0.5247930000000  0.5017070000000 1.0
END
