TITL C-90460-7078-3 -0.0962430328933359 125000 -231.164923067402 0 0 35 (C1) n - 1
REM
REM in /rds/project/t2_vol4/rds-t2-cs072/BORA/CARBON/from-Arr/AIRSS/Generating-Clusters/GAP-ML-2020/Only-C1/SD-CG/HFTN-CG
REM
REM
REM
REM
REM
REM ./C.cell (11c1c37f851c82e70ff6c80c92926a4b)
REM AIRSS Version 0.9.1 bugfix July 2018 build 013d7b7c2542+ Fri, 06 Jul 2018 19:26:36 +0100
REM compiler GCC version 9.3.0
REM options -cpp -mtune=generic -march=x86-64 -g -O0
REM seed 1269977756 -169941283 -1849365282 3346970 -701338523 -249265449 -950804861 -1585892895 -1565062147 1410586221 1102406609 419983399 -382162053 1553091150 -1924748655 -1948675099 1811598998 -2065504501 -1820465746 1621596289 1953185747 -1526022178 892026130 1702064587 568860401 -1552616397 472425677 -401223085 -923504711 -107820050 -739525867 -2067335140 1294520079
REM
CELL 1.54180   50.00000   50.00000   50.00000   90.00000   90.00000   90.00000
LATT -1
SFAC C  
C      1  0.4635430000000  0.4928890000000  0.5507760000000 1.0
C      1  0.5511000000000  0.4477800000000  0.5080010000000 1.0
C      1  0.4764330000000  0.5396000000000  0.4743530000000 1.0
C      1  0.4538920000000  0.4863390000000  0.4768320000000 1.0
C      1  0.4767750000000  0.4442300000000  0.5022670000000 1.0
C      1  0.5357660000000  0.4972300000000  0.4948780000000 1.0
C      1  0.4662530000000  0.4699920000000  0.4965130000000 1.0
C      1  0.4834680000000  0.5193700000000  0.4555980000000 1.0
C      1  0.4889930000000  0.4851690000000  0.5129920000000 1.0
C      1  0.4389040000000  0.5096100000000  0.4873110000000 1.0
C      1  0.5168820000000  0.4802950000000  0.5071950000000 1.0
C      1  0.4788140000000  0.4717050000000  0.5387590000000 1.0
C      1  0.4995210000000  0.5482260000000  0.4908080000000 1.0
C      1  0.5689550000000  0.4658570000000  0.5068140000000 1.0
C      1  0.5277990000000  0.5157400000000  0.4742430000000 1.0
C      1  0.5259130000000  0.5431420000000  0.4808720000000 1.0
C      1  0.5633820000000  0.4929670000000  0.5010390000000 1.0
C      1  0.4498490000000  0.5345190000000  0.4815530000000 1.0
C      1  0.5092500000000  0.5065820000000  0.4556100000000 1.0
C      1  0.5042370000000  0.5481470000000  0.5209850000000 1.0
C      1  0.4764680000000  0.5110910000000  0.5146650000000 1.0
C      1  0.5705930000000  0.5412820000000  0.5031190000000 1.0
C      1  0.5241360000000  0.4526400000000  0.5055050000000 1.0
C      1  0.5035140000000  0.4548500000000  0.4634380000000 1.0
C      1  0.4758570000000  0.4455840000000  0.5314820000000 1.0
C      1  0.5305010000000  0.5572890000000  0.5243890000000 1.0
C      1  0.4982530000000  0.4789980000000  0.4546600000000 1.0
C      1  0.5450630000000  0.5513070000000  0.5017940000000 1.0
C      1  0.5773030000000  0.5170000000000  0.5026410000000 1.0
C      1  0.5024440000000  0.4427330000000  0.4888410000000 1.0
C      1  0.4880210000000  0.5293290000000  0.5350180000000 1.0
C      1  0.4718020000000  0.4928700000000  0.4563070000000 1.0
C      1  0.4487930000000  0.5034400000000  0.5283580000000 1.0
C      1  0.4804110000000  0.5160190000000  0.5584400000000 1.0
C      1  0.4271150000000  0.5061780000000  0.5139410000000 1.0
END
