TITL C-90460-7078-7 4.14833728484925 125000 -930.271246218561 0 0 133 (C1) n - 1
REM
REM in /rds/project/t2_vol4/rds-t2-cs072/BORA/CARBON/from-Arr/AIRSS/Generating-Clusters/GAP-ML-2020/Only-C1/SD-CG/HFTN-CG
REM
REM
REM
REM
REM
REM ./C.cell (11c1c37f851c82e70ff6c80c92926a4b)
REM AIRSS Version 0.9.1 bugfix July 2018 build 013d7b7c2542+ Fri, 06 Jul 2018 19:26:36 +0100
REM compiler GCC version 9.3.0
REM options -cpp -mtune=generic -march=x86-64 -g -O0
REM seed -2090616430 669929154 694857840 1225865775 -845087863 1435018309 2039692016 420083513 -1819359010 375688717 676104978 515947747 -1946718873 470296464 1251649614 2038311754 1261582253 1718329984 -332926179 1584630547 -334523508 768386981 -907745454 1551016704 1545324011 1735021664 401819166 -1348457221 -489206153 345334769 539995010 -1739744622 -889895965
REM
CELL 1.54180   50.00000   50.00000   50.00000   90.00000   90.00000   90.00000
LATT -1
SFAC C  
C      1  0.5368800000000  0.4605470000000  0.5225490000000 1.0
C      1  0.4587560000000  0.4315840000000  0.5546540000000 1.0
C      1  0.4785690000000  0.4962500000000  0.5850420000000 1.0
C      1  0.4586720000000  0.5554990000000  0.4554160000000 1.0
C      1  0.5831640000000  0.5147470000000  0.4858770000000 1.0
C      1  0.4830050000000  0.4976470000000  0.4574780000000 1.0
C      1  0.4873500000000  0.4965570000000  0.5391110000000 1.0
C      1  0.4173570000000  0.4937610000000  0.4632310000000 1.0
C      1  0.5375430000000  0.4864120000000  0.4459950000000 1.0
C      1  0.5397710000000  0.5047150000000  0.5079360000000 1.0
C      1  0.4609230000000  0.4731080000000  0.5838550000000 1.0
C      1  0.5175820000000  0.4119170000000  0.4644950000000 1.0
C      1  0.4310830000000  0.4674480000000  0.4600720000000 1.0
C      1  0.5193750000000  0.4110720000000  0.5116200000000 1.0
C      1  0.5515930000000  0.5812030000000  0.4638140000000 1.0
C      1  0.4360810000000  0.4399940000000  0.5389090000000 1.0
C      1  0.5029550000000  0.4056070000000  0.4884040000000 1.0
C      1  0.4805550000000  0.4692510000000  0.4616180000000 1.0
C      1  0.5349340000000  0.5147880000000  0.4097130000000 1.0
C      1  0.5439180000000  0.4206310000000  0.4732210000000 1.0
C      1  0.5778760000000  0.4384140000000  0.5385880000000 1.0
C      1  0.5454140000000  0.5334060000000  0.5609920000000 1.0
C      1  0.5660660000000  0.4883510000000  0.4542190000000 1.0
C      1  0.4348930000000  0.5199260000000  0.5472620000000 1.0
C      1  0.4566460000000  0.4591250000000  0.4775480000000 1.0
C      1  0.4275330000000  0.4675520000000  0.5278690000000 1.0
C      1  0.4314090000000  0.5606620000000  0.4677020000000 1.0
C      1  0.4356790000000  0.4230950000000  0.5162060000000 1.0
C      1  0.4923100000000  0.5474230000000  0.5241070000000 1.0
C      1  0.5608580000000  0.4436050000000  0.5142560000000 1.0
C      1  0.5303360000000  0.4576120000000  0.4518270000000 1.0
C      1  0.5685930000000  0.5376690000000  0.4440920000000 1.0
C      1  0.4173060000000  0.5045190000000  0.4891170000000 1.0
C      1  0.4958600000000  0.4585080000000  0.5187110000000 1.0
C      1  0.4579440000000  0.5617660000000  0.5577840000000 1.0
C      1  0.5787480000000  0.5618270000000  0.4899510000000 1.0
C      1  0.4698070000000  0.5119460000000  0.4809320000000 1.0
C      1  0.4768010000000  0.5405440000000  0.4759630000000 1.0
C      1  0.4907620000000  0.5096420000000  0.5006710000000 1.0
C      1  0.5421520000000  0.4976960000000  0.5821180000000 1.0
C      1  0.5623920000000  0.4357690000000  0.5637730000000 1.0
C      1  0.5151410000000  0.4496540000000  0.5395760000000 1.0
C      1  0.4454260000000  0.4940020000000  0.4221280000000 1.0
C      1  0.4050560000000  0.5299050000000  0.4887050000000 1.0
C      1  0.4272000000000  0.4902560000000  0.5498550000000 1.0
C      1  0.4082850000000  0.4588850000000  0.5058340000000 1.0
C      1  0.5082890000000  0.5332960000000  0.4647720000000 1.0
C      1  0.4614070000000  0.4107040000000  0.5133510000000 1.0
C      1  0.5066820000000  0.5746760000000  0.4860920000000 1.0
C      1  0.6011930000000  0.4525750000000  0.5372390000000 1.0
C      1  0.4854010000000  0.5697470000000  0.5486330000000 1.0
C      1  0.5346900000000  0.4875190000000  0.4172890000000 1.0
C      1  0.5416500000000  0.5925600000000  0.5161920000000 1.0
C      1  0.5162010000000  0.4961920000000  0.4925190000000 1.0
C      1  0.4107750000000  0.5485000000000  0.5085830000000 1.0
C      1  0.4512190000000  0.5201820000000  0.5224060000000 1.0
C      1  0.4519230000000  0.4747370000000  0.5069900000000 1.0
C      1  0.4125200000000  0.5396990000000  0.4629390000000 1.0
C      1  0.5482530000000  0.5375160000000  0.4233370000000 1.0
C      1  0.5341800000000  0.5335040000000  0.5055480000000 1.0
C      1  0.5769280000000  0.5140500000000  0.4583340000000 1.0
C      1  0.5130920000000  0.5044970000000  0.4627870000000 1.0
C      1  0.5423270000000  0.5852540000000  0.5453390000000 1.0
C      1  0.4903360000000  0.5913090000000  0.5275240000000 1.0
C      1  0.4532200000000  0.5357850000000  0.5688010000000 1.0
C      1  0.5420210000000  0.4188570000000  0.5716780000000 1.0
C      1  0.5889700000000  0.5234110000000  0.5302270000000 1.0
C      1  0.4875760000000  0.5013360000000  0.4074720000000 1.0
C      1  0.5009330000000  0.4925780000000  0.5660860000000 1.0
C      1  0.4456460000000  0.5033770000000  0.4990640000000 1.0
C      1  0.5144950000000  0.4669780000000  0.4979050000000 1.0
C      1  0.5133070000000  0.4636120000000  0.5690380000000 1.0
C      1  0.5578830000000  0.5829930000000  0.4938110000000 1.0
C      1  0.4981510000000  0.4408020000000  0.5792320000000 1.0
C      1  0.5538430000000  0.4441700000000  0.4614100000000 1.0
C      1  0.4120940000000  0.4520660000000  0.4786540000000 1.0
C      1  0.4750680000000  0.4743200000000  0.5259590000000 1.0
C      1  0.5371980000000  0.4702220000000  0.5854490000000 1.0
C      1  0.5593740000000  0.4917780000000  0.5568580000000 1.0
C      1  0.4369270000000  0.5671760000000  0.5401060000000 1.0
C      1  0.4757520000000  0.4154270000000  0.5377100000000 1.0
C      1  0.4798930000000  0.5737700000000  0.4432410000000 1.0
C      1  0.5133900000000  0.5911220000000  0.5097850000000 1.0
C      1  0.5669430000000  0.4940440000000  0.4999770000000 1.0
C      1  0.4587320000000  0.5376270000000  0.4294620000000 1.0
C      1  0.4649020000000  0.4289130000000  0.4690120000000 1.0
C      1  0.5871420000000  0.5373990000000  0.5028020000000 1.0
C      1  0.6029220000000  0.4730190000000  0.5182050000000 1.0
C      1  0.4747820000000  0.4106320000000  0.4883850000000 1.0
C      1  0.4706900000000  0.4460160000000  0.5765130000000 1.0
C      1  0.4166830000000  0.4327670000000  0.4977250000000 1.0
C      1  0.4373760000000  0.4804170000000  0.5727860000000 1.0
C      1  0.5152710000000  0.4177460000000  0.5681520000000 1.0
C      1  0.5042150000000  0.4224070000000  0.4404860000000 1.0
C      1  0.4345340000000  0.5198980000000  0.4244610000000 1.0
C      1  0.5031330000000  0.5821670000000  0.4567630000000 1.0
C      1  0.5609040000000  0.4621970000000  0.5730990000000 1.0
C      1  0.4432470000000  0.4682760000000  0.4326710000000 1.0
C      1  0.5206500000000  0.5451840000000  0.5263350000000 1.0
C      1  0.4262710000000  0.5686390000000  0.4951730000000 1.0
C      1  0.5226290000000  0.5171560000000  0.5744240000000 1.0
C      1  0.5016700000000  0.5374880000000  0.5812480000000 1.0
C      1  0.4748070000000  0.5250390000000  0.5834680000000 1.0
C      1  0.5061670000000  0.4181300000000  0.5387740000000 1.0
C      1  0.6041910000000  0.4997090000000  0.5252990000000 1.0
C      1  0.5431400000000  0.4874040000000  0.5315860000000 1.0
C      1  0.5332740000000  0.5566650000000  0.5498150000000 1.0
C      1  0.5074300000000  0.5641780000000  0.5679330000000 1.0
C      1  0.4713010000000  0.5084580000000  0.4298780000000 1.0
C      1  0.5689430000000  0.5201230000000  0.5514340000000 1.0
C      1  0.5160810000000  0.4653540000000  0.4109550000000 1.0
C      1  0.4771190000000  0.4302950000000  0.4428390000000 1.0
C      1  0.4174170000000  0.5169560000000  0.4463790000000 1.0
C      1  0.5048590000000  0.5487410000000  0.4111080000000 1.0
C      1  0.4690780000000  0.5848270000000  0.5096760000000 1.0
C      1  0.5256370000000  0.5471540000000  0.4819190000000 1.0
C      1  0.5266500000000  0.5881510000000  0.5682800000000 1.0
C      1  0.4712430000000  0.4578380000000  0.4321530000000 1.0
C      1  0.5450590000000  0.4205070000000  0.5012080000000 1.0
C      1  0.5082340000000  0.5213140000000  0.4033530000000 1.0
C      1  0.5294000000000  0.5592080000000  0.4235030000000 1.0
C      1  0.5724770000000  0.4644460000000  0.4691030000000 1.0
C      1  0.4894200000000  0.4728030000000  0.4109010000000 1.0
C      1  0.5069050000000  0.4568070000000  0.4725760000000 1.0
C      1  0.5769040000000  0.4661100000000  0.4977970000000 1.0
C      1  0.5721360000000  0.5606410000000  0.4610570000000 1.0
C      1  0.4808110000000  0.5204940000000  0.5251620000000 1.0
C      1  0.4794620000000  0.5572140000000  0.4198520000000 1.0
C      1  0.4210130000000  0.5439300000000  0.5348750000000 1.0
C      1  0.4831120000000  0.5609130000000  0.4974950000000 1.0
C      1  0.5292960000000  0.5792780000000  0.4446290000000 1.0
C      1  0.5199550000000  0.4435040000000  0.4287900000000 1.0
C      1  0.4424200000000  0.5810220000000  0.5153730000000 1.0
END
