TITL C-90455-6221-6 -0.0237258592974987 125000 -457.024440009464 0 0 67 (C1) n - 1
REM
REM in /rds/project/t2_vol4/rds-t2-cs072/BORA/CARBON/from-Arr/AIRSS/Generating-Clusters/GAP-ML-2020/Only-C1/SD-CG/HFTN-CG
REM
REM
REM
REM
REM
REM ./C.cell (11c1c37f851c82e70ff6c80c92926a4b)
REM AIRSS Version 0.9.1 bugfix July 2018 build 013d7b7c2542+ Fri, 06 Jul 2018 19:26:36 +0100
REM compiler GCC version 9.3.0
REM options -cpp -mtune=generic -march=x86-64 -g -O0
REM seed 861257081 -204506761 1181701968 1970800112 -702639594 1759048004 -405483428 970637118 -1929438435 -1982479663 520044059 743608276 1301388736 1398221688 1515904014 -1155839016 -1131081087 -161675925 558118190 977248610 658425099 -1399786129 1602408756 1073287903 2111485643 -1128444252 1447214726 1127637632 1897307756 -1067678896 634806039 -784380386 2072091752
REM
CELL 1.54180   50.00000   50.00000   50.00000   90.00000   90.00000   90.00000
LATT -1
SFAC C  
C      1  0.4962740000000  0.5125620000000  0.5719370000000 1.0
C      1  0.4285850000000  0.5356040000000  0.5203910000000 1.0
C      1  0.4812460000000  0.4333710000000  0.4831720000000 1.0
C      1  0.5669930000000  0.4841860000000  0.5126760000000 1.0
C      1  0.5505080000000  0.5521310000000  0.5015440000000 1.0
C      1  0.5033660000000  0.4505240000000  0.4449340000000 1.0
C      1  0.5056560000000  0.4336890000000  0.5005940000000 1.0
C      1  0.4946320000000  0.4349550000000  0.5265950000000 1.0
C      1  0.5437520000000  0.5067350000000  0.5538240000000 1.0
C      1  0.4307300000000  0.5270210000000  0.4927980000000 1.0
C      1  0.4975140000000  0.5296320000000  0.4481130000000 1.0
C      1  0.4589470000000  0.5716040000000  0.5096590000000 1.0
C      1  0.5593470000000  0.4651110000000  0.4919920000000 1.0
C      1  0.5567310000000  0.4845770000000  0.5388920000000 1.0
C      1  0.5022310000000  0.5101050000000  0.4721530000000 1.0
C      1  0.4979780000000  0.5453020000000  0.5522820000000 1.0
C      1  0.5035370000000  0.4771650000000  0.4326040000000 1.0
C      1  0.5466760000000  0.5111360000000  0.4431730000000 1.0
C      1  0.4380190000000  0.4799970000000  0.4709120000000 1.0
C      1  0.5688840000000  0.5011950000000  0.4588180000000 1.0
C      1  0.4218530000000  0.5166600000000  0.5386110000000 1.0
C      1  0.4316350000000  0.4908400000000  0.5366080000000 1.0
C      1  0.4502790000000  0.5531450000000  0.5284470000000 1.0
C      1  0.4784890000000  0.4917140000000  0.5087930000000 1.0
C      1  0.5011280000000  0.5272230000000  0.4967960000000 1.0
C      1  0.5245270000000  0.5598610000000  0.5098590000000 1.0
C      1  0.4765390000000  0.5198380000000  0.4335150000000 1.0
C      1  0.5456920000000  0.4653170000000  0.4475170000000 1.0
C      1  0.5575910000000  0.5427800000000  0.4757520000000 1.0
C      1  0.4553160000000  0.4844840000000  0.5524160000000 1.0
C      1  0.4626050000000  0.4898120000000  0.4590240000000 1.0
C      1  0.5298790000000  0.4484720000000  0.4877760000000 1.0
C      1  0.5653890000000  0.4737570000000  0.4656090000000 1.0
C      1  0.5736920000000  0.5191030000000  0.4792350000000 1.0
C      1  0.4381700000000  0.4601420000000  0.4923410000000 1.0
C      1  0.4657250000000  0.4404300000000  0.5260140000000 1.0
C      1  0.5193410000000  0.4963650000000  0.5643200000000 1.0
C      1  0.5458800000000  0.5327970000000  0.5431700000000 1.0
C      1  0.5391040000000  0.5384840000000  0.4548270000000 1.0
C      1  0.4572720000000  0.5347500000000  0.4819950000000 1.0
C      1  0.4823420000000  0.4380180000000  0.4562510000000 1.0
C      1  0.4250420000000  0.4995170000000  0.4885510000000 1.0
C      1  0.4856970000000  0.4863520000000  0.4799710000000 1.0
C      1  0.4594360000000  0.5209030000000  0.4564630000000 1.0
C      1  0.5066550000000  0.4858620000000  0.5180680000000 1.0
C      1  0.4749880000000  0.5204170000000  0.5091990000000 1.0
C      1  0.5135530000000  0.5508210000000  0.4584500000000 1.0
C      1  0.5130570000000  0.4732390000000  0.4911400000000 1.0
C      1  0.4790280000000  0.4908700000000  0.4329830000000 1.0
C      1  0.5001410000000  0.5393030000000  0.5797710000000 1.0
C      1  0.4730150000000  0.5611480000000  0.4889450000000 1.0
C      1  0.5400930000000  0.4633580000000  0.5399500000000 1.0
C      1  0.5033590000000  0.5563160000000  0.4874730000000 1.0
C      1  0.5230000000000  0.5498060000000  0.5377510000000 1.0
C      1  0.4717600000000  0.5331360000000  0.5386260000000 1.0
C      1  0.4265160000000  0.4798410000000  0.5105600000000 1.0
C      1  0.4946470000000  0.4515160000000  0.5505040000000 1.0
C      1  0.4703120000000  0.5087530000000  0.5577760000000 1.0
C      1  0.5276420000000  0.4982350000000  0.4823870000000 1.0
C      1  0.5141090000000  0.4720940000000  0.5483490000000 1.0
C      1  0.5316770000000  0.4868380000000  0.4354270000000 1.0
C      1  0.4662760000000  0.4583040000000  0.5488000000000 1.0
C      1  0.5737950000000  0.5115400000000  0.5063340000000 1.0
C      1  0.5630390000000  0.5342930000000  0.5204590000000 1.0
C      1  0.4579930000000  0.4413300000000  0.4988820000000 1.0
C      1  0.5288210000000  0.4460470000000  0.4581110000000 1.0
C      1  0.5222960000000  0.5095680000000  0.5091310000000 1.0
END
