TITL C-90473-6096-3 -381.468507013097 125000 -817.567912941397 0 0 116 (C1) n - 1
REM
REM in /rds/project/t2_vol4/rds-t2-cs072/BORA/CARBON/from-Arr/AIRSS/Generating-Clusters/GAP-ML-2020/Only-C1/SD-CG/HFTN-CG
REM
REM
REM
REM
REM
REM ./C.cell (11c1c37f851c82e70ff6c80c92926a4b)
REM AIRSS Version 0.9.1 bugfix July 2018 build 013d7b7c2542+ Fri, 06 Jul 2018 19:26:36 +0100
REM compiler GCC version 9.3.0
REM options -cpp -mtune=generic -march=x86-64 -g -O0
REM seed 875238562 -1074032873 2094643569 -616634009 -1764534021 478894751 -1441228835 -568136842 1102678613 903524312 1844024156 -971852379 -551817449 -1923521565 664465841 1062973846 -1991394554 -715998494 2131834667 -1140841252 -151576940 -1506206290 -799879984 -1712100481 -1786856007 1259695960 -1239406978 -1535506544 -54815949 516864043 -2078386905 1388545829 -709978085
REM
CELL 1.54180   50.00000   50.00000   50.00000   90.00000   90.00000   90.00000
LATT -1
SFAC C  
C      1  0.4714530000000  0.5031770000000  0.5226850000000 1.0
C      1  0.4263340000000  0.4392000000000  0.4779580000000 1.0
C      1  0.5394030000000  0.5344060000000  0.5307560000000 1.0
C      1  0.5089730000000  0.4874910000000  0.4906000000000 1.0
C      1  0.5129900000000  0.5867120000000  0.4678380000000 1.0
C      1  0.5182610000000  0.4316870000000  0.4791120000000 1.0
C      1  0.5130220000000  0.5182860000000  0.4932600000000 1.0
C      1  0.4945640000000  0.4987080000000  0.4486990000000 1.0
C      1  0.4403990000000  0.5067000000000  0.5711970000000 1.0
C      1  0.5196850000000  0.4683620000000  0.5290330000000 1.0
C      1  0.5186940000000  0.5020500000000  0.3924270000000 1.0
C      1  0.4740270000000  0.5340680000000  0.5882230000000 1.0
C      1  0.4794250000000  0.4779050000000  0.4006500000000 1.0
C      1  0.4940780000000  0.5319850000000  0.4766190000000 1.0
C      1  0.4962880000000  0.4207470000000  0.5467240000000 1.0
C      1  0.5456340000000  0.4673850000000  0.5851090000000 1.0
C      1  0.5973350000000  0.5080980000000  0.5101140000000 1.0
C      1  0.4670810000000  0.5806800000000  0.4613400000000 1.0
C      1  0.4951960000000  0.5491840000000  0.5767520000000 1.0
C      1  0.5826700000000  0.4639840000000  0.4916350000000 1.0
C      1  0.4705650000000  0.4606440000000  0.4212700000000 1.0
C      1  0.5362460000000  0.4237340000000  0.5362850000000 1.0
C      1  0.5254430000000  0.5814110000000  0.5307200000000 1.0
C      1  0.5195250000000  0.4572470000000  0.4151640000000 1.0
C      1  0.5009090000000  0.5274140000000  0.4481450000000 1.0
C      1  0.5195290000000  0.4306800000000  0.5614830000000 1.0
C      1  0.4665190000000  0.4975350000000  0.4645980000000 1.0
C      1  0.4922630000000  0.4614290000000  0.5251470000000 1.0
C      1  0.5408300000000  0.5099840000000  0.4075870000000 1.0
C      1  0.4100130000000  0.4595000000000  0.4688720000000 1.0
C      1  0.4513620000000  0.5340300000000  0.5707900000000 1.0
C      1  0.5091620000000  0.4796200000000  0.4628930000000 1.0
C      1  0.4808770000000  0.5691360000000  0.4394820000000 1.0
C      1  0.4486570000000  0.5503200000000  0.5225820000000 1.0
C      1  0.4961490000000  0.5195420000000  0.3925590000000 1.0
C      1  0.4750310000000  0.4455220000000  0.4736970000000 1.0
C      1  0.4585160000000  0.4277210000000  0.5146460000000 1.0
C      1  0.5092150000000  0.5731160000000  0.4432760000000 1.0
C      1  0.5471220000000  0.4631460000000  0.4260690000000 1.0
C      1  0.4642030000000  0.4728290000000  0.4829780000000 1.0
C      1  0.5121460000000  0.4129370000000  0.5240700000000 1.0
C      1  0.4295000000000  0.4533350000000  0.4503870000000 1.0
C      1  0.5440950000000  0.5742340000000  0.5084920000000 1.0
C      1  0.4566490000000  0.4520880000000  0.5592330000000 1.0
C      1  0.4454900000000  0.5673160000000  0.4756500000000 1.0
C      1  0.5419160000000  0.4439300000000  0.4903900000000 1.0
C      1  0.5408150000000  0.5151280000000  0.4862980000000 1.0
C      1  0.4058900000000  0.4761610000000  0.5134120000000 1.0
C      1  0.5593180000000  0.5373040000000  0.4814380000000 1.0
C      1  0.5377180000000  0.5474750000000  0.5581150000000 1.0
C      1  0.4762480000000  0.4249600000000  0.4933340000000 1.0
C      1  0.5807010000000  0.4696720000000  0.5417890000000 1.0
C      1  0.4940880000000  0.5138930000000  0.5361630000000 1.0
C      1  0.5252070000000  0.5108890000000  0.5988860000000 1.0
C      1  0.5816570000000  0.4939250000000  0.4901180000000 1.0
C      1  0.5949680000000  0.4931890000000  0.5356870000000 1.0
C      1  0.5030110000000  0.4173920000000  0.4979470000000 1.0
C      1  0.4030650000000  0.4813970000000  0.4855370000000 1.0
C      1  0.5083110000000  0.4759890000000  0.3975420000000 1.0
C      1  0.5766230000000  0.4531980000000  0.5186060000000 1.0
C      1  0.4789050000000  0.5843210000000  0.5076870000000 1.0
C      1  0.4204830000000  0.4545540000000  0.5242910000000 1.0
C      1  0.4587210000000  0.5186880000000  0.4209590000000 1.0
C      1  0.4776710000000  0.5081920000000  0.5986100000000 1.0
C      1  0.5576290000000  0.4724400000000  0.5602680000000 1.0
C      1  0.4256830000000  0.4914840000000  0.5523380000000 1.0
C      1  0.4232700000000  0.5165100000000  0.5066560000000 1.0
C      1  0.5372160000000  0.5775830000000  0.4809460000000 1.0
C      1  0.5100680000000  0.5045010000000  0.5575290000000 1.0
C      1  0.4571160000000  0.5530290000000  0.5496910000000 1.0
C      1  0.5346690000000  0.5743750000000  0.5554570000000 1.0
C      1  0.4957170000000  0.5432750000000  0.4046290000000 1.0
C      1  0.4732780000000  0.4381770000000  0.5389440000000 1.0
C      1  0.5332970000000  0.4881630000000  0.5476010000000 1.0
C      1  0.4954880000000  0.5797350000000  0.5315010000000 1.0
C      1  0.4537930000000  0.5707530000000  0.5041860000000 1.0
C      1  0.5856520000000  0.5336830000000  0.5202790000000 1.0
C      1  0.4579680000000  0.4913520000000  0.5874650000000 1.0
C      1  0.5276130000000  0.5480330000000  0.4426240000000 1.0
C      1  0.4241310000000  0.5206220000000  0.4579730000000 1.0
C      1  0.4674680000000  0.5230250000000  0.4814280000000 1.0
C      1  0.4310630000000  0.5468260000000  0.4643950000000 1.0
C      1  0.5605900000000  0.4505400000000  0.4464190000000 1.0
C      1  0.4461150000000  0.4693470000000  0.4341940000000 1.0
C      1  0.5112380000000  0.5294570000000  0.5198010000000 1.0
C      1  0.4784960000000  0.5416070000000  0.4288670000000 1.0
C      1  0.4971420000000  0.4667180000000  0.5896150000000 1.0
C      1  0.5525160000000  0.4955720000000  0.5047860000000 1.0
C      1  0.4122450000000  0.5081560000000  0.4811910000000 1.0
C      1  0.5597990000000  0.5481050000000  0.5109010000000 1.0
C      1  0.5200650000000  0.5321040000000  0.5756300000000 1.0
C      1  0.4835200000000  0.5645440000000  0.5540400000000 1.0
C      1  0.5318610000000  0.4731420000000  0.5030530000000 1.0
C      1  0.5743430000000  0.5138750000000  0.4680770000000 1.0
C      1  0.5507120000000  0.5074820000000  0.5325620000000 1.0
C      1  0.4719550000000  0.5053830000000  0.3999750000000 1.0
C      1  0.5541310000000  0.4350010000000  0.5171600000000 1.0
C      1  0.5458620000000  0.5563930000000  0.4648040000000 1.0
C      1  0.4802040000000  0.4802630000000  0.5064370000000 1.0
C      1  0.4870160000000  0.5903800000000  0.4803600000000 1.0
C      1  0.4454170000000  0.5024530000000  0.4414860000000 1.0
C      1  0.4137840000000  0.4992220000000  0.5275100000000 1.0
C      1  0.5800350000000  0.5161930000000  0.5418370000000 1.0
C      1  0.5557030000000  0.4909420000000  0.4229420000000 1.0
C      1  0.5418460000000  0.4901450000000  0.6006910000000 1.0
C      1  0.5643990000000  0.5124260000000  0.4415090000000 1.0
C      1  0.5650550000000  0.4501710000000  0.4731020000000 1.0
C      1  0.4967310000000  0.4473330000000  0.4307030000000 1.0
C      1  0.5463240000000  0.5308450000000  0.4275040000000 1.0
C      1  0.5010280000000  0.4484890000000  0.4604890000000 1.0
C      1  0.5014180000000  0.4937180000000  0.6016220000000 1.0
C      1  0.4325100000000  0.4633710000000  0.5488530000000 1.0
C      1  0.5201980000000  0.4511230000000  0.5813770000000 1.0
C      1  0.4692930000000  0.4660940000000  0.5807410000000 1.0
C      1  0.4529720000000  0.5233520000000  0.5083030000000 1.0
C      1  0.4335150000000  0.4369470000000  0.5059290000000 1.0
END
