TITL C-90459-5927-9 19.6518154122521 125000 -218.799923719036 0 0 32 (C1) n - 1
REM
REM in /rds/project/t2_vol4/rds-t2-cs072/BORA/CARBON/from-Arr/AIRSS/Generating-Clusters/GAP-ML-2020/Only-C1/SD-CG/HFTN-CG
REM
REM
REM
REM
REM
REM ./C.cell (11c1c37f851c82e70ff6c80c92926a4b)
REM AIRSS Version 0.9.1 bugfix July 2018 build 013d7b7c2542+ Fri, 06 Jul 2018 19:26:36 +0100
REM compiler GCC version 9.3.0
REM options -cpp -mtune=generic -march=x86-64 -g -O0
REM seed -1973744830 -198647161 -95794089 -808518112 1562272885 -1150427511 1999410367 2067024444 742883785 1713934096 -1183048549 1934448406 1095719265 359151318 1264282959 -1584300537 470837881 -775545848 -1471179937 48713726 -684734934 722123565 -2058365792 628613558 873108570 -287591641 1421876115 -1240433802 220680415 -211373895 -644327969 1098838329 1808197086
REM
CELL 1.54180   50.00000   50.00000   50.00000   90.00000   90.00000   90.00000
LATT -1
SFAC C  
C      1  0.5150460000000  0.5194140000000  0.4665880000000 1.0
C      1  0.5496520000000  0.5185130000000  0.5012480000000 1.0
C      1  0.4597770000000  0.5152610000000  0.4696360000000 1.0
C      1  0.5539840000000  0.4904810000000  0.4980970000000 1.0
C      1  0.5155080000000  0.5469200000000  0.5116620000000 1.0
C      1  0.5471930000000  0.4856750000000  0.5269210000000 1.0
C      1  0.4865180000000  0.4490670000000  0.4799660000000 1.0
C      1  0.4601150000000  0.5177100000000  0.5369350000000 1.0
C      1  0.4498010000000  0.5061710000000  0.5129830000000 1.0
C      1  0.4941980000000  0.5635600000000  0.5157210000000 1.0
C      1  0.5278950000000  0.4529140000000  0.4795440000000 1.0
C      1  0.4836920000000  0.4922740000000  0.4443150000000 1.0
C      1  0.5418300000000  0.4778240000000  0.4769610000000 1.0
C      1  0.4610400000000  0.4861090000000  0.4608340000000 1.0
C      1  0.5064490000000  0.4531820000000  0.4592900000000 1.0
C      1  0.5273070000000  0.5323400000000  0.4891730000000 1.0
C      1  0.4652160000000  0.4679930000000  0.4832730000000 1.0
C      1  0.5310520000000  0.4672350000000  0.5365620000000 1.0
C      1  0.4437230000000  0.5212520000000  0.4901580000000 1.0
C      1  0.5065820000000  0.4612500000000  0.5241070000000 1.0
C      1  0.4756200000000  0.5675040000000  0.5336320000000 1.0
C      1  0.5218700000000  0.5307900000000  0.5360330000000 1.0
C      1  0.5278790000000  0.4944580000000  0.4573270000000 1.0
C      1  0.4749960000000  0.5414510000000  0.5426230000000 1.0
C      1  0.4983920000000  0.5244540000000  0.5509450000000 1.0
C      1  0.5076820000000  0.4776760000000  0.4454120000000 1.0
C      1  0.4622900000000  0.4799140000000  0.5092800000000 1.0
C      1  0.4868410000000  0.5184720000000  0.4570730000000 1.0
C      1  0.5439770000000  0.5147860000000  0.5299820000000 1.0
C      1  0.5080510000000  0.4470360000000  0.4999190000000 1.0
C      1  0.4825340000000  0.5006080000000  0.5453840000000 1.0
C      1  0.4832900000000  0.4777060000000  0.5284150000000 1.0
END
