TITL C-90473-6096-5 142.347874741407 125000 -484.508705798326 0 0 72 (C1) n - 1
REM
REM in /rds/project/t2_vol4/rds-t2-cs072/BORA/CARBON/from-Arr/AIRSS/Generating-Clusters/GAP-ML-2020/Only-C1/SD-CG/HFTN-CG
REM
REM
REM
REM
REM
REM ./C.cell (11c1c37f851c82e70ff6c80c92926a4b)
REM AIRSS Version 0.9.1 bugfix July 2018 build 013d7b7c2542+ Fri, 06 Jul 2018 19:26:36 +0100
REM compiler GCC version 9.3.0
REM options -cpp -mtune=generic -march=x86-64 -g -O0
REM seed -463711305 -1880528327 1372518636 -909111147 667295181 1327096414 -2069998811 1152829217 2100981850 -1926986581 367628410 -2012311663 428972610 -2058271997 568153607 1316404931 -1797182312 -173421741 1437759973 682485514 59767081 736057355 525681763 -1765011632 -2121614912 -1947641144 -205829255 136878441 1060415914 1926126803 -414656460 -1358460282 1727226050
REM
CELL 1.54180   50.00000   50.00000   50.00000   90.00000   90.00000   90.00000
LATT -1
SFAC C  
C      1  0.4984150000000  0.5608370000000  0.5162120000000 1.0
C      1  0.5363240000000  0.4606460000000  0.5637140000000 1.0
C      1  0.4394090000000  0.4615040000000  0.5478930000000 1.0
C      1  0.4461830000000  0.4842620000000  0.4765530000000 1.0
C      1  0.5133240000000  0.4988300000000  0.5506040000000 1.0
C      1  0.5465280000000  0.4452870000000  0.4948690000000 1.0
C      1  0.4852620000000  0.5511760000000  0.5383480000000 1.0
C      1  0.5177220000000  0.5587000000000  0.4443710000000 1.0
C      1  0.4977230000000  0.4987270000000  0.5774200000000 1.0
C      1  0.4830090000000  0.5077190000000  0.4679150000000 1.0
C      1  0.4278540000000  0.5161150000000  0.5002580000000 1.0
C      1  0.5253390000000  0.4901630000000  0.5053460000000 1.0
C      1  0.4280920000000  0.4393880000000  0.4724930000000 1.0
C      1  0.4949870000000  0.5429570000000  0.4931790000000 1.0
C      1  0.4910720000000  0.4677530000000  0.4819050000000 1.0
C      1  0.5437900000000  0.5457410000000  0.4449410000000 1.0
C      1  0.4608480000000  0.5584030000000  0.4660060000000 1.0
C      1  0.5407860000000  0.4879720000000  0.5567560000000 1.0
C      1  0.4334760000000  0.4750320000000  0.5243000000000 1.0
C      1  0.5625470000000  0.5171080000000  0.4773130000000 1.0
C      1  0.5225870000000  0.5263140000000  0.5480100000000 1.0
C      1  0.4848860000000  0.5658030000000  0.4763540000000 1.0
C      1  0.5599380000000  0.5009830000000  0.5399180000000 1.0
C      1  0.5182140000000  0.4793250000000  0.4789490000000 1.0
C      1  0.5046130000000  0.4874550000000  0.5239270000000 1.0
C      1  0.5597720000000  0.4551570000000  0.5202470000000 1.0
C      1  0.5253340000000  0.4267500000000  0.5321380000000 1.0
C      1  0.4010230000000  0.4787500000000  0.4900370000000 1.0
C      1  0.5588170000000  0.5023670000000  0.4529250000000 1.0
C      1  0.4837760000000  0.4705570000000  0.5100200000000 1.0
C      1  0.5486440000000  0.5554640000000  0.5179130000000 1.0
C      1  0.5683380000000  0.4814380000000  0.5233640000000 1.0
C      1  0.5301260000000  0.5776640000000  0.4871880000000 1.0
C      1  0.5045070000000  0.4620730000000  0.4307980000000 1.0
C      1  0.5184730000000  0.5041870000000  0.4326070000000 1.0
C      1  0.4947090000000  0.5462420000000  0.4364490000000 1.0
C      1  0.5119320000000  0.5056290000000  0.4651360000000 1.0
C      1  0.4942100000000  0.4413640000000  0.5094440000000 1.0
C      1  0.4562500000000  0.5152300000000  0.5126850000000 1.0
C      1  0.4563150000000  0.4829220000000  0.5076400000000 1.0
C      1  0.5093090000000  0.4565290000000  0.5761100000000 1.0
C      1  0.4879920000000  0.4436300000000  0.5604580000000 1.0
C      1  0.4981030000000  0.4315980000000  0.5372190000000 1.0
C      1  0.5224500000000  0.4328820000000  0.5038230000000 1.0
C      1  0.5197050000000  0.5293640000000  0.4823160000000 1.0
C      1  0.4777030000000  0.5204710000000  0.4936810000000 1.0
C      1  0.5279220000000  0.4759080000000  0.4306600000000 1.0
C      1  0.4222160000000  0.4664650000000  0.4758570000000 1.0
C      1  0.4516280000000  0.4322390000000  0.4783740000000 1.0
C      1  0.4760720000000  0.5253480000000  0.4426930000000 1.0
C      1  0.4623260000000  0.5314250000000  0.5374360000000 1.0
C      1  0.5511600000000  0.4745680000000  0.4488080000000 1.0
C      1  0.5436150000000  0.5194670000000  0.4349870000000 1.0
C      1  0.5603650000000  0.5452800000000  0.4690860000000 1.0
C      1  0.5390380000000  0.5151490000000  0.5010170000000 1.0
C      1  0.4494090000000  0.5344900000000  0.4572610000000 1.0
C      1  0.4851030000000  0.5244540000000  0.5771590000000 1.0
C      1  0.4605740000000  0.4515370000000  0.5585010000000 1.0
C      1  0.5449090000000  0.5277010000000  0.5282190000000 1.0
C      1  0.4137930000000  0.4922230000000  0.5100570000000 1.0
C      1  0.4610720000000  0.5232230000000  0.5642470000000 1.0
C      1  0.4358680000000  0.5141630000000  0.4730200000000 1.0
C      1  0.5240630000000  0.5720710000000  0.5153000000000 1.0
C      1  0.5544840000000  0.5628770000000  0.4898300000000 1.0
C      1  0.4820090000000  0.4774780000000  0.4345920000000 1.0
C      1  0.5023750000000  0.5425480000000  0.5593790000000 1.0
C      1  0.5014100000000  0.4774620000000  0.5930630000000 1.0
C      1  0.4890070000000  0.5040930000000  0.4255110000000 1.0
C      1  0.5110210000000  0.5752790000000  0.4671830000000 1.0
C      1  0.5449260000000  0.4442190000000  0.5426140000000 1.0
C      1  0.5430760000000  0.4620480000000  0.4724430000000 1.0
C      1  0.4721420000000  0.4798150000000  0.4629480000000 1.0
END
