TITL C-90482-5956-12 340.548481938647 125000 -1005.51497807905 0 0 141 (C1) n - 1
REM
REM in /rds/project/t2_vol4/rds-t2-cs072/BORA/CARBON/from-Arr/AIRSS/Generating-Clusters/GAP-ML-2020/Only-C1/SD-CG/HFTN-CG
REM
REM
REM
REM
REM
REM ./C.cell (11c1c37f851c82e70ff6c80c92926a4b)
REM AIRSS Version 0.9.1 bugfix July 2018 build 013d7b7c2542+ Fri, 06 Jul 2018 19:26:36 +0100
REM compiler GCC version 9.3.0
REM options -cpp -mtune=generic -march=x86-64 -g -O0
REM seed -26728510 -396160696 -880374902 1853805534 1584812419 1703719009 1359537033 1395123605 1801657762 248003003 -777146924 487365293 -185893859 1832477129 -2047077727 679786432 -152772365 2100209725 -1295310170 -307247954 -1421104582 -33464618 1505724859 1002254973 -2060350752 59265560 -225044273 -82827979 2047326294 -2112461411 1064665881 -1524739833 1761541829
REM
CELL 1.54180   50.00000   50.00000   50.00000   90.00000   90.00000   90.00000
LATT -1
SFAC C  
C      1  0.5347670000000  0.5079360000000  0.4090530000000 1.0
C      1  0.4596150000000  0.5690780000000  0.4318600000000 1.0
C      1  0.5738770000000  0.5461710000000  0.4596260000000 1.0
C      1  0.4589390000000  0.5479100000000  0.5182100000000 1.0
C      1  0.4364650000000  0.5556620000000  0.5794280000000 1.0
C      1  0.4945750000000  0.4691260000000  0.5462250000000 1.0
C      1  0.5557420000000  0.5683120000000  0.4589780000000 1.0
C      1  0.5321190000000  0.5057060000000  0.5200960000000 1.0
C      1  0.5180640000000  0.4415580000000  0.4270110000000 1.0
C      1  0.4348370000000  0.5181130000000  0.5478670000000 1.0
C      1  0.4989980000000  0.5252390000000  0.4380480000000 1.0
C      1  0.6002030000000  0.4865690000000  0.4602910000000 1.0
C      1  0.5196490000000  0.4657080000000  0.4130330000000 1.0
C      1  0.4962090000000  0.4819790000000  0.4119090000000 1.0
C      1  0.4161050000000  0.5127520000000  0.4551800000000 1.0
C      1  0.4235790000000  0.4293750000000  0.5251880000000 1.0
C      1  0.5385820000000  0.4230580000000  0.4676170000000 1.0
C      1  0.5442940000000  0.5734270000000  0.4841230000000 1.0
C      1  0.5899000000000  0.4421350000000  0.5163420000000 1.0
C      1  0.5997140000000  0.4584530000000  0.4696420000000 1.0
C      1  0.4066770000000  0.5135390000000  0.4821510000000 1.0
C      1  0.4843080000000  0.4760630000000  0.4732320000000 1.0
C      1  0.5138190000000  0.4214410000000  0.4823900000000 1.0
C      1  0.4503810000000  0.4347180000000  0.5670320000000 1.0
C      1  0.4576080000000  0.5872120000000  0.4963380000000 1.0
C      1  0.6002950000000  0.5264060000000  0.4976610000000 1.0
C      1  0.5828250000000  0.4953610000000  0.4392320000000 1.0
C      1  0.4039010000000  0.4660810000000  0.5043950000000 1.0
C      1  0.5811840000000  0.4403720000000  0.4599940000000 1.0
C      1  0.4423070000000  0.5670460000000  0.5340690000000 1.0
C      1  0.4503220000000  0.4719580000000  0.5042570000000 1.0
C      1  0.6009990000000  0.5203830000000  0.5262380000000 1.0
C      1  0.5002070000000  0.4598670000000  0.5180590000000 1.0
C      1  0.4134340000000  0.4980650000000  0.5474350000000 1.0
C      1  0.4277400000000  0.4279190000000  0.4972400000000 1.0
C      1  0.4909780000000  0.5525690000000  0.5256160000000 1.0
C      1  0.5561310000000  0.5539590000000  0.5046640000000 1.0
C      1  0.4756770000000  0.4289430000000  0.5774770000000 1.0
C      1  0.3966000000000  0.5011500000000  0.5268420000000 1.0
C      1  0.4433310000000  0.5446080000000  0.4255750000000 1.0
C      1  0.4990680000000  0.4201090000000  0.5620540000000 1.0
C      1  0.4585810000000  0.5051900000000  0.5643860000000 1.0
C      1  0.4233970000000  0.5642450000000  0.4620700000000 1.0
C      1  0.5540590000000  0.4788230000000  0.4902230000000 1.0
C      1  0.5632930000000  0.5452410000000  0.5554650000000 1.0
C      1  0.5152970000000  0.4298660000000  0.5140380000000 1.0
C      1  0.4245530000000  0.4557060000000  0.4862200000000 1.0
C      1  0.5107880000000  0.5952470000000  0.5272040000000 1.0
C      1  0.4964320000000  0.4143800000000  0.5347240000000 1.0
C      1  0.5491230000000  0.5304140000000  0.4182870000000 1.0
C      1  0.4919880000000  0.4485970000000  0.5908930000000 1.0
C      1  0.4815010000000  0.4747140000000  0.5938150000000 1.0
C      1  0.5080920000000  0.4883600000000  0.5089460000000 1.0
C      1  0.6091380000000  0.5016500000000  0.4838620000000 1.0
C      1  0.4934500000000  0.5264870000000  0.5392600000000 1.0
C      1  0.4553440000000  0.4811720000000  0.5838320000000 1.0
C      1  0.4663460000000  0.5772480000000  0.5527510000000 1.0
C      1  0.4298980000000  0.5473970000000  0.5544800000000 1.0
C      1  0.4275970000000  0.4870730000000  0.4438370000000 1.0
C      1  0.5108670000000  0.5810740000000  0.4505050000000 1.0
C      1  0.4089870000000  0.4532340000000  0.5299790000000 1.0
C      1  0.4489220000000  0.4409840000000  0.4485340000000 1.0
C      1  0.5366470000000  0.4850220000000  0.4699730000000 1.0
C      1  0.4615610000000  0.4209730000000  0.4658060000000 1.0
C      1  0.4693630000000  0.5573510000000  0.4913210000000 1.0
C      1  0.4824540000000  0.5029470000000  0.5206350000000 1.0
C      1  0.5350640000000  0.5849410000000  0.5334440000000 1.0
C      1  0.5376390000000  0.4797190000000  0.5752990000000 1.0
C      1  0.5448620000000  0.4295220000000  0.5240960000000 1.0
C      1  0.5841740000000  0.5265390000000  0.5488940000000 1.0
C      1  0.4683420000000  0.4073660000000  0.5294330000000 1.0
C      1  0.5676970000000  0.4267930000000  0.5063300000000 1.0
C      1  0.4478250000000  0.4099400000000  0.4880620000000 1.0
C      1  0.5021510000000  0.4932600000000  0.5875410000000 1.0
C      1  0.5810790000000  0.5447770000000  0.4873860000000 1.0
C      1  0.4699020000000  0.5007730000000  0.4738050000000 1.0
C      1  0.4690590000000  0.4478880000000  0.4298010000000 1.0
C      1  0.4769580000000  0.6087950000000  0.4894490000000 1.0
C      1  0.5411160000000  0.5096840000000  0.4576460000000 1.0
C      1  0.5006840000000  0.5216980000000  0.5900540000000 1.0
C      1  0.4789680000000  0.5285590000000  0.5686780000000 1.0
C      1  0.4584150000000  0.6004340000000  0.4700330000000 1.0
C      1  0.5252100000000  0.5329670000000  0.5915070000000 1.0
C      1  0.4729270000000  0.5219000000000  0.4530090000000 1.0
C      1  0.5670390000000  0.5217720000000  0.4417790000000 1.0
C      1  0.5822150000000  0.4533130000000  0.5417400000000 1.0
C      1  0.5657070000000  0.4480130000000  0.4376690000000 1.0
C      1  0.4932480000000  0.4341590000000  0.4376040000000 1.0
C      1  0.5322270000000  0.5530130000000  0.4199680000000 1.0
C      1  0.4890010000000  0.5713010000000  0.4323130000000 1.0
C      1  0.4906750000000  0.4218040000000  0.4632060000000 1.0
C      1  0.5408870000000  0.4342160000000  0.4412370000000 1.0
C      1  0.4290630000000  0.4605770000000  0.4570320000000 1.0
C      1  0.5160140000000  0.4382540000000  0.5775670000000 1.0
C      1  0.5482870000000  0.5298290000000  0.5775040000000 1.0
C      1  0.5186020000000  0.5125030000000  0.5448990000000 1.0
C      1  0.5564610000000  0.5011620000000  0.5767240000000 1.0
C      1  0.4755830000000  0.4591530000000  0.4971060000000 1.0
C      1  0.4479010000000  0.4924450000000  0.4235890000000 1.0
C      1  0.5359590000000  0.5302410000000  0.5042050000000 1.0
C      1  0.5556090000000  0.4427930000000  0.5477990000000 1.0
C      1  0.4488370000000  0.4703770000000  0.5325090000000 1.0
C      1  0.5400380000000  0.4515190000000  0.5706890000000 1.0
C      1  0.5065920000000  0.5078570000000  0.4148300000000 1.0
C      1  0.5197460000000  0.5271080000000  0.4601150000000 1.0
C      1  0.5933210000000  0.4791340000000  0.5489840000000 1.0
C      1  0.5537340000000  0.4896630000000  0.5135220000000 1.0
C      1  0.5032070000000  0.5495800000000  0.4212550000000 1.0
C      1  0.4192500000000  0.5615620000000  0.4901660000000 1.0
C      1  0.5437410000000  0.4812850000000  0.4117050000000 1.0
C      1  0.5675190000000  0.4743330000000  0.4258910000000 1.0
C      1  0.4415400000000  0.5236350000000  0.5160710000000 1.0
C      1  0.4606400000000  0.3940870000000  0.5066920000000 1.0
C      1  0.4448220000000  0.5828130000000  0.4518120000000 1.0
C      1  0.4907330000000  0.5787180000000  0.5395270000000 1.0
C      1  0.3970830000000  0.4935700000000  0.5009650000000 1.0
C      1  0.5647500000000  0.4249130000000  0.4786180000000 1.0
C      1  0.5138750000000  0.5333500000000  0.4863930000000 1.0
C      1  0.4174950000000  0.5343880000000  0.4987360000000 1.0
C      1  0.5541090000000  0.5653220000000  0.5349500000000 1.0
C      1  0.5137780000000  0.4882630000000  0.5613550000000 1.0
C      1  0.6089400000000  0.4928900000000  0.5294930000000 1.0
C      1  0.5803490000000  0.5008540000000  0.5624810000000 1.0
C      1  0.4389560000000  0.4607160000000  0.5726830000000 1.0
C      1  0.5036890000000  0.6034080000000  0.4985900000000 1.0
C      1  0.6060080000000  0.4563090000000  0.4974640000000 1.0
C      1  0.4227660000000  0.4703140000000  0.5497470000000 1.0
C      1  0.5108060000000  0.4804530000000  0.4798250000000 1.0
C      1  0.4224020000000  0.5403340000000  0.4453290000000 1.0
C      1  0.6147460000000  0.4823280000000  0.5044280000000 1.0
C      1  0.5358130000000  0.5733340000000  0.4391180000000 1.0
C      1  0.4623450000000  0.5428390000000  0.4689620000000 1.0
C      1  0.5151990000000  0.5817190000000  0.4816960000000 1.0
C      1  0.4708940000000  0.4860130000000  0.5424880000000 1.0
C      1  0.4632930000000  0.5553680000000  0.5724430000000 1.0
C      1  0.4558070000000  0.5196170000000  0.4250360000000 1.0
C      1  0.4585760000000  0.5022350000000  0.5011810000000 1.0
C      1  0.4326780000000  0.5787440000000  0.5093180000000 1.0
C      1  0.4990400000000  0.5562790000000  0.4956250000000 1.0
C      1  0.4452200000000  0.4215270000000  0.5422850000000 1.0
C      1  0.4694090000000  0.4737070000000  0.4178850000000 1.0
END
