TITL C-90478-5921-5 0.00342845886595346 125000 -21.1237922429674 0 0 4 (C2v) n - 1
REM
REM in /rds/project/t2_vol4/rds-t2-cs072/BORA/CARBON/from-Arr/AIRSS/Generating-Clusters/GAP-ML-2020/Only-C1/SD-CG/HFTN-CG
REM
REM
REM
REM
REM
REM ./C.cell (11c1c37f851c82e70ff6c80c92926a4b)
REM AIRSS Version 0.9.1 bugfix July 2018 build 013d7b7c2542+ Fri, 06 Jul 2018 19:26:36 +0100
REM compiler GCC version 9.3.0
REM options -cpp -mtune=generic -march=x86-64 -g -O0
REM seed -1435568521 -1853769009 -979611255 1939575822 1400280605 1552922156 -416676378 -1259806865 -1526072639 548490211 -2009019907 -578092823 1176055473 743593159 -716197905 799028225 1900028242 1826514454 -1490461746 -83234144 -995508492 -1632338488 -1435020219 -735623442 1648135662 -1981418391 -1718203795 2073823880 -725265548 1597436503 -803333 -203146247 -964417865
REM
CELL 1.54180   50.00000   50.00000   50.00000   90.00000   90.00000   90.00000
LATT -1
SFAC C  
C      1  0.4884560000000  0.5187010000000  0.4919390000000 1.0
C      1  0.5039750000000  0.4950800000000  0.4986740000000 1.0
C      1  0.5202400000000  0.4749500000000  0.4932490000000 1.0
C      1  0.4873280000000  0.5112690000000  0.5161370000000 1.0
END
