TITL C-90472-5976-7 31.2983079846758 125000 -514.669843932689 0 0 76 (C1) n - 1
REM
REM in /rds/project/t2_vol4/rds-t2-cs072/BORA/CARBON/from-Arr/AIRSS/Generating-Clusters/GAP-ML-2020/Only-C1/SD-CG/HFTN-CG
REM
REM
REM
REM
REM
REM ./C.cell (11c1c37f851c82e70ff6c80c92926a4b)
REM AIRSS Version 0.9.1 bugfix July 2018 build 013d7b7c2542+ Fri, 06 Jul 2018 19:26:36 +0100
REM compiler GCC version 9.3.0
REM options -cpp -mtune=generic -march=x86-64 -g -O0
REM seed 1140413813 454048306 1589787588 50627882 511358318 -1320343125 415746433 -629008369 139105057 703875890 1079500499 -8153447 -2093025447 2047440629 1389467426 382698862 1667674229 648413129 314046022 1631240679 -593571447 -2004101318 1717915380 652615225 760060640 -966468543 -1045377332 -168520657 -1595875130 -1862858446 -834329269 -1522436734 -572791949
REM
CELL 1.54180   50.00000   50.00000   50.00000   90.00000   90.00000   90.00000
LATT -1
SFAC C  
C      1  0.5279960000000  0.5367020000000  0.4327820000000 1.0
C      1  0.5522480000000  0.4769770000000  0.4707590000000 1.0
C      1  0.5776900000000  0.4591610000000  0.5287980000000 1.0
C      1  0.5463770000000  0.4901400000000  0.4443860000000 1.0
C      1  0.5677260000000  0.5393760000000  0.5045160000000 1.0
C      1  0.4448490000000  0.4413610000000  0.4687640000000 1.0
C      1  0.4590170000000  0.4439860000000  0.4471260000000 1.0
C      1  0.4737500000000  0.4660460000000  0.4356860000000 1.0
C      1  0.5120830000000  0.4500590000000  0.5502540000000 1.0
C      1  0.5298940000000  0.5604070000000  0.4491040000000 1.0
C      1  0.4781100000000  0.5607750000000  0.4563780000000 1.0
C      1  0.5626980000000  0.5299790000000  0.5302460000000 1.0
C      1  0.5225130000000  0.4360500000000  0.4944040000000 1.0
C      1  0.4360740000000  0.5042790000000  0.4865830000000 1.0
C      1  0.5400350000000  0.5405930000000  0.5450620000000 1.0
C      1  0.4584370000000  0.4859360000000  0.4770500000000 1.0
C      1  0.4954080000000  0.5156770000000  0.4943330000000 1.0
C      1  0.4357220000000  0.5212410000000  0.4615720000000 1.0
C      1  0.4745350000000  0.4505160000000  0.5097500000000 1.0
C      1  0.5174520000000  0.5689040000000  0.4958170000000 1.0
C      1  0.5234470000000  0.5073440000000  0.5032620000000 1.0
C      1  0.5752630000000  0.5201670000000  0.4831840000000 1.0
C      1  0.4255940000000  0.5060180000000  0.5429770000000 1.0
C      1  0.5253980000000  0.5618840000000  0.5372050000000 1.0
C      1  0.4823810000000  0.5241040000000  0.5189140000000 1.0
C      1  0.5208670000000  0.4170360000000  0.5168200000000 1.0
C      1  0.5035320000000  0.5677990000000  0.5213580000000 1.0
C      1  0.5537440000000  0.4477700000000  0.5299060000000 1.0
C      1  0.4755720000000  0.5533620000000  0.5245750000000 1.0
C      1  0.4546440000000  0.5442760000000  0.5459720000000 1.0
C      1  0.5261740000000  0.5173110000000  0.5571060000000 1.0
C      1  0.5739790000000  0.4918610000000  0.4876410000000 1.0
C      1  0.4845440000000  0.4896520000000  0.4889420000000 1.0
C      1  0.4785730000000  0.4317320000000  0.5315440000000 1.0
C      1  0.4697420000000  0.4624680000000  0.5716380000000 1.0
C      1  0.4278980000000  0.4796490000000  0.5026210000000 1.0
C      1  0.5060330000000  0.5311300000000  0.4708230000000 1.0
C      1  0.5301060000000  0.4979250000000  0.5347900000000 1.0
C      1  0.5174730000000  0.4537780000000  0.4520770000000 1.0
C      1  0.5035200000000  0.4707400000000  0.4773710000000 1.0
C      1  0.4804580000000  0.5135970000000  0.5797800000000 1.0
C      1  0.4735510000000  0.5011140000000  0.5319570000000 1.0
C      1  0.4957480000000  0.4456060000000  0.4892840000000 1.0
C      1  0.4172810000000  0.4847560000000  0.5266880000000 1.0
C      1  0.4579190000000  0.5290130000000  0.5692780000000 1.0
C      1  0.4338340000000  0.5312150000000  0.5308600000000 1.0
C      1  0.4624100000000  0.4877540000000  0.5773630000000 1.0
C      1  0.5765290000000  0.4842840000000  0.5158360000000 1.0
C      1  0.5380620000000  0.4456590000000  0.4693460000000 1.0
C      1  0.5536550000000  0.5583550000000  0.4634880000000 1.0
C      1  0.4611970000000  0.4890610000000  0.4469650000000 1.0
C      1  0.5025600000000  0.5265950000000  0.4398090000000 1.0
C      1  0.5601910000000  0.5017370000000  0.5316380000000 1.0
C      1  0.4578090000000  0.5575800000000  0.5025820000000 1.0
C      1  0.4364610000000  0.5338700000000  0.5025350000000 1.0
C      1  0.5309080000000  0.4601960000000  0.5101080000000 1.0
C      1  0.4851610000000  0.4783440000000  0.5187840000000 1.0
C      1  0.4560320000000  0.5165240000000  0.4417660000000 1.0
C      1  0.4408730000000  0.5051930000000  0.5677030000000 1.0
C      1  0.4763400000000  0.5370300000000  0.4382510000000 1.0
C      1  0.5021390000000  0.4625120000000  0.4291250000000 1.0
C      1  0.5318500000000  0.5276710000000  0.4847990000000 1.0
C      1  0.5069840000000  0.5166860000000  0.5765810000000 1.0
C      1  0.4845440000000  0.4452100000000  0.5573680000000 1.0
C      1  0.5457300000000  0.5557570000000  0.4914270000000 1.0
C      1  0.5502770000000  0.5180920000000  0.4395490000000 1.0
C      1  0.5668370000000  0.5323020000000  0.4581660000000 1.0
C      1  0.5326610000000  0.4312830000000  0.5412280000000 1.0
C      1  0.5290910000000  0.4814670000000  0.4894650000000 1.0
C      1  0.4572700000000  0.5630870000000  0.4748530000000 1.0
C      1  0.5060060000000  0.5626830000000  0.4678690000000 1.0
C      1  0.5134940000000  0.4719740000000  0.5308790000000 1.0
C      1  0.4341150000000  0.5456140000000  0.4747150000000 1.0
C      1  0.4496540000000  0.4589170000000  0.4915560000000 1.0
C      1  0.5262940000000  0.4744200000000  0.4326830000000 1.0
C      1  0.4949790000000  0.4106680000000  0.5236210000000 1.0
END
