TITL C-90458-5980-3 0.0432857734184601 125000 -877.408446949738 0 0 125 (C1) n - 1
REM
REM in /rds/project/t2_vol4/rds-t2-cs072/BORA/CARBON/from-Arr/AIRSS/Generating-Clusters/GAP-ML-2020/Only-C1/SD-CG/HFTN-CG
REM
REM
REM
REM
REM
REM ./C.cell (11c1c37f851c82e70ff6c80c92926a4b)
REM AIRSS Version 0.9.1 bugfix July 2018 build 013d7b7c2542+ Fri, 06 Jul 2018 19:26:36 +0100
REM compiler GCC version 9.3.0
REM options -cpp -mtune=generic -march=x86-64 -g -O0
REM seed 1070044320 672702847 2039189139 -545773371 1075483938 1102138253 504294528 971572265 1189737182 -169015265 -272005478 444823993 1320870033 550952859 810238676 314273183 -1248220957 -1229329922 1261171176 825303302 587805943 1566871847 1223836898 516291919 -1304847570 -527692342 1234470502 2055060037 -1339505561 2067511116 -889537179 -871677501 1816828114
REM
CELL 1.54180   50.00000   50.00000   50.00000   90.00000   90.00000   90.00000
LATT -1
SFAC C  
C      1  0.4327560000000  0.5254920000000  0.5638950000000 1.0
C      1  0.4869700000000  0.4566420000000  0.4625360000000 1.0
C      1  0.5342960000000  0.4173090000000  0.4637270000000 1.0
C      1  0.4119760000000  0.5342900000000  0.5217460000000 1.0
C      1  0.4275310000000  0.5451990000000  0.5436820000000 1.0
C      1  0.4789030000000  0.4128650000000  0.4496580000000 1.0
C      1  0.4124050000000  0.5065640000000  0.5119690000000 1.0
C      1  0.4704950000000  0.4216830000000  0.5391980000000 1.0
C      1  0.5938390000000  0.5105300000000  0.5198330000000 1.0
C      1  0.4384380000000  0.4598810000000  0.5089400000000 1.0
C      1  0.4791870000000  0.4640690000000  0.5438630000000 1.0
C      1  0.4761250000000  0.4929270000000  0.5450690000000 1.0
C      1  0.5743120000000  0.5409820000000  0.4560270000000 1.0
C      1  0.4592040000000  0.5361810000000  0.4816330000000 1.0
C      1  0.4632560000000  0.5004550000000  0.5187140000000 1.0
C      1  0.5884410000000  0.5246050000000  0.4745160000000 1.0
C      1  0.4452690000000  0.5794830000000  0.5121510000000 1.0
C      1  0.5162770000000  0.3975770000000  0.4756920000000 1.0
C      1  0.5585770000000  0.4562850000000  0.4879730000000 1.0
C      1  0.4672420000000  0.4955230000000  0.5746670000000 1.0
C      1  0.5369590000000  0.4754060000000  0.4686060000000 1.0
C      1  0.5850160000000  0.5302710000000  0.5020060000000 1.0
C      1  0.4541060000000  0.4242590000000  0.4589740000000 1.0
C      1  0.4959960000000  0.4346460000000  0.4392820000000 1.0
C      1  0.4839750000000  0.4853170000000  0.5007970000000 1.0
C      1  0.5104030000000  0.5626570000000  0.5041760000000 1.0
C      1  0.4710480000000  0.5705480000000  0.5520430000000 1.0
C      1  0.5163780000000  0.4689450000000  0.4158990000000 1.0
C      1  0.4204000000000  0.4842180000000  0.4699130000000 1.0
C      1  0.5410270000000  0.5651870000000  0.5077900000000 1.0
C      1  0.4671450000000  0.5290470000000  0.5082250000000 1.0
C      1  0.5585650000000  0.5647900000000  0.4607330000000 1.0
C      1  0.5444430000000  0.5749590000000  0.5363230000000 1.0
C      1  0.4709360000000  0.4750320000000  0.4172500000000 1.0
C      1  0.4455660000000  0.5683370000000  0.5388430000000 1.0
C      1  0.5769870000000  0.5389880000000  0.5584970000000 1.0
C      1  0.4966630000000  0.5340580000000  0.5425160000000 1.0
C      1  0.4940490000000  0.4268610000000  0.5555510000000 1.0
C      1  0.4925530000000  0.4809170000000  0.5840410000000 1.0
C      1  0.4320920000000  0.4918990000000  0.4450350000000 1.0
C      1  0.5487100000000  0.5796600000000  0.4831810000000 1.0
C      1  0.4769360000000  0.3996210000000  0.5209430000000 1.0
C      1  0.5010340000000  0.5430610000000  0.5852710000000 1.0
C      1  0.5202540000000  0.5736610000000  0.5510720000000 1.0
C      1  0.4777640000000  0.5451110000000  0.5664660000000 1.0
C      1  0.5305320000000  0.5190370000000  0.5543050000000 1.0
C      1  0.5003050000000  0.4570180000000  0.5642250000000 1.0
C      1  0.5104310000000  0.4963190000000  0.5147170000000 1.0
C      1  0.4266120000000  0.5702370000000  0.4929010000000 1.0
C      1  0.5783810000000  0.5124420000000  0.5459430000000 1.0
C      1  0.5697530000000  0.4966800000000  0.4410620000000 1.0
C      1  0.5519810000000  0.4270300000000  0.4848890000000 1.0
C      1  0.4252250000000  0.5398140000000  0.4560460000000 1.0
C      1  0.5125260000000  0.4982440000000  0.5943620000000 1.0
C      1  0.4060980000000  0.5321700000000  0.4748800000000 1.0
C      1  0.4081080000000  0.5498040000000  0.4983130000000 1.0
C      1  0.5089070000000  0.4948790000000  0.4321500000000 1.0
C      1  0.4692670000000  0.3983690000000  0.4935540000000 1.0
C      1  0.5145470000000  0.4100780000000  0.5446430000000 1.0
C      1  0.4895720000000  0.4563120000000  0.4920680000000 1.0
C      1  0.5486000000000  0.4797730000000  0.5680740000000 1.0
C      1  0.5044030000000  0.3930620000000  0.5241990000000 1.0
C      1  0.5151740000000  0.5784530000000  0.4524720000000 1.0
C      1  0.5862950000000  0.4966010000000  0.4652940000000 1.0
C      1  0.5235380000000  0.3927020000000  0.5025470000000 1.0
C      1  0.4490420000000  0.4713190000000  0.4351640000000 1.0
C      1  0.4894840000000  0.5373040000000  0.4418450000000 1.0
C      1  0.5928830000000  0.4841090000000  0.5107300000000 1.0
C      1  0.4847400000000  0.5000480000000  0.4165000000000 1.0
C      1  0.5533680000000  0.4644550000000  0.5171960000000 1.0
C      1  0.4364900000000  0.4590480000000  0.5581120000000 1.0
C      1  0.5185060000000  0.5462030000000  0.5615450000000 1.0
C      1  0.5303890000000  0.4595930000000  0.5594510000000 1.0
C      1  0.5368120000000  0.5379160000000  0.4275940000000 1.0
C      1  0.5527690000000  0.4742930000000  0.4421760000000 1.0
C      1  0.5125310000000  0.6069100000000  0.4946240000000 1.0
C      1  0.4546360000000  0.4474570000000  0.5355170000000 1.0
C      1  0.5423400000000  0.4471000000000  0.5379040000000 1.0
C      1  0.4850290000000  0.5284390000000  0.4118720000000 1.0
C      1  0.5671940000000  0.5573950000000  0.5417200000000 1.0
C      1  0.5400010000000  0.4935490000000  0.5126110000000 1.0
C      1  0.5496020000000  0.5170360000000  0.5310770000000 1.0
C      1  0.5027190000000  0.4375140000000  0.5032510000000 1.0
C      1  0.4353130000000  0.4618490000000  0.4808420000000 1.0
C      1  0.5735360000000  0.4850860000000  0.5551960000000 1.0
C      1  0.4418350000000  0.4805100000000  0.5774040000000 1.0
C      1  0.5372890000000  0.5638860000000  0.4426870000000 1.0
C      1  0.5172450000000  0.5225470000000  0.4445310000000 1.0
C      1  0.5604380000000  0.5421100000000  0.5156650000000 1.0
C      1  0.5377330000000  0.4550090000000  0.4274660000000 1.0
C      1  0.4918880000000  0.4548020000000  0.4170250000000 1.0
C      1  0.4947850000000  0.5835100000000  0.5413840000000 1.0
C      1  0.4953680000000  0.5896910000000  0.5108360000000 1.0
C      1  0.5269880000000  0.5212780000000  0.4735390000000 1.0
C      1  0.5451310000000  0.4102540000000  0.5079950000000 1.0
C      1  0.4992030000000  0.5407420000000  0.3905300000000 1.0
C      1  0.4209440000000  0.4801850000000  0.5462030000000 1.0
C      1  0.4217620000000  0.4994160000000  0.5670780000000 1.0
C      1  0.4335170000000  0.4873290000000  0.5204670000000 1.0
C      1  0.4587230000000  0.5246640000000  0.5742640000000 1.0
C      1  0.4885120000000  0.3967480000000  0.4706840000000 1.0
C      1  0.5419530000000  0.4996310000000  0.4837300000000 1.0
C      1  0.4544210000000  0.4535620000000  0.4582220000000 1.0
C      1  0.5251750000000  0.5945000000000  0.4742500000000 1.0
C      1  0.4488380000000  0.4145500000000  0.4840940000000 1.0
C      1  0.5352220000000  0.5019260000000  0.5771640000000 1.0
C      1  0.4415490000000  0.5611390000000  0.4696140000000 1.0
C      1  0.5634250000000  0.5247530000000  0.4351200000000 1.0
C      1  0.4690540000000  0.5854020000000  0.4974610000000 1.0
C      1  0.4878470000000  0.5005590000000  0.4753190000000 1.0
C      1  0.5783040000000  0.4707210000000  0.5312530000000 1.0
C      1  0.5063140000000  0.5192230000000  0.4932280000000 1.0
C      1  0.5218450000000  0.5394520000000  0.4027520000000 1.0
C      1  0.5030080000000  0.5062010000000  0.5415910000000 1.0
C      1  0.4900980000000  0.5654270000000  0.4529970000000 1.0
C      1  0.4412230000000  0.5183640000000  0.4460380000000 1.0
C      1  0.4684670000000  0.5726470000000  0.4712410000000 1.0
C      1  0.4071290000000  0.5052700000000  0.4845430000000 1.0
C      1  0.4701550000000  0.5210530000000  0.4591000000000 1.0
C      1  0.5040330000000  0.4810110000000  0.4591160000000 1.0
C      1  0.4946100000000  0.5389840000000  0.5123220000000 1.0
C      1  0.5259350000000  0.4319760000000  0.4412210000000 1.0
C      1  0.5392710000000  0.4199950000000  0.5339500000000 1.0
C      1  0.5042870000000  0.5235340000000  0.6027490000000 1.0
C      1  0.5843340000000  0.4757910000000  0.4846730000000 1.0
END
