TITL C-90481-5925-7 0.0774603837303689 125000 -362.413498644042 0 0 52 (C1) n - 1
REM
REM in /rds/project/t2_vol4/rds-t2-cs072/BORA/CARBON/from-Arr/AIRSS/Generating-Clusters/GAP-ML-2020/Only-C1/SD-CG/HFTN-CG
REM
REM
REM
REM
REM
REM ./C.cell (11c1c37f851c82e70ff6c80c92926a4b)
REM AIRSS Version 0.9.1 bugfix July 2018 build 013d7b7c2542+ Fri, 06 Jul 2018 19:26:36 +0100
REM compiler GCC version 9.3.0
REM options -cpp -mtune=generic -march=x86-64 -g -O0
REM seed -2138682151 -419942559 1495133504 2023486013 1441821803 -823230586 -536537915 -927718891 490662206 654481996 500791373 1819675106 2124967471 54684070 -681947876 -1189728963 551419134 1717422785 -1776268806 -1284278577 -1773444812 1187148930 1148680931 -1116737943 -202549538 -1311045352 198825065 959898547 1818153909 -287674290 -1157437623 -1150898684 1360362912
REM
CELL 1.54180   50.00000   50.00000   50.00000   90.00000   90.00000   90.00000
LATT -1
SFAC C  
C      1  0.5466980000000  0.4606330000000  0.4935760000000 1.0
C      1  0.5233310000000  0.5314500000000  0.4473810000000 1.0
C      1  0.5300910000000  0.4623830000000  0.4705220000000 1.0
C      1  0.4752960000000  0.5375870000000  0.4538180000000 1.0
C      1  0.5617110000000  0.4846450000000  0.4971520000000 1.0
C      1  0.4717550000000  0.5112320000000  0.4435500000000 1.0
C      1  0.5041740000000  0.4755120000000  0.5531130000000 1.0
C      1  0.5204560000000  0.5191340000000  0.5230210000000 1.0
C      1  0.5012190000000  0.5457330000000  0.4572960000000 1.0
C      1  0.5033770000000  0.4519640000000  0.4699440000000 1.0
C      1  0.4863860000000  0.5398570000000  0.5476650000000 1.0
C      1  0.4802050000000  0.5551620000000  0.4991280000000 1.0
C      1  0.5297680000000  0.4264950000000  0.5265090000000 1.0
C      1  0.4648300000000  0.4486620000000  0.5035510000000 1.0
C      1  0.5414100000000  0.4768350000000  0.5339770000000 1.0
C      1  0.5147040000000  0.5421940000000  0.5407260000000 1.0
C      1  0.4862480000000  0.4672360000000  0.4530760000000 1.0
C      1  0.4587990000000  0.4699000000000  0.4601770000000 1.0
C      1  0.4482550000000  0.4626480000000  0.4859060000000 1.0
C      1  0.4622000000000  0.5466550000000  0.4779070000000 1.0
C      1  0.4916180000000  0.4414940000000  0.4949610000000 1.0
C      1  0.4909320000000  0.4531380000000  0.5410610000000 1.0
C      1  0.5608610000000  0.4953690000000  0.5231240000000 1.0
C      1  0.5572480000000  0.5406010000000  0.5011300000000 1.0
C      1  0.4895210000000  0.4918330000000  0.5699380000000 1.0
C      1  0.5157770000000  0.4909020000000  0.5307790000000 1.0
C      1  0.4787900000000  0.5179100000000  0.5642250000000 1.0
C      1  0.5414440000000  0.5429520000000  0.5452680000000 1.0
C      1  0.5404760000000  0.4511400000000  0.5198600000000 1.0
C      1  0.4338250000000  0.4863060000000  0.4955090000000 1.0
C      1  0.4470250000000  0.5267400000000  0.5165310000000 1.0
C      1  0.4396040000000  0.4983220000000  0.5206330000000 1.0
C      1  0.5128510000000  0.5224820000000  0.4954590000000 1.0
C      1  0.4940220000000  0.4927840000000  0.4407110000000 1.0
C      1  0.4347910000000  0.5068330000000  0.4754520000000 1.0
C      1  0.5070390000000  0.5521170000000  0.4865490000000 1.0
C      1  0.4513300000000  0.4813200000000  0.5400410000000 1.0
C      1  0.5631290000000  0.5267870000000  0.4760970000000 1.0
C      1  0.5361410000000  0.5564180000000  0.4875770000000 1.0
C      1  0.5057290000000  0.4390320000000  0.5203060000000 1.0
C      1  0.4950830000000  0.5027150000000  0.4879430000000 1.0
C      1  0.5592420000000  0.4993460000000  0.4733350000000 1.0
C      1  0.4417760000000  0.5311610000000  0.4884420000000 1.0
C      1  0.4699520000000  0.5440130000000  0.5241760000000 1.0
C      1  0.4651470000000  0.4577680000000  0.5310450000000 1.0
C      1  0.5382840000000  0.4868490000000  0.4577110000000 1.0
C      1  0.4973260000000  0.4850270000000  0.5074230000000 1.0
C      1  0.5202600000000  0.5029480000000  0.4430620000000 1.0
C      1  0.5442850000000  0.5424450000000  0.4624370000000 1.0
C      1  0.4627600000000  0.4953130000000  0.5619890000000 1.0
C      1  0.4505550000000  0.4968260000000  0.4545500000000 1.0
C      1  0.5522630000000  0.5251920000000  0.5246780000000 1.0
END
