TITL C-90453-6229-3 -0.26079928253557 125000 -345.580994394761 0 0 51 (C1) n - 1
REM
REM in /rds/project/t2_vol4/rds-t2-cs072/BORA/CARBON/from-Arr/AIRSS/Generating-Clusters/GAP-ML-2020/Only-C1/SD-CG/HFTN-CG
REM
REM
REM
REM
REM
REM ./C.cell (11c1c37f851c82e70ff6c80c92926a4b)
REM AIRSS Version 0.9.1 bugfix July 2018 build 013d7b7c2542+ Fri, 06 Jul 2018 19:26:36 +0100
REM compiler GCC version 9.3.0
REM options -cpp -mtune=generic -march=x86-64 -g -O0
REM seed 714914977 304145597 -986247060 -678832506 585231358 -1553367232 304245098 602930984 321806640 -1832209397 61959131 -1064194337 346907215 -1283290316 -1103564403 -1838184605 -1274898511 1974971192 1385003108 -1949256603 843388434 -508842564 -629210127 1252697931 622133913 1347187720 -1318024253 1595109103 317305941 -374094973 1545351873 1917468419 -2121788338
REM
CELL 1.54180   50.00000   50.00000   50.00000   90.00000   90.00000   90.00000
LATT -1
SFAC C  
C      1  0.5040260000000  0.4785930000000  0.5119410000000 1.0
C      1  0.5378800000000  0.5035120000000  0.4380900000000 1.0
C      1  0.4911550000000  0.4613990000000  0.4894750000000 1.0
C      1  0.5177740000000  0.4609300000000  0.5355770000000 1.0
C      1  0.5472300000000  0.4920840000000  0.4889220000000 1.0
C      1  0.4573250000000  0.4854760000000  0.4635930000000 1.0
C      1  0.4871580000000  0.4807410000000  0.4671090000000 1.0
C      1  0.4798990000000  0.4906960000000  0.5206690000000 1.0
C      1  0.4927960000000  0.4285970000000  0.5171840000000 1.0
C      1  0.5300990000000  0.5634320000000  0.4896820000000 1.0
C      1  0.5042790000000  0.4808140000000  0.4431490000000 1.0
C      1  0.5600890000000  0.5158430000000  0.4470560000000 1.0
C      1  0.5094390000000  0.5093820000000  0.4360080000000 1.0
C      1  0.4432630000000  0.4686660000000  0.4822020000000 1.0
C      1  0.5187810000000  0.5018730000000  0.4984460000000 1.0
C      1  0.4360760000000  0.4850030000000  0.5050170000000 1.0
C      1  0.4718980000000  0.5567180000000  0.4781070000000 1.0
C      1  0.5345890000000  0.4473560000000  0.4914010000000 1.0
C      1  0.4759270000000  0.5113890000000  0.5016070000000 1.0
C      1  0.4886420000000  0.5382010000000  0.5462900000000 1.0
C      1  0.4906630000000  0.5569570000000  0.5245610000000 1.0
C      1  0.5255490000000  0.4812990000000  0.5544410000000 1.0
C      1  0.4949800000000  0.5239660000000  0.4554700000000 1.0
C      1  0.5296720000000  0.5284130000000  0.5129440000000 1.0
C      1  0.4672220000000  0.4258430000000  0.5057240000000 1.0
C      1  0.5466870000000  0.5389970000000  0.4903740000000 1.0
C      1  0.5537220000000  0.4814800000000  0.5167630000000 1.0
C      1  0.5455090000000  0.4953580000000  0.5404650000000 1.0
C      1  0.4703920000000  0.4644320000000  0.5468750000000 1.0
C      1  0.4621030000000  0.4518870000000  0.4977290000000 1.0
C      1  0.4408360000000  0.5124120000000  0.4967800000000 1.0
C      1  0.5357560000000  0.5221810000000  0.5401570000000 1.0
C      1  0.4669460000000  0.5203680000000  0.5429050000000 1.0
C      1  0.5323200000000  0.4751830000000  0.4466990000000 1.0
C      1  0.4899420000000  0.5765500000000  0.4697060000000 1.0
C      1  0.5041700000000  0.4981170000000  0.5632910000000 1.0
C      1  0.4962870000000  0.5073500000000  0.4799630000000 1.0
C      1  0.5081150000000  0.4374530000000  0.4931540000000 1.0
C      1  0.4679020000000  0.5530700000000  0.5065040000000 1.0
C      1  0.5155430000000  0.5789330000000  0.4707450000000 1.0
C      1  0.4681770000000  0.5336390000000  0.4605390000000 1.0
C      1  0.5415140000000  0.4559090000000  0.5173990000000 1.0
C      1  0.4558410000000  0.4707910000000  0.5218710000000 1.0
C      1  0.5565600000000  0.5173350000000  0.4745030000000 1.0
C      1  0.5157920000000  0.5549640000000  0.5134910000000 1.0
C      1  0.4500430000000  0.5133750000000  0.4693490000000 1.0
C      1  0.4550440000000  0.5294090000000  0.5158710000000 1.0
C      1  0.4931150000000  0.4468240000000  0.5393960000000 1.0
C      1  0.4781720000000  0.4936370000000  0.5518750000000 1.0
C      1  0.5414510000000  0.4683450000000  0.4727110000000 1.0
C      1  0.5116470000000  0.5248190000000  0.5562240000000 1.0
END
