TITL C-90473-6096-10 -171.227116427003 125000 -740.494652913464 0 0 105 (C1) n - 1
REM
REM in /rds/project/t2_vol4/rds-t2-cs072/BORA/CARBON/from-Arr/AIRSS/Generating-Clusters/GAP-ML-2020/Only-C1/SD-CG/HFTN-CG
REM
REM
REM
REM
REM
REM ./C.cell (11c1c37f851c82e70ff6c80c92926a4b)
REM AIRSS Version 0.9.1 bugfix July 2018 build 013d7b7c2542+ Fri, 06 Jul 2018 19:26:36 +0100
REM compiler GCC version 9.3.0
REM options -cpp -mtune=generic -march=x86-64 -g -O0
REM seed 1754703575 -1973559736 -1080870116 215987996 1386633474 1501996678 -1141351168 2068170937 -1529496319 -878992978 2084155317 -972800797 -1234563507 -318269471 -1914486817 1385829221 -1099423308 2032524294 1139486905 1202716625 1588468843 1298177334 -1379424137 1136374673 1884373286 -1203163209 -304970566 -1607279887 -1391426713 -411217281 427497035 -1059868346 1793287956
REM
CELL 1.54180   50.00000   50.00000   50.00000   90.00000   90.00000   90.00000
LATT -1
SFAC C  
C      1  0.5062260000000  0.5715870000000  0.5499470000000 1.0
C      1  0.5375020000000  0.5789910000000  0.5108000000000 1.0
C      1  0.4219080000000  0.5348020000000  0.4874490000000 1.0
C      1  0.4568970000000  0.5703880000000  0.5418950000000 1.0
C      1  0.4798460000000  0.5129280000000  0.5754530000000 1.0
C      1  0.4878420000000  0.4139620000000  0.4588570000000 1.0
C      1  0.3986800000000  0.4623350000000  0.4878720000000 1.0
C      1  0.5204010000000  0.4912140000000  0.5926720000000 1.0
C      1  0.4639080000000  0.5766670000000  0.4923800000000 1.0
C      1  0.4618110000000  0.4299350000000  0.5283170000000 1.0
C      1  0.4206700000000  0.4706150000000  0.5314570000000 1.0
C      1  0.5214790000000  0.5532340000000  0.4346620000000 1.0
C      1  0.4207300000000  0.4872060000000  0.5533040000000 1.0
C      1  0.4344340000000  0.5459950000000  0.4646460000000 1.0
C      1  0.5117790000000  0.5319950000000  0.4191640000000 1.0
C      1  0.4721590000000  0.5656130000000  0.4446370000000 1.0
C      1  0.5300550000000  0.5594150000000  0.5622760000000 1.0
C      1  0.5089580000000  0.5848390000000  0.4742790000000 1.0
C      1  0.4073940000000  0.4817440000000  0.5057140000000 1.0
C      1  0.5584540000000  0.5651590000000  0.5253770000000 1.0
C      1  0.4589690000000  0.4844410000000  0.4310870000000 1.0
C      1  0.4242680000000  0.5050810000000  0.4969990000000 1.0
C      1  0.4380970000000  0.5189340000000  0.5231250000000 1.0
C      1  0.5333140000000  0.4958100000000  0.5262670000000 1.0
C      1  0.4794540000000  0.4375480000000  0.4451110000000 1.0
C      1  0.4599020000000  0.4675880000000  0.4744270000000 1.0
C      1  0.5102210000000  0.5706590000000  0.5195100000000 1.0
C      1  0.4673300000000  0.5096080000000  0.5171500000000 1.0
C      1  0.4188050000000  0.4484210000000  0.4756760000000 1.0
C      1  0.5642540000000  0.5371780000000  0.5196660000000 1.0
C      1  0.4313070000000  0.5456660000000  0.5118730000000 1.0
C      1  0.5126900000000  0.4322870000000  0.4959130000000 1.0
C      1  0.4668200000000  0.5127430000000  0.4882180000000 1.0
C      1  0.4286510000000  0.4469920000000  0.4501660000000 1.0
C      1  0.4645330000000  0.5430140000000  0.4288010000000 1.0
C      1  0.5467250000000  0.5484670000000  0.4469430000000 1.0
C      1  0.5696410000000  0.4529110000000  0.5269200000000 1.0
C      1  0.5786420000000  0.5229320000000  0.4994920000000 1.0
C      1  0.5266250000000  0.5075220000000  0.4177490000000 1.0
C      1  0.5551810000000  0.4450490000000  0.4762290000000 1.0
C      1  0.5237950000000  0.5347460000000  0.4866640000000 1.0
C      1  0.5519210000000  0.5028980000000  0.4305360000000 1.0
C      1  0.4455650000000  0.4949320000000  0.4762210000000 1.0
C      1  0.4435430000000  0.5027190000000  0.4464690000000 1.0
C      1  0.5855600000000  0.4948170000000  0.5036400000000 1.0
C      1  0.5097370000000  0.4911040000000  0.5404220000000 1.0
C      1  0.5611640000000  0.4910930000000  0.5707450000000 1.0
C      1  0.5394470000000  0.5244720000000  0.5310220000000 1.0
C      1  0.5826850000000  0.4792830000000  0.5272290000000 1.0
C      1  0.4480160000000  0.5682820000000  0.5148610000000 1.0
C      1  0.5064600000000  0.4299090000000  0.5577120000000 1.0
C      1  0.4826260000000  0.4251530000000  0.5439720000000 1.0
C      1  0.4872090000000  0.4176200000000  0.4874330000000 1.0
C      1  0.5435660000000  0.4561280000000  0.4229150000000 1.0
C      1  0.4675090000000  0.4796960000000  0.5251510000000 1.0
C      1  0.5285620000000  0.4638810000000  0.5872750000000 1.0
C      1  0.5075740000000  0.4864910000000  0.4155070000000 1.0
C      1  0.5768980000000  0.4947450000000  0.5492690000000 1.0
C      1  0.4910480000000  0.4920880000000  0.5914500000000 1.0
C      1  0.4838930000000  0.5217770000000  0.4688330000000 1.0
C      1  0.4939490000000  0.4723670000000  0.5261760000000 1.0
C      1  0.4423190000000  0.5303350000000  0.4418290000000 1.0
C      1  0.5297960000000  0.4850120000000  0.5007050000000 1.0
C      1  0.5167480000000  0.4616750000000  0.4259070000000 1.0
C      1  0.5291240000000  0.5285450000000  0.5607160000000 1.0
C      1  0.5818770000000  0.4884580000000  0.4755440000000 1.0
C      1  0.5688980000000  0.4666590000000  0.4621220000000 1.0
C      1  0.4920170000000  0.5821480000000  0.4971150000000 1.0
C      1  0.4837270000000  0.5258000000000  0.4172410000000 1.0
C      1  0.5539230000000  0.4464640000000  0.5501360000000 1.0
C      1  0.4466110000000  0.4581520000000  0.5219270000000 1.0
C      1  0.4849530000000  0.4648820000000  0.5890320000000 1.0
C      1  0.5527950000000  0.5697610000000  0.5518120000000 1.0
C      1  0.5624140000000  0.5245520000000  0.4461220000000 1.0
C      1  0.4805650000000  0.4968480000000  0.4166270000000 1.0
C      1  0.4543710000000  0.5674350000000  0.4667670000000 1.0
C      1  0.4908630000000  0.4705370000000  0.4747820000000 1.0
C      1  0.5522730000000  0.4635920000000  0.5724490000000 1.0
C      1  0.4538150000000  0.5243810000000  0.5692260000000 1.0
C      1  0.5392360000000  0.5085810000000  0.5803130000000 1.0
C      1  0.5344870000000  0.4261850000000  0.5148910000000 1.0
C      1  0.4998060000000  0.5161270000000  0.5538930000000 1.0
C      1  0.4330920000000  0.5110370000000  0.5530110000000 1.0
C      1  0.5771140000000  0.5169800000000  0.4697410000000 1.0
C      1  0.5454870000000  0.5567730000000  0.4736160000000 1.0
C      1  0.5058600000000  0.4477120000000  0.5810320000000 1.0
C      1  0.5148530000000  0.5379690000000  0.5153820000000 1.0
C      1  0.5238450000000  0.5049100000000  0.4818310000000 1.0
C      1  0.5358280000000  0.5811560000000  0.4829240000000 1.0
C      1  0.5042730000000  0.4525380000000  0.4517630000000 1.0
C      1  0.4984290000000  0.4986110000000  0.4712450000000 1.0
C      1  0.4627100000000  0.4242700000000  0.4999600000000 1.0
C      1  0.5317920000000  0.4298520000000  0.5431990000000 1.0
C      1  0.4800830000000  0.5692300000000  0.5588440000000 1.0
C      1  0.5065570000000  0.4634880000000  0.5004970000000 1.0
C      1  0.4555860000000  0.4567150000000  0.4458150000000 1.0
C      1  0.5017080000000  0.5430920000000  0.4700980000000 1.0
C      1  0.5008910000000  0.5673520000000  0.4517030000000 1.0
C      1  0.5162790000000  0.4145050000000  0.4518460000000 1.0
C      1  0.5576460000000  0.4750820000000  0.4369290000000 1.0
C      1  0.4911760000000  0.5232640000000  0.5276500000000 1.0
C      1  0.5578870000000  0.4391760000000  0.5045080000000 1.0
C      1  0.5272880000000  0.4347240000000  0.4681240000000 1.0
C      1  0.4463010000000  0.4479250000000  0.4925930000000 1.0
C      1  0.4574070000000  0.5518300000000  0.5625560000000 1.0
END
