TITL C-90473-6096-9 197.492847497719 125000 -524.643773725961 0 0 76 (C1) n - 1
REM
REM in /rds/project/t2_vol4/rds-t2-cs072/BORA/CARBON/from-Arr/AIRSS/Generating-Clusters/GAP-ML-2020/Only-C1/SD-CG/HFTN-CG
REM
REM
REM
REM
REM
REM ./C.cell (11c1c37f851c82e70ff6c80c92926a4b)
REM AIRSS Version 0.9.1 bugfix July 2018 build 013d7b7c2542+ Fri, 06 Jul 2018 19:26:36 +0100
REM compiler GCC version 9.3.0
REM options -cpp -mtune=generic -march=x86-64 -g -O0
REM seed 1985841976 266588657 1134962492 1439998524 2087250556 830290457 1417609008 -196381189 335720135 532167899 1798510437 -1275621336 1737464147 2057164992 1464003418 -1130403650 2139108703 1885695561 -1173853571 571694265 1855824466 -129486696 -633652703 -940170192 -259887495 493585935 -1486584768 248979467 -1095297987 956975673 1670130326 1869832004 1352564056
REM
CELL 1.54180   50.00000   50.00000   50.00000   90.00000   90.00000   90.00000
LATT -1
SFAC C  
C      1  0.4925760000000  0.4911650000000  0.4701250000000 1.0
C      1  0.4390570000000  0.5113170000000  0.4681280000000 1.0
C      1  0.5262090000000  0.4445220000000  0.5370560000000 1.0
C      1  0.5114290000000  0.5082420000000  0.5353630000000 1.0
C      1  0.5060420000000  0.4254880000000  0.5363880000000 1.0
C      1  0.5013350000000  0.4219040000000  0.5072320000000 1.0
C      1  0.4833660000000  0.4361700000000  0.5490710000000 1.0
C      1  0.5486500000000  0.5694440000000  0.5096290000000 1.0
C      1  0.5016040000000  0.5551280000000  0.5405950000000 1.0
C      1  0.4840860000000  0.4407810000000  0.4532230000000 1.0
C      1  0.4735400000000  0.5686670000000  0.5107360000000 1.0
C      1  0.4741300000000  0.5551900000000  0.4613840000000 1.0
C      1  0.4292750000000  0.5150270000000  0.4951450000000 1.0
C      1  0.5867090000000  0.4887020000000  0.5003880000000 1.0
C      1  0.5234700000000  0.4611870000000  0.5123030000000 1.0
C      1  0.5032660000000  0.5352950000000  0.4954790000000 1.0
C      1  0.4737300000000  0.4792670000000  0.5110500000000 1.0
C      1  0.4772280000000  0.4614360000000  0.4336680000000 1.0
C      1  0.5215740000000  0.4984590000000  0.5821080000000 1.0
C      1  0.5542570000000  0.5250170000000  0.4912780000000 1.0
C      1  0.5386540000000  0.5015750000000  0.4399960000000 1.0
C      1  0.5147710000000  0.4922620000000  0.4253890000000 1.0
C      1  0.5076410000000  0.5050670000000  0.4895480000000 1.0
C      1  0.5127170000000  0.4453430000000  0.4481680000000 1.0
C      1  0.5510080000000  0.4817750000000  0.5416180000000 1.0
C      1  0.4589870000000  0.5483800000000  0.5256060000000 1.0
C      1  0.4524040000000  0.5270900000000  0.4478300000000 1.0
C      1  0.5373560000000  0.5295730000000  0.4433040000000 1.0
C      1  0.4763150000000  0.5439480000000  0.5479290000000 1.0
C      1  0.4232700000000  0.4443030000000  0.4893230000000 1.0
C      1  0.5168730000000  0.5528740000000  0.4752520000000 1.0
C      1  0.4782980000000  0.5512500000000  0.4902280000000 1.0
C      1  0.5005740000000  0.5534150000000  0.4516880000000 1.0
C      1  0.5099570000000  0.5361820000000  0.4326800000000 1.0
C      1  0.4222540000000  0.4694120000000  0.4809030000000 1.0
C      1  0.5051900000000  0.4662290000000  0.4289490000000 1.0
C      1  0.5461800000000  0.5413000000000  0.5181380000000 1.0
C      1  0.4516870000000  0.5548760000000  0.4452900000000 1.0
C      1  0.5230820000000  0.5836730000000  0.5110780000000 1.0
C      1  0.5343380000000  0.4629010000000  0.5559720000000 1.0
C      1  0.4746610000000  0.4296080000000  0.5024750000000 1.0
C      1  0.4591290000000  0.4817450000000  0.4378760000000 1.0
C      1  0.4624150000000  0.4751330000000  0.5590040000000 1.0
C      1  0.5706060000000  0.4676150000000  0.4941940000000 1.0
C      1  0.5518480000000  0.5710060000000  0.4795520000000 1.0
C      1  0.4359720000000  0.5082700000000  0.5406210000000 1.0
C      1  0.5010560000000  0.4878020000000  0.5153030000000 1.0
C      1  0.5482270000000  0.4880700000000  0.4627850000000 1.0
C      1  0.4698480000000  0.4741540000000  0.4825150000000 1.0
C      1  0.4287220000000  0.4833990000000  0.5281650000000 1.0
C      1  0.5785140000000  0.5137530000000  0.5072770000000 1.0
C      1  0.5162910000000  0.5353100000000  0.5240770000000 1.0
C      1  0.5244480000000  0.5809030000000  0.4823130000000 1.0
C      1  0.4387160000000  0.5284100000000  0.5201250000000 1.0
C      1  0.4523330000000  0.4659250000000  0.5321280000000 1.0
C      1  0.4954580000000  0.5131790000000  0.4241140000000 1.0
C      1  0.5132250000000  0.4719130000000  0.5725470000000 1.0
C      1  0.5036250000000  0.5099660000000  0.5640390000000 1.0
C      1  0.4773870000000  0.5207940000000  0.5641940000000 1.0
C      1  0.5589320000000  0.5066780000000  0.5535980000000 1.0
C      1  0.5558900000000  0.4618300000000  0.4689230000000 1.0
C      1  0.5215030000000  0.4386300000000  0.4938600000000 1.0
C      1  0.4706650000000  0.4436430000000  0.4776260000000 1.0
C      1  0.5475050000000  0.4786690000000  0.5108690000000 1.0
C      1  0.4633610000000  0.4390160000000  0.5280040000000 1.0
C      1  0.5469990000000  0.5431160000000  0.4685120000000 1.0
C      1  0.4858530000000  0.4605980000000  0.5661680000000 1.0
C      1  0.4993120000000  0.5766290000000  0.5232810000000 1.0
C      1  0.4191340000000  0.4893000000000  0.5023610000000 1.0
C      1  0.5330860000000  0.4438130000000  0.4682580000000 1.0
C      1  0.5672760000000  0.5245130000000  0.5318180000000 1.0
C      1  0.5386920000000  0.5006440000000  0.4888540000000 1.0
C      1  0.4557400000000  0.5028310000000  0.5606760000000 1.0
C      1  0.4444690000000  0.4834950000000  0.4637950000000 1.0
C      1  0.4683160000000  0.5081600000000  0.4320490000000 1.0
C      1  0.5477020000000  0.5076430000000  0.5788080000000 1.0
END
