TITL C-92889-3724-8 -456.238329718527 125000 -513.755312370847 0 0 71 (C1) n - 1
REM
REM in /rds/project/t2_vol4/rds-t2-cs072/BORA/CARBON/from-Arr/AIRSS/Generating-Clusters/GAP-ML-2020/Only-C1/SD-CG/HFTN-CG
REM
REM
REM
REM
REM
REM ./C.cell (11c1c37f851c82e70ff6c80c92926a4b)
REM AIRSS Version 0.9.1 bugfix July 2018 build 013d7b7c2542+ Fri, 06 Jul 2018 19:26:36 +0100
REM compiler GCC version 9.3.0
REM options -cpp -mtune=generic -march=x86-64 -g -O0
REM seed -742373847 -1486249896 -556658780 1998444631 2037390236 -19824362 -602205464 874823806 -1585635572 1342464194 1267311278 -295812499 -2093381847 201825299 -1234584146 717361010 1811458740 -581897664 83213437 -795185631 1597429719 1614291977 45963588 -1625379411 -567462951 -172351295 -977592401 -423256064 -1322321748 -1595762829 -657369115 165836689 -225823552
REM
CELL 1.54180   50.00000   50.00000   50.00000   90.00000   90.00000   90.00000
LATT -1
SFAC C  
C      1  0.4271510000000  0.4852110000000  0.4971880000000 1.0
C      1  0.4704300000000  0.5457230000000  0.5164600000000 1.0
C      1  0.5602920000000  0.5443700000000  0.4860530000000 1.0
C      1  0.5134330000000  0.5118620000000  0.4381290000000 1.0
C      1  0.4287230000000  0.5128060000000  0.5054450000000 1.0
C      1  0.4371300000000  0.5330710000000  0.4857710000000 1.0
C      1  0.4829290000000  0.5573550000000  0.4607880000000 1.0
C      1  0.5178790000000  0.4062190000000  0.5037390000000 1.0
C      1  0.5108450000000  0.4403040000000  0.4565230000000 1.0
C      1  0.5331640000000  0.4274660000000  0.4972200000000 1.0
C      1  0.5511740000000  0.5210020000000  0.5400300000000 1.0
C      1  0.4702030000000  0.5733240000000  0.4808770000000 1.0
C      1  0.4657820000000  0.4466160000000  0.4528220000000 1.0
C      1  0.5117690000000  0.5153870000000  0.5685830000000 1.0
C      1  0.5155450000000  0.5509470000000  0.4943590000000 1.0
C      1  0.4657180000000  0.5063970000000  0.5673830000000 1.0
C      1  0.4848630000000  0.5135990000000  0.4377150000000 1.0
C      1  0.4842900000000  0.4900410000000  0.5040560000000 1.0
C      1  0.5818540000000  0.5032690000000  0.4823580000000 1.0
C      1  0.5517840000000  0.5310450000000  0.4616740000000 1.0
C      1  0.5504680000000  0.4817550000000  0.4525710000000 1.0
C      1  0.5131440000000  0.5992450000000  0.4975980000000 1.0
C      1  0.4539670000000  0.5545900000000  0.4948850000000 1.0
C      1  0.5053530000000  0.4365770000000  0.5386930000000 1.0
C      1  0.4700810000000  0.5349930000000  0.4496830000000 1.0
C      1  0.5466980000000  0.4453880000000  0.5154480000000 1.0
C      1  0.5647070000000  0.5052060000000  0.4603630000000 1.0
C      1  0.4432040000000  0.4972890000000  0.4518550000000 1.0
C      1  0.4874450000000  0.5167410000000  0.5098800000000 1.0
C      1  0.4872090000000  0.4493290000000  0.5568570000000 1.0
C      1  0.4785510000000  0.4661540000000  0.4366580000000 1.0
C      1  0.4442170000000  0.4525770000000  0.4695040000000 1.0
C      1  0.5251260000000  0.4851280000000  0.4393110000000 1.0
C      1  0.5131710000000  0.5225840000000  0.5010250000000 1.0
C      1  0.5715670000000  0.5115630000000  0.5221710000000 1.0
C      1  0.5345740000000  0.4387500000000  0.4709200000000 1.0
C      1  0.4993410000000  0.5393880000000  0.5600290000000 1.0
C      1  0.5275530000000  0.4740960000000  0.5559630000000 1.0
C      1  0.4541250000000  0.5394820000000  0.5389510000000 1.0
C      1  0.4433760000000  0.4678890000000  0.5412090000000 1.0
C      1  0.5782610000000  0.5272580000000  0.4988170000000 1.0
C      1  0.5364060000000  0.5885370000000  0.5017870000000 1.0
C      1  0.4439820000000  0.4956790000000  0.5502180000000 1.0
C      1  0.4453390000000  0.5244370000000  0.4602020000000 1.0
C      1  0.4493820000000  0.4430970000000  0.4960410000000 1.0
C      1  0.5627120000000  0.4625390000000  0.4988330000000 1.0
C      1  0.4912730000000  0.4959330000000  0.5744880000000 1.0
C      1  0.5267390000000  0.5002450000000  0.4918620000000 1.0
C      1  0.5262720000000  0.5346410000000  0.4504870000000 1.0
C      1  0.4754030000000  0.4283670000000  0.4946920000000 1.0
C      1  0.5021360000000  0.4708430000000  0.5686410000000 1.0
C      1  0.5105150000000  0.5534140000000  0.4650070000000 1.0
C      1  0.4953390000000  0.5617000000000  0.5167880000000 1.0
C      1  0.5072390000000  0.4813260000000  0.4940450000000 1.0
C      1  0.4710120000000  0.5337520000000  0.5605860000000 1.0
C      1  0.5764830000000  0.4866000000000  0.5048810000000 1.0
C      1  0.5533830000000  0.4594660000000  0.4709370000000 1.0
C      1  0.4851860000000  0.4317690000000  0.4671900000000 1.0
C      1  0.5307270000000  0.4504730000000  0.5388720000000 1.0
C      1  0.5069710000000  0.4631170000000  0.4394550000000 1.0
C      1  0.5424800000000  0.5595230000000  0.5040660000000 1.0
C      1  0.4969560000000  0.4225350000000  0.5140410000000 1.0
C      1  0.4323060000000  0.4783500000000  0.4696140000000 1.0
C      1  0.4360960000000  0.5170410000000  0.5328630000000 1.0
C      1  0.5125250000000  0.5536300000000  0.5400280000000 1.0
C      1  0.4888550000000  0.5862020000000  0.5012070000000 1.0
C      1  0.5343810000000  0.5032120000000  0.5562020000000 1.0
C      1  0.5392540000000  0.5465450000000  0.5330770000000 1.0
C      1  0.4360620000000  0.4629960000000  0.5136000000000 1.0
C      1  0.4670520000000  0.4914060000000  0.4367020000000 1.0
C      1  0.4604380000000  0.4506300000000  0.5540210000000 1.0
END
