TITL C-92882-3677-3 0.325139407799864 125000 -863.153002176035 0 0 125 (C1) n - 1
REM
REM in /rds/project/t2_vol4/rds-t2-cs072/BORA/CARBON/from-Arr/AIRSS/Generating-Clusters/GAP-ML-2020/Only-C1/SD-CG/HFTN-CG
REM
REM
REM
REM
REM
REM ./C.cell (11c1c37f851c82e70ff6c80c92926a4b)
REM AIRSS Version 0.9.1 bugfix July 2018 build 013d7b7c2542+ Fri, 06 Jul 2018 19:26:36 +0100
REM compiler GCC version 9.3.0
REM options -cpp -mtune=generic -march=x86-64 -g -O0
REM seed 1192411996 1668732644 -1317892882 -1221455810 -1526536257 -897496918 -498801975 522703637 360318934 -961503418 -1238030505 1871914009 1128091352 -1130413719 -508396353 -1381263952 -1257476864 1888354184 -1033090653 2048521854 963930718 -915593289 84886771 2061521869 -207117072 -317447263 975983842 1653820379 535885395 2002630492 458181543 -923323782 -724659232
REM
CELL 1.54180   50.00000   50.00000   50.00000   90.00000   90.00000   90.00000
LATT -1
SFAC C  
C      1  0.4740630000000  0.4320610000000  0.4380040000000 1.0
C      1  0.4792580000000  0.5121730000000  0.4728430000000 1.0
C      1  0.4346270000000  0.5212260000000  0.4674520000000 1.0
C      1  0.5898680000000  0.5682090000000  0.5058660000000 1.0
C      1  0.5249480000000  0.5928550000000  0.5315790000000 1.0
C      1  0.4477740000000  0.4691740000000  0.4996110000000 1.0
C      1  0.4819320000000  0.4740790000000  0.5476960000000 1.0
C      1  0.4599290000000  0.4452480000000  0.4183570000000 1.0
C      1  0.4722470000000  0.4506180000000  0.5055130000000 1.0
C      1  0.4899590000000  0.4480300000000  0.5309360000000 1.0
C      1  0.5371200000000  0.4708540000000  0.4213930000000 1.0
C      1  0.5111920000000  0.4597250000000  0.4182880000000 1.0
C      1  0.5459070000000  0.5562450000000  0.4415490000000 1.0
C      1  0.4400250000000  0.4905700000000  0.5672860000000 1.0
C      1  0.5913600000000  0.5219540000000  0.5246780000000 1.0
C      1  0.4928400000000  0.4667110000000  0.4903830000000 1.0
C      1  0.4848960000000  0.5600310000000  0.5776700000000 1.0
C      1  0.5010390000000  0.4157990000000  0.4913740000000 1.0
C      1  0.4862990000000  0.5536230000000  0.4417860000000 1.0
C      1  0.5245210000000  0.4786730000000  0.5240740000000 1.0
C      1  0.5160750000000  0.4488030000000  0.4918730000000 1.0
C      1  0.4095290000000  0.4859630000000  0.4633070000000 1.0
C      1  0.5624170000000  0.5329320000000  0.5679070000000 1.0
C      1  0.4636770000000  0.4075850000000  0.5360310000000 1.0
C      1  0.5201390000000  0.5428930000000  0.5902180000000 1.0
C      1  0.5703360000000  0.5289700000000  0.5424870000000 1.0
C      1  0.4554710000000  0.4940800000000  0.5099100000000 1.0
C      1  0.4377520000000  0.4482370000000  0.4639110000000 1.0
C      1  0.4625230000000  0.4714770000000  0.4136540000000 1.0
C      1  0.5255720000000  0.5425520000000  0.4220870000000 1.0
C      1  0.4709050000000  0.4220390000000  0.4906840000000 1.0
C      1  0.5658080000000  0.4521520000000  0.5250210000000 1.0
C      1  0.5084790000000  0.5271150000000  0.5455130000000 1.0
C      1  0.4364800000000  0.4939080000000  0.4511060000000 1.0
C      1  0.4900250000000  0.4784740000000  0.4099100000000 1.0
C      1  0.5120930000000  0.5536000000000  0.5036710000000 1.0
C      1  0.5883580000000  0.5406860000000  0.5016150000000 1.0
C      1  0.4913670000000  0.5069280000000  0.4122720000000 1.0
C      1  0.4510400000000  0.4184920000000  0.5579110000000 1.0
C      1  0.4857970000000  0.4836950000000  0.4668050000000 1.0
C      1  0.4112070000000  0.5056850000000  0.5429060000000 1.0
C      1  0.5671710000000  0.5314620000000  0.4811610000000 1.0
C      1  0.4507560000000  0.5379960000000  0.5472530000000 1.0
C      1  0.4927200000000  0.4158950000000  0.5383090000000 1.0
C      1  0.5064960000000  0.4618050000000  0.5841080000000 1.0
C      1  0.4678660000000  0.5628180000000  0.5558910000000 1.0
C      1  0.5260230000000  0.5702020000000  0.5489980000000 1.0
C      1  0.5075090000000  0.5641680000000  0.4256770000000 1.0
C      1  0.4922820000000  0.5351740000000  0.5909460000000 1.0
C      1  0.4587110000000  0.4289330000000  0.4633220000000 1.0
C      1  0.5374390000000  0.4105460000000  0.5167330000000 1.0
C      1  0.4800490000000  0.5609100000000  0.5089420000000 1.0
C      1  0.4882050000000  0.5197180000000  0.5283740000000 1.0
C      1  0.4790330000000  0.5772330000000  0.5338720000000 1.0
C      1  0.4610060000000  0.4402650000000  0.5707870000000 1.0
C      1  0.5749090000000  0.4786700000000  0.4537660000000 1.0
C      1  0.5236230000000  0.5051960000000  0.5623390000000 1.0
C      1  0.5224180000000  0.6033900000000  0.4518570000000 1.0
C      1  0.5278890000000  0.5819340000000  0.4364650000000 1.0
C      1  0.4994740000000  0.4885370000000  0.5727600000000 1.0
C      1  0.5314990000000  0.4534970000000  0.5761380000000 1.0
C      1  0.5452920000000  0.5895270000000  0.5108640000000 1.0
C      1  0.4425420000000  0.5474390000000  0.4553960000000 1.0
C      1  0.5529540000000  0.5072740000000  0.4944050000000 1.0
C      1  0.5883610000000  0.4954230000000  0.5281890000000 1.0
C      1  0.5306710000000  0.5745640000000  0.4901790000000 1.0
C      1  0.5192280000000  0.4878060000000  0.4614980000000 1.0
C      1  0.5220460000000  0.4082080000000  0.4724670000000 1.0
C      1  0.4055420000000  0.4932160000000  0.5169770000000 1.0
C      1  0.5453590000000  0.4106190000000  0.4897590000000 1.0
C      1  0.4571600000000  0.5172320000000  0.4924990000000 1.0
C      1  0.4222060000000  0.5603260000000  0.4948560000000 1.0
C      1  0.5432010000000  0.5506790000000  0.4725000000000 1.0
C      1  0.5472010000000  0.5203910000000  0.5252160000000 1.0
C      1  0.5257630000000  0.5437060000000  0.5298190000000 1.0
C      1  0.5590280000000  0.4599220000000  0.4368890000000 1.0
C      1  0.5240650000000  0.5060660000000  0.4858860000000 1.0
C      1  0.5248900000000  0.4237980000000  0.4488800000000 1.0
C      1  0.4128040000000  0.5411800000000  0.5121470000000 1.0
C      1  0.4647420000000  0.5180030000000  0.4194330000000 1.0
C      1  0.4481180000000  0.4950240000000  0.4239430000000 1.0
C      1  0.5724130000000  0.5867620000000  0.5085910000000 1.0
C      1  0.4068840000000  0.5120430000000  0.4743570000000 1.0
C      1  0.5888810000000  0.5009570000000  0.4482840000000 1.0
C      1  0.5055390000000  0.4200940000000  0.5642950000000 1.0
C      1  0.5038610000000  0.4358480000000  0.4336730000000 1.0
C      1  0.5617810000000  0.4307260000000  0.4802060000000 1.0
C      1  0.5390390000000  0.5254110000000  0.5797550000000 1.0
C      1  0.5430860000000  0.4336120000000  0.5338130000000 1.0
C      1  0.5624370000000  0.4770170000000  0.4810840000000 1.0
C      1  0.5300700000000  0.4958230000000  0.4336770000000 1.0
C      1  0.4560570000000  0.5151050000000  0.5683180000000 1.0
C      1  0.5093960000000  0.4065180000000  0.5168550000000 1.0
C      1  0.5139830000000  0.5664700000000  0.5745590000000 1.0
C      1  0.4804650000000  0.4935350000000  0.5252860000000 1.0
C      1  0.4976010000000  0.5968450000000  0.5227740000000 1.0
C      1  0.5697610000000  0.4522010000000  0.4971500000000 1.0
C      1  0.4172540000000  0.4687820000000  0.5042050000000 1.0
C      1  0.5689260000000  0.4781570000000  0.5368400000000 1.0
C      1  0.5177290000000  0.5162690000000  0.4181690000000 1.0
C      1  0.5324460000000  0.4306020000000  0.5611290000000 1.0
C      1  0.4670370000000  0.5358440000000  0.5163050000000 1.0
C      1  0.4528250000000  0.4734360000000  0.4664730000000 1.0
C      1  0.5415150000000  0.4942440000000  0.5405160000000 1.0
C      1  0.4678580000000  0.5799580000000  0.4895880000000 1.0
C      1  0.4609470000000  0.5438240000000  0.4331800000000 1.0
C      1  0.4115680000000  0.4617180000000  0.4770260000000 1.0
C      1  0.4570250000000  0.4044400000000  0.5096410000000 1.0
C      1  0.5048220000000  0.4901860000000  0.5072260000000 1.0
C      1  0.5349500000000  0.4642820000000  0.4723910000000 1.0
C      1  0.5176720000000  0.5350210000000  0.4800110000000 1.0
C      1  0.4008520000000  0.5161820000000  0.5013350000000 1.0
C      1  0.4124000000000  0.4916280000000  0.5661080000000 1.0
C      1  0.4805880000000  0.5113310000000  0.5824510000000 1.0
C      1  0.5807340000000  0.5267500000000  0.4539370000000 1.0
C      1  0.4225340000000  0.5329910000000  0.5384600000000 1.0
C      1  0.4896800000000  0.5989040000000  0.4933960000000 1.0
C      1  0.5193590000000  0.4515500000000  0.5220360000000 1.0
C      1  0.4568540000000  0.4674880000000  0.5626900000000 1.0
C      1  0.5725990000000  0.5475100000000  0.4382430000000 1.0
C      1  0.4434160000000  0.5679240000000  0.4776890000000 1.0
C      1  0.5479050000000  0.4411250000000  0.4553890000000 1.0
C      1  0.4897490000000  0.4383410000000  0.5789720000000 1.0
C      1  0.4949830000000  0.5338420000000  0.4623490000000 1.0
C      1  0.5134160000000  0.5958310000000  0.4769310000000 1.0
END
