TITL C-92898-3672-1 35.0838331260395 125000 -750.58179338591 0 0 109 (C1) n - 1
REM
REM in /rds/project/t2_vol4/rds-t2-cs072/BORA/CARBON/from-Arr/AIRSS/Generating-Clusters/GAP-ML-2020/Only-C1/SD-CG/HFTN-CG
REM
REM
REM
REM
REM
REM ./C.cell (11c1c37f851c82e70ff6c80c92926a4b)
REM AIRSS Version 0.9.1 bugfix July 2018 build 013d7b7c2542+ Fri, 06 Jul 2018 19:26:36 +0100
REM compiler GCC version 9.3.0
REM options -cpp -mtune=generic -march=x86-64 -g -O0
REM seed 597742570 -2048892264 1317035544 -1995830091 -974519485 179852087 -236481690 -1650594326 -838436749 1234750546 12667044 1526615562 1348460963 -141114032 -1949543963 652142863 1636144913 509389390 -1546486793 -396380680 -533389354 142778798 -1201302443 -1378689926 403819738 -131494630 1011573687 -1976076251 -2067446068 929002232 1657980673 -1896356667 -1203959631
REM
CELL 1.54180   50.00000   50.00000   50.00000   90.00000   90.00000   90.00000
LATT -1
SFAC C  
C      1  0.4859820000000  0.4228170000000  0.5619010000000 1.0
C      1  0.4901510000000  0.5866580000000  0.4746600000000 1.0
C      1  0.5634180000000  0.5505990000000  0.5686200000000 1.0
C      1  0.5385990000000  0.5509690000000  0.4672090000000 1.0
C      1  0.4788770000000  0.3988400000000  0.5010630000000 1.0
C      1  0.5167510000000  0.4477970000000  0.4327670000000 1.0
C      1  0.5596350000000  0.5001070000000  0.5184490000000 1.0
C      1  0.5066750000000  0.4677100000000  0.5564520000000 1.0
C      1  0.4979720000000  0.3982130000000  0.4844540000000 1.0
C      1  0.5491140000000  0.5010780000000  0.4881470000000 1.0
C      1  0.4574870000000  0.5531270000000  0.4540660000000 1.0
C      1  0.4332550000000  0.4236900000000  0.5090970000000 1.0
C      1  0.4560290000000  0.4375710000000  0.4690500000000 1.0
C      1  0.5289980000000  0.4432250000000  0.5567340000000 1.0
C      1  0.5742120000000  0.5274190000000  0.5553800000000 1.0
C      1  0.5020530000000  0.5216890000000  0.4788480000000 1.0
C      1  0.4973970000000  0.4692750000000  0.5257470000000 1.0
C      1  0.5031910000000  0.5002940000000  0.4306120000000 1.0
C      1  0.5110980000000  0.4948120000000  0.5181280000000 1.0
C      1  0.4949580000000  0.5674600000000  0.4981930000000 1.0
C      1  0.5600050000000  0.5309450000000  0.4758640000000 1.0
C      1  0.5108950000000  0.5588810000000  0.5650780000000 1.0
C      1  0.4962530000000  0.5204490000000  0.5232230000000 1.0
C      1  0.5428040000000  0.5510840000000  0.5281070000000 1.0
C      1  0.4460770000000  0.5885550000000  0.4982310000000 1.0
C      1  0.5889570000000  0.4962280000000  0.4643270000000 1.0
C      1  0.4614180000000  0.4191950000000  0.5151020000000 1.0
C      1  0.5350180000000  0.4931400000000  0.5333740000000 1.0
C      1  0.4314140000000  0.4523040000000  0.4651810000000 1.0
C      1  0.5560020000000  0.4559820000000  0.5596780000000 1.0
C      1  0.6084790000000  0.4874320000000  0.4802700000000 1.0
C      1  0.4858460000000  0.6119880000000  0.5119150000000 1.0
C      1  0.5744780000000  0.5178500000000  0.4531380000000 1.0
C      1  0.4719100000000  0.4412590000000  0.4950570000000 1.0
C      1  0.5152760000000  0.5458820000000  0.4881110000000 1.0
C      1  0.4704260000000  0.5532170000000  0.5061110000000 1.0
C      1  0.4263150000000  0.4615840000000  0.5351050000000 1.0
C      1  0.5104090000000  0.4248800000000  0.5699930000000 1.0
C      1  0.4521310000000  0.5063500000000  0.4319900000000 1.0
C      1  0.5125010000000  0.6097550000000  0.5064170000000 1.0
C      1  0.5555720000000  0.5671430000000  0.5048090000000 1.0
C      1  0.4117740000000  0.4928180000000  0.4892590000000 1.0
C      1  0.4706930000000  0.4680780000000  0.5110410000000 1.0
C      1  0.5705030000000  0.4537660000000  0.5349190000000 1.0
C      1  0.4919190000000  0.5726180000000  0.5464570000000 1.0
C      1  0.4327990000000  0.5536530000000  0.4689300000000 1.0
C      1  0.4782580000000  0.5247770000000  0.4987210000000 1.0
C      1  0.5174920000000  0.4761680000000  0.4424810000000 1.0
C      1  0.5958270000000  0.4708790000000  0.4989060000000 1.0
C      1  0.4615930000000  0.4618800000000  0.4292710000000 1.0
C      1  0.4991660000000  0.5869920000000  0.5216520000000 1.0
C      1  0.4688770000000  0.6011870000000  0.4914240000000 1.0
C      1  0.4925150000000  0.5230780000000  0.4487490000000 1.0
C      1  0.4397550000000  0.5600500000000  0.4966110000000 1.0
C      1  0.5268640000000  0.5454320000000  0.4401820000000 1.0
C      1  0.4982660000000  0.4301220000000  0.4437390000000 1.0
C      1  0.4861770000000  0.4814260000000  0.5728390000000 1.0
C      1  0.4797740000000  0.4788210000000  0.4683150000000 1.0
C      1  0.4413620000000  0.4971210000000  0.5573050000000 1.0
C      1  0.4283280000000  0.4936360000000  0.4415440000000 1.0
C      1  0.4350360000000  0.4667080000000  0.4411930000000 1.0
C      1  0.4799130000000  0.5287480000000  0.5493830000000 1.0
C      1  0.4811180000000  0.5686930000000  0.4528360000000 1.0
C      1  0.5483010000000  0.4766020000000  0.4441000000000 1.0
C      1  0.5598430000000  0.4342070000000  0.4883800000000 1.0
C      1  0.5753400000000  0.4567620000000  0.4833940000000 1.0
C      1  0.4177010000000  0.5084430000000  0.5139170000000 1.0
C      1  0.5554520000000  0.4825020000000  0.5714970000000 1.0
C      1  0.4271600000000  0.5381860000000  0.5171200000000 1.0
C      1  0.4488640000000  0.4524840000000  0.5518200000000 1.0
C      1  0.4640840000000  0.4287780000000  0.5458430000000 1.0
C      1  0.4417720000000  0.5438060000000  0.5404840000000 1.0
C      1  0.4718210000000  0.4391620000000  0.4442930000000 1.0
C      1  0.4996270000000  0.5509300000000  0.4411380000000 1.0
C      1  0.4160840000000  0.5331070000000  0.4645940000000 1.0
C      1  0.4232940000000  0.4901700000000  0.5361110000000 1.0
C      1  0.4730680000000  0.4878820000000  0.4237630000000 1.0
C      1  0.4699470000000  0.5559030000000  0.5362730000000 1.0
C      1  0.4517900000000  0.5225700000000  0.5557190000000 1.0
C      1  0.5191180000000  0.5960360000000  0.4815740000000 1.0
C      1  0.5068000000000  0.4722930000000  0.4728200000000 1.0
C      1  0.5664510000000  0.5288530000000  0.5257560000000 1.0
C      1  0.4213270000000  0.4477660000000  0.5107020000000 1.0
C      1  0.5183020000000  0.4967110000000  0.4879440000000 1.0
C      1  0.5543280000000  0.5057030000000  0.4352160000000 1.0
C      1  0.5408430000000  0.5768770000000  0.4816200000000 1.0
C      1  0.5113630000000  0.4469190000000  0.5143180000000 1.0
C      1  0.4168440000000  0.4641200000000  0.4875870000000 1.0
C      1  0.4586320000000  0.4760530000000  0.5659500000000 1.0
C      1  0.5431400000000  0.4442450000000  0.4425430000000 1.0
C      1  0.5711130000000  0.5443650000000  0.5002080000000 1.0
C      1  0.5311710000000  0.5196020000000  0.4284170000000 1.0
C      1  0.4137570000000  0.5064420000000  0.4636100000000 1.0
C      1  0.5116680000000  0.4210750000000  0.4697920000000 1.0
C      1  0.5635850000000  0.4794240000000  0.4693520000000 1.0
C      1  0.5168260000000  0.5418300000000  0.5164760000000 1.0
C      1  0.4666740000000  0.4870920000000  0.4903170000000 1.0
C      1  0.5317940000000  0.4355760000000  0.5283690000000 1.0
C      1  0.4984710000000  0.5331100000000  0.5718170000000 1.0
C      1  0.5568360000000  0.4359370000000  0.5168950000000 1.0
C      1  0.5416400000000  0.4286570000000  0.4663880000000 1.0
C      1  0.5026700000000  0.4441870000000  0.4875560000000 1.0
C      1  0.4574070000000  0.5125400000000  0.4838360000000 1.0
C      1  0.4629420000000  0.5246330000000  0.4514840000000 1.0
C      1  0.5043020000000  0.5051200000000  0.5765310000000 1.0
C      1  0.5397490000000  0.5593470000000  0.5574930000000 1.0
C      1  0.5271670000000  0.4905880000000  0.5625040000000 1.0
C      1  0.5734570000000  0.5018140000000  0.5653190000000 1.0
C      1  0.5814290000000  0.4774890000000  0.5227470000000 1.0
END
