TITL C-92108-9787-2 -56.6338280892949 125000 -735.582610127496 0 0 104 (C1) n - 1
REM
REM in /rds/project/t2_vol4/rds-t2-cs072/BORA/CARBON/from-Arr/AIRSS/Generating-Clusters/GAP-ML-2020/Only-C1/SD-CG/HFTN-CG
REM
REM
REM
REM
REM
REM ./C.cell (11c1c37f851c82e70ff6c80c92926a4b)
REM AIRSS Version 0.9.1 bugfix July 2018 build 013d7b7c2542+ Fri, 06 Jul 2018 19:26:36 +0100
REM compiler GCC version 9.3.0
REM options -cpp -mtune=generic -march=x86-64 -g -O0
REM seed 636696528 683134530 670603874 713339089 -1344204890 -1618915647 -330609555 960585767 482792269 211719266 -239613852 1973931198 -715693972 -773972516 -601380376 373879173 210917442 -150899858 1906446501 -750991705 -1263018079 2060616813 1203152535 1655309003 2120891454 -100397927 -418235929 -1966942402 -1619485340 -72801148 891255171 -1906145062 1457020388
REM
CELL 1.54180   50.00000   50.00000   50.00000   90.00000   90.00000   90.00000
LATT -1
SFAC C  
C      1  0.4626770000000  0.4268310000000  0.5079920000000 1.0
C      1  0.5671000000000  0.5453200000000  0.4716640000000 1.0
C      1  0.5103270000000  0.4257180000000  0.4532630000000 1.0
C      1  0.5238440000000  0.4262210000000  0.5304360000000 1.0
C      1  0.5866560000000  0.4750990000000  0.4792190000000 1.0
C      1  0.5460480000000  0.4405850000000  0.5424070000000 1.0
C      1  0.4015050000000  0.4672330000000  0.4874800000000 1.0
C      1  0.4237580000000  0.5278530000000  0.5198080000000 1.0
C      1  0.5514580000000  0.5461540000000  0.4476660000000 1.0
C      1  0.4125550000000  0.5146630000000  0.4970330000000 1.0
C      1  0.5141680000000  0.5483500000000  0.5636400000000 1.0
C      1  0.5784020000000  0.5190090000000  0.5492050000000 1.0
C      1  0.5000570000000  0.4340640000000  0.5436270000000 1.0
C      1  0.4661220000000  0.4828300000000  0.4986160000000 1.0
C      1  0.4404920000000  0.4390750000000  0.4678300000000 1.0
C      1  0.4747680000000  0.4719920000000  0.5265080000000 1.0
C      1  0.4429270000000  0.5148860000000  0.5843830000000 1.0
C      1  0.4549190000000  0.5309680000000  0.4344170000000 1.0
C      1  0.5188790000000  0.5090610000000  0.4761010000000 1.0
C      1  0.5553850000000  0.4566950000000  0.4492890000000 1.0
C      1  0.4907360000000  0.5840890000000  0.5478080000000 1.0
C      1  0.5158080000000  0.5744240000000  0.5520840000000 1.0
C      1  0.5885850000000  0.5297360000000  0.5239120000000 1.0
C      1  0.5802720000000  0.4955330000000  0.4603010000000 1.0
C      1  0.5097590000000  0.5352230000000  0.5179560000000 1.0
C      1  0.5029730000000  0.5034160000000  0.5549960000000 1.0
C      1  0.5727580000000  0.4908380000000  0.5525430000000 1.0
C      1  0.4911100000000  0.5008040000000  0.4294210000000 1.0
C      1  0.4977600000000  0.5520310000000  0.4351460000000 1.0
C      1  0.5131040000000  0.4684660000000  0.4913930000000 1.0
C      1  0.5619450000000  0.5397790000000  0.5607500000000 1.0
C      1  0.5366690000000  0.4567780000000  0.5642120000000 1.0
C      1  0.5342780000000  0.4894100000000  0.4882810000000 1.0
C      1  0.5139860000000  0.4606700000000  0.4237680000000 1.0
C      1  0.4448980000000  0.5290970000000  0.5612830000000 1.0
C      1  0.5618400000000  0.4835830000000  0.4407850000000 1.0
C      1  0.4950360000000  0.5318780000000  0.5475320000000 1.0
C      1  0.4563540000000  0.5563430000000  0.4965600000000 1.0
C      1  0.4023390000000  0.4665400000000  0.4608420000000 1.0
C      1  0.4168640000000  0.4524930000000  0.5085140000000 1.0
C      1  0.4630340000000  0.4730520000000  0.5755400000000 1.0
C      1  0.4860790000000  0.4543180000000  0.4252410000000 1.0
C      1  0.5186120000000  0.4894320000000  0.5326520000000 1.0
C      1  0.4821240000000  0.5290800000000  0.4259780000000 1.0
C      1  0.4942680000000  0.5010180000000  0.4616290000000 1.0
C      1  0.4654250000000  0.5418230000000  0.5428530000000 1.0
C      1  0.4775530000000  0.5940470000000  0.4664310000000 1.0
C      1  0.4994850000000  0.5143320000000  0.5013840000000 1.0
C      1  0.5352790000000  0.5718750000000  0.5040480000000 1.0
C      1  0.5049640000000  0.4141290000000  0.4804580000000 1.0
C      1  0.5307270000000  0.4419520000000  0.4970900000000 1.0
C      1  0.4521000000000  0.5342820000000  0.5156360000000 1.0
C      1  0.4005790000000  0.4904460000000  0.5050530000000 1.0
C      1  0.5303550000000  0.4443300000000  0.4408400000000 1.0
C      1  0.4583870000000  0.5112790000000  0.4941710000000 1.0
C      1  0.4695490000000  0.5977620000000  0.4905550000000 1.0
C      1  0.5922660000000  0.5134910000000  0.5016240000000 1.0
C      1  0.5613500000000  0.5607760000000  0.4953900000000 1.0
C      1  0.5434020000000  0.5271950000000  0.4294060000000 1.0
C      1  0.4760810000000  0.4409550000000  0.5288520000000 1.0
C      1  0.4119340000000  0.4745330000000  0.5278480000000 1.0
C      1  0.4586790000000  0.5816810000000  0.5108770000000 1.0
C      1  0.5287770000000  0.5049700000000  0.5718210000000 1.0
C      1  0.5706310000000  0.4525950000000  0.4740860000000 1.0
C      1  0.5381740000000  0.5747470000000  0.5336860000000 1.0
C      1  0.4858230000000  0.4597940000000  0.5801290000000 1.0
C      1  0.5766860000000  0.5551240000000  0.5188010000000 1.0
C      1  0.4443850000000  0.4822100000000  0.4382050000000 1.0
C      1  0.4856050000000  0.5526570000000  0.4821270000000 1.0
C      1  0.5484980000000  0.4833970000000  0.5676670000000 1.0
C      1  0.5403130000000  0.4991070000000  0.5156510000000 1.0
C      1  0.5361240000000  0.5321030000000  0.5711930000000 1.0
C      1  0.5595650000000  0.4433360000000  0.4980570000000 1.0
C      1  0.4241560000000  0.5164480000000  0.5450040000000 1.0
C      1  0.4639560000000  0.4249090000000  0.4606250000000 1.0
C      1  0.4381610000000  0.4863840000000  0.5763270000000 1.0
C      1  0.4402270000000  0.5480550000000  0.4735490000000 1.0
C      1  0.5824500000000  0.5206350000000  0.4750280000000 1.0
C      1  0.4215330000000  0.4887840000000  0.5508620000000 1.0
C      1  0.5373970000000  0.5257270000000  0.5211450000000 1.0
C      1  0.5667670000000  0.4498260000000  0.5248720000000 1.0
C      1  0.4684720000000  0.5735250000000  0.5375430000000 1.0
C      1  0.5813590000000  0.4738270000000  0.5298640000000 1.0
C      1  0.5209230000000  0.4166410000000  0.5035840000000 1.0
C      1  0.5172570000000  0.4883060000000  0.4206540000000 1.0
C      1  0.5918790000000  0.4853630000000  0.5054090000000 1.0
C      1  0.4535400000000  0.5536230000000  0.4502870000000 1.0
C      1  0.5429600000000  0.4991950000000  0.4257360000000 1.0
C      1  0.4870380000000  0.4751600000000  0.4765460000000 1.0
C      1  0.4400620000000  0.5093470000000  0.4464820000000 1.0
C      1  0.4993390000000  0.4835420000000  0.5135200000000 1.0
C      1  0.4706130000000  0.4782490000000  0.4267340000000 1.0
C      1  0.5615130000000  0.5621090000000  0.5421570000000 1.0
C      1  0.5077280000000  0.4493990000000  0.5666440000000 1.0
C      1  0.5092620000000  0.5587690000000  0.5003850000000 1.0
C      1  0.4846360000000  0.4309890000000  0.4416930000000 1.0
C      1  0.4331360000000  0.5189850000000  0.4749140000000 1.0
C      1  0.4811590000000  0.5223290000000  0.4796890000000 1.0
C      1  0.4289670000000  0.4615300000000  0.4525240000000 1.0
C      1  0.4764200000000  0.4154370000000  0.4845320000000 1.0
C      1  0.4806250000000  0.5667090000000  0.4551660000000 1.0
C      1  0.4375100000000  0.4369300000000  0.4970450000000 1.0
C      1  0.4789560000000  0.4843950000000  0.5535720000000 1.0
C      1  0.5260670000000  0.5493040000000  0.4342620000000 1.0
END
