TITL C-92111-23-2 -57.9762141874034 125000 -934.756026447805 0 0 134 (C1) n - 1
REM
REM in /rds/project/t2_vol4/rds-t2-cs072/BORA/CARBON/from-Arr/AIRSS/Generating-Clusters/GAP-ML-2020/Only-C1/SD-CG/HFTN-CG
REM
REM
REM
REM
REM
REM ./C.cell (11c1c37f851c82e70ff6c80c92926a4b)
REM AIRSS Version 0.9.1 bugfix July 2018 build 013d7b7c2542+ Fri, 06 Jul 2018 19:26:36 +0100
REM compiler GCC version 9.3.0
REM options -cpp -mtune=generic -march=x86-64 -g -O0
REM seed -863198420 54046363 -484696981 1515494767 -1439604356 1986297623 -1918126746 1802722300 816635271 -1846265142 300189664 656422336 -1345626526 -368329579 1656098488 1550251626 338291501 -1365358702 660312949 615122210 938480260 -859330179 -1490711195 359671625 1814521464 -558897308 2128398721 364751573 -2143610921 1518600318 -251030462 -1988977495 456385008
REM
CELL 1.54180   50.00000   50.00000   50.00000   90.00000   90.00000   90.00000
LATT -1
SFAC C  
C      1  0.4883160000000  0.5282340000000  0.4024990000000 1.0
C      1  0.5020120000000  0.5408220000000  0.5553020000000 1.0
C      1  0.4096360000000  0.5053220000000  0.4810240000000 1.0
C      1  0.4810320000000  0.5911560000000  0.4705870000000 1.0
C      1  0.4980790000000  0.4160850000000  0.5602970000000 1.0
C      1  0.5631760000000  0.4868460000000  0.4353810000000 1.0
C      1  0.4833150000000  0.5675870000000  0.4295030000000 1.0
C      1  0.5187360000000  0.5209880000000  0.4510700000000 1.0
C      1  0.5171990000000  0.5353450000000  0.5145260000000 1.0
C      1  0.4312450000000  0.4709920000000  0.5030490000000 1.0
C      1  0.5151440000000  0.4054050000000  0.5397910000000 1.0
C      1  0.5521710000000  0.5091270000000  0.4213250000000 1.0
C      1  0.5967830000000  0.4822390000000  0.5178440000000 1.0
C      1  0.5452500000000  0.5619710000000  0.5413120000000 1.0
C      1  0.5674370000000  0.5335120000000  0.4751020000000 1.0
C      1  0.5159140000000  0.5571830000000  0.5344770000000 1.0
C      1  0.5361050000000  0.4759890000000  0.5843120000000 1.0
C      1  0.5787590000000  0.4714370000000  0.5619490000000 1.0
C      1  0.4426960000000  0.4214330000000  0.5206300000000 1.0
C      1  0.5303080000000  0.4199670000000  0.4457030000000 1.0
C      1  0.4657120000000  0.4921150000000  0.4774930000000 1.0
C      1  0.5079970000000  0.5986180000000  0.4686540000000 1.0
C      1  0.4914890000000  0.5256610000000  0.4553490000000 1.0
C      1  0.4711210000000  0.4992690000000  0.5876430000000 1.0
C      1  0.4577140000000  0.5250150000000  0.5874710000000 1.0
C      1  0.5337280000000  0.4470750000000  0.5484050000000 1.0
C      1  0.5405440000000  0.5748340000000  0.4903940000000 1.0
C      1  0.5751680000000  0.4863160000000  0.4628550000000 1.0
C      1  0.5875320000000  0.5282720000000  0.5172800000000 1.0
C      1  0.5157030000000  0.4896180000000  0.5176960000000 1.0
C      1  0.5274260000000  0.4619630000000  0.5212340000000 1.0
C      1  0.4215700000000  0.5692990000000  0.5150200000000 1.0
C      1  0.4772040000000  0.4012540000000  0.5107330000000 1.0
C      1  0.4294780000000  0.5430160000000  0.4615430000000 1.0
C      1  0.4763030000000  0.5393280000000  0.4276050000000 1.0
C      1  0.5319000000000  0.4635510000000  0.4637500000000 1.0
C      1  0.4194050000000  0.4971030000000  0.4549180000000 1.0
C      1  0.4496970000000  0.4240410000000  0.5744080000000 1.0
C      1  0.4402990000000  0.5667080000000  0.5338530000000 1.0
C      1  0.5522730000000  0.5386930000000  0.4271920000000 1.0
C      1  0.5273990000000  0.4032150000000  0.4940300000000 1.0
C      1  0.5538470000000  0.4621500000000  0.5670270000000 1.0
C      1  0.4477380000000  0.4680610000000  0.5262300000000 1.0
C      1  0.5533900000000  0.5363150000000  0.5540910000000 1.0
C      1  0.5286780000000  0.5038310000000  0.4053500000000 1.0
C      1  0.4865010000000  0.4958170000000  0.4594680000000 1.0
C      1  0.5337960000000  0.5856690000000  0.5574780000000 1.0
C      1  0.5216800000000  0.5966420000000  0.4936370000000 1.0
C      1  0.4936880000000  0.4531080000000  0.4839730000000 1.0
C      1  0.4606230000000  0.4026530000000  0.5344680000000 1.0
C      1  0.4701810000000  0.5678130000000  0.4885260000000 1.0
C      1  0.4955370000000  0.5817050000000  0.5344190000000 1.0
C      1  0.4873960000000  0.4895240000000  0.5222970000000 1.0
C      1  0.5125040000000  0.4801220000000  0.4057770000000 1.0
C      1  0.4694600000000  0.4093670000000  0.5607270000000 1.0
C      1  0.4807980000000  0.4585570000000  0.5569720000000 1.0
C      1  0.4484390000000  0.5170140000000  0.5107740000000 1.0
C      1  0.5866160000000  0.4617070000000  0.4735470000000 1.0
C      1  0.5245530000000  0.5852310000000  0.4483740000000 1.0
C      1  0.5125610000000  0.5705740000000  0.4273090000000 1.0
C      1  0.5882310000000  0.4902280000000  0.5446610000000 1.0
C      1  0.5234320000000  0.5025380000000  0.5825040000000 1.0
C      1  0.5392930000000  0.4199560000000  0.5364720000000 1.0
C      1  0.4122180000000  0.5336120000000  0.4826530000000 1.0
C      1  0.5008950000000  0.4501670000000  0.5110820000000 1.0
C      1  0.4489640000000  0.5639980000000  0.4663580000000 1.0
C      1  0.4694760000000  0.5675530000000  0.5235830000000 1.0
C      1  0.4587030000000  0.4193820000000  0.4965780000000 1.0
C      1  0.5711400000000  0.4310130000000  0.4971420000000 1.0
C      1  0.5060630000000  0.4447310000000  0.5656170000000 1.0
C      1  0.4699610000000  0.4590700000000  0.4151740000000 1.0
C      1  0.5245680000000  0.4955550000000  0.4877070000000 1.0
C      1  0.4529900000000  0.5217800000000  0.5381360000000 1.0
C      1  0.5332400000000  0.6066600000000  0.5392640000000 1.0
C      1  0.4326910000000  0.4433620000000  0.5643020000000 1.0
C      1  0.5249870000000  0.4574540000000  0.4171560000000 1.0
C      1  0.4320200000000  0.5229360000000  0.5729950000000 1.0
C      1  0.5157500000000  0.5287240000000  0.4010200000000 1.0
C      1  0.4314410000000  0.4710170000000  0.4526740000000 1.0
C      1  0.4084830000000  0.5457860000000  0.5081900000000 1.0
C      1  0.4912770000000  0.5452210000000  0.4812070000000 1.0
C      1  0.4926660000000  0.5603110000000  0.5777740000000 1.0
C      1  0.5264350000000  0.5218560000000  0.5595430000000 1.0
C      1  0.4078810000000  0.5303360000000  0.5321200000000 1.0
C      1  0.5620560000000  0.5514890000000  0.4510450000000 1.0
C      1  0.5058670000000  0.4763190000000  0.4695490000000 1.0
C      1  0.4224750000000  0.4956480000000  0.5598920000000 1.0
C      1  0.5750010000000  0.5179480000000  0.5408580000000 1.0
C      1  0.5480180000000  0.5740760000000  0.4606850000000 1.0
C      1  0.4694260000000  0.5066710000000  0.4038790000000 1.0
C      1  0.5254930000000  0.4025760000000  0.4664180000000 1.0
C      1  0.4483820000000  0.4919980000000  0.5454750000000 1.0
C      1  0.4320680000000  0.4704140000000  0.5738200000000 1.0
C      1  0.4643500000000  0.4413120000000  0.4766480000000 1.0
C      1  0.5034230000000  0.5835560000000  0.5647490000000 1.0
C      1  0.4077700000000  0.5025820000000  0.5329490000000 1.0
C      1  0.4721620000000  0.5493520000000  0.5917580000000 1.0
C      1  0.5055550000000  0.3974960000000  0.5134080000000 1.0
C      1  0.5853840000000  0.5097500000000  0.4762900000000 1.0
C      1  0.5580530000000  0.5667680000000  0.5124410000000 1.0
C      1  0.4775960000000  0.5383920000000  0.5336410000000 1.0
C      1  0.4665740000000  0.5799530000000  0.4489690000000 1.0
C      1  0.5336120000000  0.5227790000000  0.4753600000000 1.0
C      1  0.5476220000000  0.4620930000000  0.4344780000000 1.0
C      1  0.4301440000000  0.5397380000000  0.5486520000000 1.0
C      1  0.5123030000000  0.4339760000000  0.4274360000000 1.0
C      1  0.4831960000000  0.4814340000000  0.4045500000000 1.0
C      1  0.5296550000000  0.5118510000000  0.5296780000000 1.0
C      1  0.5553620000000  0.4730300000000  0.5098230000000 1.0
C      1  0.4841520000000  0.4362830000000  0.4272520000000 1.0
C      1  0.4611710000000  0.4786500000000  0.5703410000000 1.0
C      1  0.5960290000000  0.5060200000000  0.5019550000000 1.0
C      1  0.5824020000000  0.4595400000000  0.5039140000000 1.0
C      1  0.5737130000000  0.4369350000000  0.4687160000000 1.0
C      1  0.5132670000000  0.6022200000000  0.5204150000000 1.0
C      1  0.5498070000000  0.4166600000000  0.5096280000000 1.0
C      1  0.4887580000000  0.5288020000000  0.5068560000000 1.0
C      1  0.4515080000000  0.5222930000000  0.4224270000000 1.0
C      1  0.5547770000000  0.4363050000000  0.4470210000000 1.0
C      1  0.5556280000000  0.4999460000000  0.5244970000000 1.0
C      1  0.5099070000000  0.4645980000000  0.5872240000000 1.0
C      1  0.4627770000000  0.4353410000000  0.4471460000000 1.0
C      1  0.5480220000000  0.4789910000000  0.4818720000000 1.0
C      1  0.5740990000000  0.5470970000000  0.5012870000000 1.0
C      1  0.4455150000000  0.4665350000000  0.4783350000000 1.0
C      1  0.4473410000000  0.4565090000000  0.4339520000000 1.0
C      1  0.4112260000000  0.4902840000000  0.5062800000000 1.0
C      1  0.4347980000000  0.4440310000000  0.5355110000000 1.0
C      1  0.4792750000000  0.4628050000000  0.5283050000000 1.0
C      1  0.4720400000000  0.5043580000000  0.5022450000000 1.0
C      1  0.4305330000000  0.5211830000000  0.4415490000000 1.0
C      1  0.4978540000000  0.4913260000000  0.5902490000000 1.0
C      1  0.5214840000000  0.5464150000000  0.4877890000000 1.0
C      1  0.5286030000000  0.5499680000000  0.4152230000000 1.0
END
