TITL C-92898-3672-7 -24.8951691870326 125000 -540.592351122663 0 0 79 (C1) n - 1
REM
REM in /rds/project/t2_vol4/rds-t2-cs072/BORA/CARBON/from-Arr/AIRSS/Generating-Clusters/GAP-ML-2020/Only-C1/SD-CG/HFTN-CG
REM
REM
REM
REM
REM
REM ./C.cell (11c1c37f851c82e70ff6c80c92926a4b)
REM AIRSS Version 0.9.1 bugfix July 2018 build 013d7b7c2542+ Fri, 06 Jul 2018 19:26:36 +0100
REM compiler GCC version 9.3.0
REM options -cpp -mtune=generic -march=x86-64 -g -O0
REM seed -336991929 446198217 -41876479 -1461020409 1714911474 1269846256 664828333 -1701502179 -1226082106 83027139 345383831 1255374137 -275237648 1713585072 204378956 -893944669 1295048678 1883366895 315929346 1498441020 -1086530850 2095021325 -832153663 641517232 -1363524340 -1884944287 1419894386 -769174490 -1136923417 -695728468 -1470914641 -1414974280 -1609236507
REM
CELL 1.54180   50.00000   50.00000   50.00000   90.00000   90.00000   90.00000
LATT -1
SFAC C  
C      1  0.5142620000000  0.4975970000000  0.5026570000000 1.0
C      1  0.5254570000000  0.4778490000000  0.5200820000000 1.0
C      1  0.4732480000000  0.4840890000000  0.4945210000000 1.0
C      1  0.4345640000000  0.5210440000000  0.4711840000000 1.0
C      1  0.4838110000000  0.4440130000000  0.4526900000000 1.0
C      1  0.4822990000000  0.5357360000000  0.4288970000000 1.0
C      1  0.4562350000000  0.5119320000000  0.5716440000000 1.0
C      1  0.5603320000000  0.5187580000000  0.4755510000000 1.0
C      1  0.5350410000000  0.5278810000000  0.4340150000000 1.0
C      1  0.5418060000000  0.5497390000000  0.5094890000000 1.0
C      1  0.5122140000000  0.4398390000000  0.4512140000000 1.0
C      1  0.5032730000000  0.4247720000000  0.5213410000000 1.0
C      1  0.4340010000000  0.4946040000000  0.4617810000000 1.0
C      1  0.4742170000000  0.5301680000000  0.4762160000000 1.0
C      1  0.5309930000000  0.5687260000000  0.4916950000000 1.0
C      1  0.4577080000000  0.5540100000000  0.5126210000000 1.0
C      1  0.4743280000000  0.4917840000000  0.5823850000000 1.0
C      1  0.5442360000000  0.4469380000000  0.4849700000000 1.0
C      1  0.4686250000000  0.5327900000000  0.5547650000000 1.0
C      1  0.5562220000000  0.4938510000000  0.4593070000000 1.0
C      1  0.4828440000000  0.5001910000000  0.4708300000000 1.0
C      1  0.5255240000000  0.4790700000000  0.4243350000000 1.0
C      1  0.4983160000000  0.5386840000000  0.4901350000000 1.0
C      1  0.5115470000000  0.5424470000000  0.4225720000000 1.0
C      1  0.5721450000000  0.4896580000000  0.5359870000000 1.0
C      1  0.4792200000000  0.5130330000000  0.5310860000000 1.0
C      1  0.5610270000000  0.5138370000000  0.5299140000000 1.0
C      1  0.5365620000000  0.4694150000000  0.5631700000000 1.0
C      1  0.4988330000000  0.4255210000000  0.4935850000000 1.0
C      1  0.5026570000000  0.5221940000000  0.5142510000000 1.0
C      1  0.5255450000000  0.4436180000000  0.5575360000000 1.0
C      1  0.5291920000000  0.4329120000000  0.5309110000000 1.0
C      1  0.5020520000000  0.5591940000000  0.5381740000000 1.0
C      1  0.5213670000000  0.4315970000000  0.4771060000000 1.0
C      1  0.4982760000000  0.4944080000000  0.5942110000000 1.0
C      1  0.5627320000000  0.4707230000000  0.5538350000000 1.0
C      1  0.5688900000000  0.4616640000000  0.5290920000000 1.0
C      1  0.4766310000000  0.4373420000000  0.4792220000000 1.0
C      1  0.5155050000000  0.5142840000000  0.5943240000000 1.0
C      1  0.5000160000000  0.4805980000000  0.4147880000000 1.0
C      1  0.4572750000000  0.4576590000000  0.4882890000000 1.0
C      1  0.4413380000000  0.4925620000000  0.5565090000000 1.0
C      1  0.4349890000000  0.4847210000000  0.5205150000000 1.0
C      1  0.5458560000000  0.5387530000000  0.4593120000000 1.0
C      1  0.5164190000000  0.5692710000000  0.4214850000000 1.0
C      1  0.4513380000000  0.5298540000000  0.4941980000000 1.0
C      1  0.5169650000000  0.5726330000000  0.4480000000000 1.0
C      1  0.4837500000000  0.4331140000000  0.5414930000000 1.0
C      1  0.4575920000000  0.5043800000000  0.5108810000000 1.0
C      1  0.4608880000000  0.4501020000000  0.5395160000000 1.0
C      1  0.5320480000000  0.4575620000000  0.4416690000000 1.0
C      1  0.5218340000000  0.4891910000000  0.5475710000000 1.0
C      1  0.5392910000000  0.5662010000000  0.4651150000000 1.0
C      1  0.4535120000000  0.5514790000000  0.5386910000000 1.0
C      1  0.4465090000000  0.4579670000000  0.5162410000000 1.0
C      1  0.4460910000000  0.4688070000000  0.4623300000000 1.0
C      1  0.5112050000000  0.5003840000000  0.4735720000000 1.0
C      1  0.4417730000000  0.5144860000000  0.4440270000000 1.0
C      1  0.5227420000000  0.5399860000000  0.5293220000000 1.0
C      1  0.5339360000000  0.5188620000000  0.5481060000000 1.0
C      1  0.4661100000000  0.4746840000000  0.5580950000000 1.0
C      1  0.4952520000000  0.4771500000000  0.5142410000000 1.0
C      1  0.5420470000000  0.5009480000000  0.4345290000000 1.0
C      1  0.4990350000000  0.4414550000000  0.5632880000000 1.0
C      1  0.5176660000000  0.5298040000000  0.5717200000000 1.0
C      1  0.4949620000000  0.5453310000000  0.5613410000000 1.0
C      1  0.4759710000000  0.5496450000000  0.4529760000000 1.0
C      1  0.5005230000000  0.5681850000000  0.4910280000000 1.0
C      1  0.5174940000000  0.5282770000000  0.4696490000000 1.0
C      1  0.4891330000000  0.4880340000000  0.5420500000000 1.0
C      1  0.4932380000000  0.5711640000000  0.4623350000000 1.0
C      1  0.5593340000000  0.5274270000000  0.5039730000000 1.0
C      1  0.4184490000000  0.4882460000000  0.5427170000000 1.0
C      1  0.4655350000000  0.4635740000000  0.4418710000000 1.0
C      1  0.4845340000000  0.5666990000000  0.5152710000000 1.0
C      1  0.5447010000000  0.4526460000000  0.5138310000000 1.0
C      1  0.4741100000000  0.4843140000000  0.4224240000000 1.0
C      1  0.4647750000000  0.5126500000000  0.4266730000000 1.0
C      1  0.5500270000000  0.4652810000000  0.4630590000000 1.0
END
