TITL C-92887-3743-5 414.905516352161 125000 -332.993078077557 0 0 50 (C1) n - 1
REM
REM in /rds/project/t2_vol4/rds-t2-cs072/BORA/CARBON/from-Arr/AIRSS/Generating-Clusters/GAP-ML-2020/Only-C1/SD-CG/HFTN-CG
REM
REM
REM
REM
REM
REM ./C.cell (11c1c37f851c82e70ff6c80c92926a4b)
REM AIRSS Version 0.9.1 bugfix July 2018 build 013d7b7c2542+ Fri, 06 Jul 2018 19:26:36 +0100
REM compiler GCC version 9.3.0
REM options -cpp -mtune=generic -march=x86-64 -g -O0
REM seed -983453314 -2111246331 436564751 -382943673 315675465 -851288007 -1686074 675196976 -1994082233 -1841107635 1115472699 -1994939183 -468701559 -774954205 1269556910 -70992981 1810250482 -2116518218 157293909 -170678689 223203221 -2000275563 -2017714175 541933681 2051207926 2105998907 -2130835739 2040523923 -1587900629 1503547872 702114686 -2007529403 -1842106643
REM
CELL 1.54180   50.00000   50.00000   50.00000   90.00000   90.00000   90.00000
LATT -1
SFAC C  
C      1  0.4959290000000  0.4476590000000  0.5511520000000 1.0
C      1  0.5115170000000  0.5454250000000  0.5197910000000 1.0
C      1  0.5309020000000  0.4933400000000  0.5624480000000 1.0
C      1  0.4864470000000  0.4727210000000  0.5625740000000 1.0
C      1  0.5000950000000  0.4210130000000  0.4967660000000 1.0
C      1  0.4643940000000  0.4739950000000  0.4815700000000 1.0
C      1  0.5527650000000  0.5181420000000  0.4625900000000 1.0
C      1  0.4874990000000  0.5283290000000  0.5553660000000 1.0
C      1  0.5176230000000  0.4391270000000  0.4861760000000 1.0
C      1  0.4837410000000  0.5817610000000  0.4929450000000 1.0
C      1  0.4638340000000  0.5487700000000  0.5157560000000 1.0
C      1  0.4695450000000  0.5256120000000  0.5308470000000 1.0
C      1  0.4891970000000  0.5647150000000  0.5130380000000 1.0
C      1  0.4920290000000  0.4972690000000  0.4095740000000 1.0
C      1  0.5448660000000  0.4540120000000  0.5277460000000 1.0
C      1  0.4851370000000  0.5220740000000  0.4146990000000 1.0
C      1  0.4757870000000  0.4341150000000  0.5052400000000 1.0
C      1  0.5120010000000  0.5435390000000  0.4693640000000 1.0
C      1  0.4939760000000  0.5208840000000  0.5126710000000 1.0
C      1  0.4778380000000  0.4496500000000  0.5290560000000 1.0
C      1  0.5021080000000  0.4943670000000  0.5249980000000 1.0
C      1  0.4531600000000  0.5189850000000  0.4794320000000 1.0
C      1  0.5453920000000  0.4665010000000  0.4716970000000 1.0
C      1  0.4570490000000  0.4992870000000  0.5244180000000 1.0
C      1  0.4553080000000  0.5456230000000  0.4887780000000 1.0
C      1  0.5401680000000  0.4695480000000  0.5507530000000 1.0
C      1  0.4977030000000  0.5217070000000  0.4819060000000 1.0
C      1  0.5347800000000  0.5167230000000  0.5464760000000 1.0
C      1  0.5363110000000  0.4604020000000  0.5004090000000 1.0
C      1  0.4756570000000  0.5136560000000  0.4618470000000 1.0
C      1  0.4724530000000  0.5641630000000  0.4739940000000 1.0
C      1  0.5408090000000  0.4943890000000  0.4650260000000 1.0
C      1  0.4892230000000  0.5151730000000  0.5783510000000 1.0
C      1  0.5230390000000  0.4479010000000  0.5451550000000 1.0
C      1  0.5145210000000  0.5368920000000  0.5471880000000 1.0
C      1  0.5037260000000  0.4914110000000  0.5747630000000 1.0
C      1  0.4994400000000  0.4746870000000  0.4200250000000 1.0
C      1  0.4802130000000  0.5326550000000  0.4390300000000 1.0
C      1  0.5012070000000  0.4659400000000  0.4455360000000 1.0
C      1  0.5239150000000  0.4882590000000  0.5059620000000 1.0
C      1  0.5417570000000  0.5118760000000  0.5177130000000 1.0
C      1  0.5127230000000  0.4965960000000  0.4795930000000 1.0
C      1  0.4601480000000  0.4477930000000  0.4864420000000 1.0
C      1  0.4903320000000  0.5554480000000  0.4539150000000 1.0
C      1  0.4761440000000  0.4792980000000  0.5343760000000 1.0
C      1  0.4523480000000  0.4964860000000  0.4967080000000 1.0
C      1  0.4869750000000  0.4848640000000  0.4651210000000 1.0
C      1  0.5226300000000  0.4516380000000  0.4607870000000 1.0
C      1  0.5396080000000  0.5390990000000  0.4758210000000 1.0
C      1  0.5360340000000  0.5364810000000  0.5044110000000 1.0
END
