TITL C-92890-3694-13 -110.71067766982 125000 -209.687420689644 0 0 31 (C1) n - 1
REM
REM in /rds/project/t2_vol4/rds-t2-cs072/BORA/CARBON/from-Arr/AIRSS/Generating-Clusters/GAP-ML-2020/Only-C1/SD-CG/HFTN-CG
REM
REM
REM
REM
REM
REM ./C.cell (11c1c37f851c82e70ff6c80c92926a4b)
REM AIRSS Version 0.9.1 bugfix July 2018 build 013d7b7c2542+ Fri, 06 Jul 2018 19:26:36 +0100
REM compiler GCC version 9.3.0
REM options -cpp -mtune=generic -march=x86-64 -g -O0
REM seed -1855468315 1151522526 540147515 -1475546590 -717300332 1518640525 896763072 766174673 -1401334537 -493075268 526296724 -1149040097 -1260022389 -207931308 1548014872 615257832 -270961817 -225578039 1472931259 356503908 535776815 -693925699 500707324 -33612005 1350120837 -1146693586 -1585209069 817375441 1814058660 -1023096195 -2017394504 42956273 -779136003
REM
CELL 1.54180   50.00000   50.00000   50.00000   90.00000   90.00000   90.00000
LATT -1
SFAC C  
C      1  0.5297730000000  0.5317300000000  0.4914970000000 1.0
C      1  0.4769250000000  0.4623840000000  0.4847170000000 1.0
C      1  0.4789960000000  0.4626340000000  0.5310610000000 1.0
C      1  0.4962070000000  0.4766620000000  0.4683100000000 1.0
C      1  0.5701950000000  0.4629520000000  0.4788250000000 1.0
C      1  0.4923430000000  0.5058980000000  0.4630750000000 1.0
C      1  0.5296400000000  0.5217580000000  0.5190100000000 1.0
C      1  0.4851980000000  0.5454350000000  0.5226740000000 1.0
C      1  0.5048950000000  0.5274820000000  0.5333720000000 1.0
C      1  0.4381690000000  0.4918030000000  0.4795320000000 1.0
C      1  0.4572630000000  0.4798170000000  0.5233830000000 1.0
C      1  0.5423160000000  0.4957180000000  0.5242000000000 1.0
C      1  0.4998650000000  0.4788690000000  0.5429400000000 1.0
C      1  0.4623840000000  0.5061140000000  0.5334690000000 1.0
C      1  0.4833220000000  0.5582820000000  0.4967480000000 1.0
C      1  0.4400810000000  0.5088210000000  0.4602990000000 1.0
C      1  0.5138140000000  0.5243550000000  0.4691440000000 1.0
C      1  0.5823120000000  0.4730170000000  0.5008150000000 1.0
C      1  0.5184770000000  0.4563140000000  0.5059380000000 1.0
C      1  0.4899360000000  0.4509660000000  0.5076060000000 1.0
C      1  0.5232320000000  0.4649550000000  0.4775620000000 1.0
C      1  0.4611270000000  0.5291760000000  0.5174900000000 1.0
C      1  0.4521900000000  0.4747640000000  0.4951490000000 1.0
C      1  0.4663000000000  0.5191830000000  0.4680880000000 1.0
C      1  0.5243740000000  0.4736480000000  0.5281740000000 1.0
C      1  0.5142370000000  0.5509930000000  0.4783070000000 1.0
C      1  0.5477360000000  0.4611180000000  0.4667310000000 1.0
C      1  0.4901530000000  0.5055090000000  0.5454150000000 1.0
C      1  0.5655460000000  0.4870140000000  0.5144530000000 1.0
C      1  0.4628040000000  0.5379920000000  0.4898420000000 1.0
C      1  0.5001890000000  0.5746400000000  0.4821740000000 1.0
END
