TITL C-92874-3693-4 -92.2259085154693 125000 -403.01896036561 0 0 60 (C1) n - 1
REM
REM in /rds/project/t2_vol4/rds-t2-cs072/BORA/CARBON/from-Arr/AIRSS/Generating-Clusters/GAP-ML-2020/Only-C1/SD-CG/HFTN-CG
REM
REM
REM
REM
REM
REM ./C.cell (11c1c37f851c82e70ff6c80c92926a4b)
REM AIRSS Version 0.9.1 bugfix July 2018 build 013d7b7c2542+ Fri, 06 Jul 2018 19:26:36 +0100
REM compiler GCC version 9.3.0
REM options -cpp -mtune=generic -march=x86-64 -g -O0
REM seed -1915345735 2104712562 -1845839836 -695609315 -503708441 -2050667768 -1418422797 -1642098806 1989289424 1217820335 -1234520306 -108539999 300430719 -1929649167 164536383 -1936753885 1719149282 -1534970031 1071597829 64093545 789897071 -310130896 -1268095307 305169821 -597874998 1222621225 1888688942 -62320372 167729757 -980191510 707730862 1296462460 40654599
REM
CELL 1.54180   50.00000   50.00000   50.00000   90.00000   90.00000   90.00000
LATT -1
SFAC C  
C      1  0.4690450000000  0.5059860000000  0.4827370000000 1.0
C      1  0.5077830000000  0.4440930000000  0.4950450000000 1.0
C      1  0.4949990000000  0.4722850000000  0.4499030000000 1.0
C      1  0.4372260000000  0.5332340000000  0.4918270000000 1.0
C      1  0.5651020000000  0.5266740000000  0.4746440000000 1.0
C      1  0.4859900000000  0.4806560000000  0.5496960000000 1.0
C      1  0.5313070000000  0.4529570000000  0.5359560000000 1.0
C      1  0.4318360000000  0.5230010000000  0.5183510000000 1.0
C      1  0.5637520000000  0.4981470000000  0.4683320000000 1.0
C      1  0.5028640000000  0.4764850000000  0.4988810000000 1.0
C      1  0.5557100000000  0.5261680000000  0.5009770000000 1.0
C      1  0.4840090000000  0.4541290000000  0.5365090000000 1.0
C      1  0.4856910000000  0.4339270000000  0.4817310000000 1.0
C      1  0.5060870000000  0.5006560000000  0.5621200000000 1.0
C      1  0.5400260000000  0.4913390000000  0.4536550000000 1.0
C      1  0.4223520000000  0.4928190000000  0.4680380000000 1.0
C      1  0.4741380000000  0.5470730000000  0.5184470000000 1.0
C      1  0.4935130000000  0.4924230000000  0.4751230000000 1.0
C      1  0.5003480000000  0.5412930000000  0.5310250000000 1.0
C      1  0.5084270000000  0.4435580000000  0.5250540000000 1.0
C      1  0.5307910000000  0.4479910000000  0.4756250000000 1.0
C      1  0.4914790000000  0.4879650000000  0.4258530000000 1.0
C      1  0.4983820000000  0.5516440000000  0.4521660000000 1.0
C      1  0.4393820000000  0.5128330000000  0.4730370000000 1.0
C      1  0.5691970000000  0.5139770000000  0.5236630000000 1.0
C      1  0.4924870000000  0.5253190000000  0.5583640000000 1.0
C      1  0.4448690000000  0.4786440000000  0.5116950000000 1.0
C      1  0.5414870000000  0.4784400000000  0.5306890000000 1.0
C      1  0.5281360000000  0.5419110000000  0.4535640000000 1.0
C      1  0.5301660000000  0.5034280000000  0.5451710000000 1.0
C      1  0.4909990000000  0.5378930000000  0.4283440000000 1.0
C      1  0.5249460000000  0.4668640000000  0.4554510000000 1.0
C      1  0.4657690000000  0.5202050000000  0.5569240000000 1.0
C      1  0.5447630000000  0.5720520000000  0.5370140000000 1.0
C      1  0.5251940000000  0.5142420000000  0.4452200000000 1.0
C      1  0.4571340000000  0.5277390000000  0.5305950000000 1.0
C      1  0.5528920000000  0.5210680000000  0.5468760000000 1.0
C      1  0.4260210000000  0.4946800000000  0.5285750000000 1.0
C      1  0.5696680000000  0.4869820000000  0.5188860000000 1.0
C      1  0.5532940000000  0.5480830000000  0.4608900000000 1.0
C      1  0.5129140000000  0.5149820000000  0.5216510000000 1.0
C      1  0.4354360000000  0.4735680000000  0.4831450000000 1.0
C      1  0.5696860000000  0.4794480000000  0.4899630000000 1.0
C      1  0.4663610000000  0.5012320000000  0.5111460000000 1.0
C      1  0.4609440000000  0.4540470000000  0.5191470000000 1.0
C      1  0.4509590000000  0.4525930000000  0.4730880000000 1.0
C      1  0.4921540000000  0.4928030000000  0.5209230000000 1.0
C      1  0.5145400000000  0.5124570000000  0.4737940000000 1.0
C      1  0.5018190000000  0.5126090000000  0.4282500000000 1.0
C      1  0.5463200000000  0.5473920000000  0.5473110000000 1.0
C      1  0.4800230000000  0.5589010000000  0.4710360000000 1.0
C      1  0.5302690000000  0.5121110000000  0.4980800000000 1.0
C      1  0.4615290000000  0.4383070000000  0.4964190000000 1.0
C      1  0.5217520000000  0.5593180000000  0.5317600000000 1.0
C      1  0.4763550000000  0.4499430000000  0.4591170000000 1.0
C      1  0.4341240000000  0.4878750000000  0.5546350000000 1.0
C      1  0.5505970000000  0.4597150000000  0.4899900000000 1.0
C      1  0.5321380000000  0.4821650000000  0.5026910000000 1.0
C      1  0.4603650000000  0.4916620000000  0.5593760000000 1.0
C      1  0.4644550000000  0.5500120000000  0.4918220000000 1.0
END
