TITL C-92885-3658-7 202.060657450287 125000 -378.485671571531 0 0 55 (C1) n - 1
REM
REM in /rds/project/t2_vol4/rds-t2-cs072/BORA/CARBON/from-Arr/AIRSS/Generating-Clusters/GAP-ML-2020/Only-C1/SD-CG/HFTN-CG
REM
REM
REM
REM
REM
REM ./C.cell (11c1c37f851c82e70ff6c80c92926a4b)
REM AIRSS Version 0.9.1 bugfix July 2018 build 013d7b7c2542+ Fri, 06 Jul 2018 19:26:36 +0100
REM compiler GCC version 9.3.0
REM options -cpp -mtune=generic -march=x86-64 -g -O0
REM seed -954076943 -1690312490 1095002612 1049189217 -1917708383 -47299428 -436534535 -1630989100 354503052 1592499697 -1285295374 -1801946536 1551237382 -558183094 -186739514 -172361794 439797526 -2011094125 -242805277 1886981492 -333841950 960577398 839833568 -639139262 -1593437786 -222814392 2004514988 -1414705866 -641466417 -563201963 -1357746656 694183167 -131857891
REM
CELL 1.54180   50.00000   50.00000   50.00000   90.00000   90.00000   90.00000
LATT -1
SFAC C  
C      1  0.5148620000000  0.5508070000000  0.5213930000000 1.0
C      1  0.4924710000000  0.5587600000000  0.4670620000000 1.0
C      1  0.5524380000000  0.4720100000000  0.4536300000000 1.0
C      1  0.4892060000000  0.4893810000000  0.5582210000000 1.0
C      1  0.5504190000000  0.5063280000000  0.5366000000000 1.0
C      1  0.5181620000000  0.5083030000000  0.4549040000000 1.0
C      1  0.5249470000000  0.4386380000000  0.4720970000000 1.0
C      1  0.4795880000000  0.5425860000000  0.5590380000000 1.0
C      1  0.5040820000000  0.5016220000000  0.5067320000000 1.0
C      1  0.4781830000000  0.5391020000000  0.4512940000000 1.0
C      1  0.4530410000000  0.4881280000000  0.5056360000000 1.0
C      1  0.4932350000000  0.5178170000000  0.4387330000000 1.0
C      1  0.5609520000000  0.5107250000000  0.5092470000000 1.0
C      1  0.5109070000000  0.4304690000000  0.4956000000000 1.0
C      1  0.4442880000000  0.5112220000000  0.5240540000000 1.0
C      1  0.4780740000000  0.5634320000000  0.4911100000000 1.0
C      1  0.4950070000000  0.5176540000000  0.5525930000000 1.0
C      1  0.4818080000000  0.4357570000000  0.4968810000000 1.0
C      1  0.4416900000000  0.5066960000000  0.4617590000000 1.0
C      1  0.4440990000000  0.5027780000000  0.5500510000000 1.0
C      1  0.5464820000000  0.5176250000000  0.4647720000000 1.0
C      1  0.4767750000000  0.4457910000000  0.5237000000000 1.0
C      1  0.5026990000000  0.5222770000000  0.5252670000000 1.0
C      1  0.5603640000000  0.4613890000000  0.4986690000000 1.0
C      1  0.5056330000000  0.5437710000000  0.5667900000000 1.0
C      1  0.5514520000000  0.4497190000000  0.4735740000000 1.0
C      1  0.4826300000000  0.4893820000000  0.4910260000000 1.0
C      1  0.4495770000000  0.4644800000000  0.4634920000000 1.0
C      1  0.5272900000000  0.5503600000000  0.5497590000000 1.0
C      1  0.5448090000000  0.4574850000000  0.5224680000000 1.0
C      1  0.4887130000000  0.5648510000000  0.5176580000000 1.0
C      1  0.5636020000000  0.4948520000000  0.4655290000000 1.0
C      1  0.5377710000000  0.4787380000000  0.5407100000000 1.0
C      1  0.4543650000000  0.4874620000000  0.4437520000000 1.0
C      1  0.4622020000000  0.4813540000000  0.5518360000000 1.0
C      1  0.4374090000000  0.4845600000000  0.4806020000000 1.0
C      1  0.5500800000000  0.5307020000000  0.4907960000000 1.0
C      1  0.4503540000000  0.5390500000000  0.5182180000000 1.0
C      1  0.5185840000000  0.5586610000000  0.4733020000000 1.0
C      1  0.4550170000000  0.5465820000000  0.4908030000000 1.0
C      1  0.5690580000000  0.4885810000000  0.4933020000000 1.0
C      1  0.5225200000000  0.4393130000000  0.5200010000000 1.0
C      1  0.5318170000000  0.5517390000000  0.4962680000000 1.0
C      1  0.4990740000000  0.5105550000000  0.4816390000000 1.0
C      1  0.5018120000000  0.4481980000000  0.5374790000000 1.0
C      1  0.5257670000000  0.4791270000000  0.4469790000000 1.0
C      1  0.4768480000000  0.4965600000000  0.4313520000000 1.0
C      1  0.5465170000000  0.5298990000000  0.5496270000000 1.0
C      1  0.4865480000000  0.4660020000000  0.4736770000000 1.0
C      1  0.5104400000000  0.4722130000000  0.5505760000000 1.0
C      1  0.4534140000000  0.5325780000000  0.4654440000000 1.0
C      1  0.4687290000000  0.5534570000000  0.5353050000000 1.0
C      1  0.4586610000000  0.4670400000000  0.5269520000000 1.0
C      1  0.5090820000000  0.4579810000000  0.4572550000000 1.0
C      1  0.4664490000000  0.4454520000000  0.4747850000000 1.0
END
