TITL C-92875-3756-1 149.104880108679 125000 -718.753814291081 0 0 104 (C1) n - 1
REM
REM in /rds/project/t2_vol4/rds-t2-cs072/BORA/CARBON/from-Arr/AIRSS/Generating-Clusters/GAP-ML-2020/Only-C1/SD-CG/HFTN-CG
REM
REM
REM
REM
REM
REM ./C.cell (11c1c37f851c82e70ff6c80c92926a4b)
REM AIRSS Version 0.9.1 bugfix July 2018 build 013d7b7c2542+ Fri, 06 Jul 2018 19:26:36 +0100
REM compiler GCC version 9.3.0
REM options -cpp -mtune=generic -march=x86-64 -g -O0
REM seed -736359860 685524361 253281857 -214514967 801558384 1448841241 1326527217 -468272326 -1084824505 463279927 392806548 -439417851 -1615798887 669605300 1847530670 618190498 -291712563 390964049 -1030697258 -108942355 1794409371 -1356709240 -1791840335 203490657 1910637233 -1164166550 1217654368 -101365690 -1538785705 -69685507 -692988184 1290719983 -584949795
REM
CELL 1.54180   50.00000   50.00000   50.00000   90.00000   90.00000   90.00000
LATT -1
SFAC C  
C      1  0.4799550000000  0.5319580000000  0.5791320000000 1.0
C      1  0.4979900000000  0.5086190000000  0.4165010000000 1.0
C      1  0.5602990000000  0.4715580000000  0.4404040000000 1.0
C      1  0.5702150000000  0.5290900000000  0.4983010000000 1.0
C      1  0.4176950000000  0.4714660000000  0.5100390000000 1.0
C      1  0.4815850000000  0.5653440000000  0.5432330000000 1.0
C      1  0.4298410000000  0.4928320000000  0.4386920000000 1.0
C      1  0.4882930000000  0.4494170000000  0.4816090000000 1.0
C      1  0.5905600000000  0.4938830000000  0.4728050000000 1.0
C      1  0.5082140000000  0.5162490000000  0.4970880000000 1.0
C      1  0.4455820000000  0.5074120000000  0.5060920000000 1.0
C      1  0.5649610000000  0.4611550000000  0.5334040000000 1.0
C      1  0.5454640000000  0.5491590000000  0.4303170000000 1.0
C      1  0.5491710000000  0.5673690000000  0.4779480000000 1.0
C      1  0.4812770000000  0.4586070000000  0.5751100000000 1.0
C      1  0.4700870000000  0.5020850000000  0.4152840000000 1.0
C      1  0.5529020000000  0.5602050000000  0.5296050000000 1.0
C      1  0.5097060000000  0.4724270000000  0.5177640000000 1.0
C      1  0.5316860000000  0.4634850000000  0.4987560000000 1.0
C      1  0.4946570000000  0.5012520000000  0.5516540000000 1.0
C      1  0.4929750000000  0.5542840000000  0.5674320000000 1.0
C      1  0.5195810000000  0.4263860000000  0.5451950000000 1.0
C      1  0.4184420000000  0.4683310000000  0.4812740000000 1.0
C      1  0.4646610000000  0.5280180000000  0.5174500000000 1.0
C      1  0.5071480000000  0.5710130000000  0.4529470000000 1.0
C      1  0.5618570000000  0.4492550000000  0.4564970000000 1.0
C      1  0.4291500000000  0.5189250000000  0.4287540000000 1.0
C      1  0.5750760000000  0.5182430000000  0.4720360000000 1.0
C      1  0.4519810000000  0.5682340000000  0.5047500000000 1.0
C      1  0.4735680000000  0.5392920000000  0.4434790000000 1.0
C      1  0.4803750000000  0.5642230000000  0.4582450000000 1.0
C      1  0.5608730000000  0.4781810000000  0.5093480000000 1.0
C      1  0.4991270000000  0.4175640000000  0.4537200000000 1.0
C      1  0.4956600000000  0.5047830000000  0.5825090000000 1.0
C      1  0.5175510000000  0.4925610000000  0.4295510000000 1.0
C      1  0.5274170000000  0.4728580000000  0.5639220000000 1.0
C      1  0.4923320000000  0.4909930000000  0.5043660000000 1.0
C      1  0.5831850000000  0.4753270000000  0.4907680000000 1.0
C      1  0.4580940000000  0.4813820000000  0.4329580000000 1.0
C      1  0.4116200000000  0.5420780000000  0.5089520000000 1.0
C      1  0.4558100000000  0.5216250000000  0.5650640000000 1.0
C      1  0.5578580000000  0.4349110000000  0.5268420000000 1.0
C      1  0.4165930000000  0.5255960000000  0.5313350000000 1.0
C      1  0.4976250000000  0.5357380000000  0.4259650000000 1.0
C      1  0.4776220000000  0.4838220000000  0.5897970000000 1.0
C      1  0.5822610000000  0.4683310000000  0.4621360000000 1.0
C      1  0.5218560000000  0.4304890000000  0.4593880000000 1.0
C      1  0.4817740000000  0.5314710000000  0.4929790000000 1.0
C      1  0.4700410000000  0.4720610000000  0.4822280000000 1.0
C      1  0.5195390000000  0.5090070000000  0.4717250000000 1.0
C      1  0.4758250000000  0.4899160000000  0.4595340000000 1.0
C      1  0.4676080000000  0.5186430000000  0.4675760000000 1.0
C      1  0.4498530000000  0.4375480000000  0.4526570000000 1.0
C      1  0.4423490000000  0.4328490000000  0.4986660000000 1.0
C      1  0.4214760000000  0.4988330000000  0.5203910000000 1.0
C      1  0.5218250000000  0.5572150000000  0.5656120000000 1.0
C      1  0.5459620000000  0.4219320000000  0.5481510000000 1.0
C      1  0.4769200000000  0.5644740000000  0.4878800000000 1.0
C      1  0.5440540000000  0.5396360000000  0.5715880000000 1.0
C      1  0.4544680000000  0.5264520000000  0.4233630000000 1.0
C      1  0.5625220000000  0.5420000000000  0.5494070000000 1.0
C      1  0.4189520000000  0.5376800000000  0.4824650000000 1.0
C      1  0.5280200000000  0.5703420000000  0.5407710000000 1.0
C      1  0.5143770000000  0.4594660000000  0.4721060000000 1.0
C      1  0.5453890000000  0.5119840000000  0.5806760000000 1.0
C      1  0.5064940000000  0.4855260000000  0.4566060000000 1.0
C      1  0.4356070000000  0.4509110000000  0.5194390000000 1.0
C      1  0.5011530000000  0.5769630000000  0.4984050000000 1.0
C      1  0.5586420000000  0.5086230000000  0.5159780000000 1.0
C      1  0.4375580000000  0.5145280000000  0.4779180000000 1.0
C      1  0.4566750000000  0.5555940000000  0.5310450000000 1.0
C      1  0.4743790000000  0.4258140000000  0.4656230000000 1.0
C      1  0.4603690000000  0.4637330000000  0.5308180000000 1.0
C      1  0.5563460000000  0.4719640000000  0.5584760000000 1.0
C      1  0.5174960000000  0.4924040000000  0.5376680000000 1.0
C      1  0.4262910000000  0.5614550000000  0.4962270000000 1.0
C      1  0.4578830000000  0.4681750000000  0.5601610000000 1.0
C      1  0.4646850000000  0.4851000000000  0.5070890000000 1.0
C      1  0.4662750000000  0.4194220000000  0.4945370000000 1.0
C      1  0.4512050000000  0.4533720000000  0.4308300000000 1.0
C      1  0.5464780000000  0.5055660000000  0.4645740000000 1.0
C      1  0.4544220000000  0.4926030000000  0.5749900000000 1.0
C      1  0.5598210000000  0.5549060000000  0.5021080000000 1.0
C      1  0.5400050000000  0.4342200000000  0.5023190000000 1.0
C      1  0.5468030000000  0.4974620000000  0.4351300000000 1.0
C      1  0.5706100000000  0.5158180000000  0.5429760000000 1.0
C      1  0.5604520000000  0.5241270000000  0.4284290000000 1.0
C      1  0.5466540000000  0.4296030000000  0.4723470000000 1.0
C      1  0.4314470000000  0.4430030000000  0.4744290000000 1.0
C      1  0.4892550000000  0.4523550000000  0.5296560000000 1.0
C      1  0.5160310000000  0.4229390000000  0.5156750000000 1.0
C      1  0.5236330000000  0.4949300000000  0.5845130000000 1.0
C      1  0.5031560000000  0.5757910000000  0.5267620000000 1.0
C      1  0.4233040000000  0.4911020000000  0.4656130000000 1.0
C      1  0.4901360000000  0.4320590000000  0.5076960000000 1.0
C      1  0.5211850000000  0.5762660000000  0.4773660000000 1.0
C      1  0.5651410000000  0.4983960000000  0.5646370000000 1.0
C      1  0.4367830000000  0.5380140000000  0.5482510000000 1.0
C      1  0.5609170000000  0.5590660000000  0.4529910000000 1.0
C      1  0.5179350000000  0.5545250000000  0.4316800000000 1.0
C      1  0.5046420000000  0.4502370000000  0.5580340000000 1.0
C      1  0.5276410000000  0.5142880000000  0.5207240000000 1.0
C      1  0.4739940000000  0.5158860000000  0.5423840000000 1.0
C      1  0.5771060000000  0.5357280000000  0.4497060000000 1.0
END
