TITL C-92117-2744-5 -155.981005189613 125000 -652.426215267688 0 0 95 (C1) n - 1
REM
REM in /rds/project/t2_vol4/rds-t2-cs072/BORA/CARBON/from-Arr/AIRSS/Generating-Clusters/GAP-ML-2020/Only-C1/SD-CG/HFTN-CG
REM
REM
REM
REM
REM
REM ./C.cell (11c1c37f851c82e70ff6c80c92926a4b)
REM AIRSS Version 0.9.1 bugfix July 2018 build 013d7b7c2542+ Fri, 06 Jul 2018 19:26:36 +0100
REM compiler GCC version 9.3.0
REM options -cpp -mtune=generic -march=x86-64 -g -O0
REM seed 1500233225 1842307360 -529946621 -837282124 1569823124 1518973763 1458593874 -1337430123 920482925 -321326721 1209304865 -949996139 -222118623 1985445931 1029047668 -1262266608 594239008 179100030 -1094141548 -1633871809 801242960 -1468631237 -2112769679 1120307854 438827430 -1868827694 1473813948 1773446291 -313922182 -2106046299 -274383453 -800388562 -1716790918
REM
CELL 1.54180   50.00000   50.00000   50.00000   90.00000   90.00000   90.00000
LATT -1
SFAC C  
C      1  0.4347910000000  0.5431090000000  0.5135900000000 1.0
C      1  0.5171620000000  0.4224370000000  0.4925690000000 1.0
C      1  0.4918410000000  0.5419060000000  0.5133860000000 1.0
C      1  0.5100140000000  0.5439670000000  0.5362750000000 1.0
C      1  0.4980830000000  0.5530150000000  0.5628230000000 1.0
C      1  0.4205050000000  0.4949200000000  0.5169720000000 1.0
C      1  0.4674010000000  0.5540600000000  0.4801280000000 1.0
C      1  0.5271500000000  0.5704260000000  0.5328580000000 1.0
C      1  0.5258830000000  0.5673510000000  0.4864430000000 1.0
C      1  0.4748810000000  0.5668100000000  0.5052670000000 1.0
C      1  0.4803970000000  0.5138020000000  0.5119100000000 1.0
C      1  0.5348150000000  0.5132380000000  0.4281270000000 1.0
C      1  0.5032590000000  0.5833360000000  0.4703880000000 1.0
C      1  0.4701290000000  0.5539190000000  0.5645430000000 1.0
C      1  0.5567160000000  0.5349940000000  0.4562080000000 1.0
C      1  0.5193750000000  0.4764810000000  0.5631130000000 1.0
C      1  0.5498690000000  0.4528350000000  0.4962630000000 1.0
C      1  0.4779560000000  0.5098230000000  0.4650760000000 1.0
C      1  0.5588090000000  0.4823670000000  0.5334230000000 1.0
C      1  0.5540900000000  0.5619600000000  0.4949570000000 1.0
C      1  0.4378290000000  0.4565180000000  0.4520480000000 1.0
C      1  0.4959790000000  0.4866320000000  0.4619170000000 1.0
C      1  0.5271480000000  0.4444120000000  0.5116380000000 1.0
C      1  0.4908350000000  0.5370030000000  0.4684430000000 1.0
C      1  0.4606420000000  0.5663170000000  0.4541130000000 1.0
C      1  0.4516190000000  0.5703290000000  0.5514050000000 1.0
C      1  0.4666240000000  0.4862350000000  0.4239590000000 1.0
C      1  0.4708600000000  0.4212320000000  0.4985070000000 1.0
C      1  0.4950300000000  0.4122510000000  0.5099390000000 1.0
C      1  0.4939610000000  0.4637280000000  0.4810270000000 1.0
C      1  0.4394900000000  0.5464010000000  0.4570300000000 1.0
C      1  0.5552820000000  0.5647830000000  0.5225580000000 1.0
C      1  0.4627160000000  0.5102580000000  0.4897200000000 1.0
C      1  0.5088240000000  0.5038380000000  0.4206530000000 1.0
C      1  0.5183050000000  0.5848590000000  0.5098280000000 1.0
C      1  0.4209350000000  0.5020250000000  0.4500990000000 1.0
C      1  0.4449830000000  0.5358360000000  0.4869030000000 1.0
C      1  0.4425520000000  0.5135580000000  0.5533220000000 1.0
C      1  0.5306000000000  0.4266520000000  0.5344360000000 1.0
C      1  0.5032150000000  0.4676560000000  0.5092990000000 1.0
C      1  0.5318070000000  0.5399100000000  0.4396510000000 1.0
C      1  0.5223960000000  0.5150890000000  0.5354290000000 1.0
C      1  0.5415030000000  0.4074690000000  0.4860920000000 1.0
C      1  0.5666450000000  0.4731080000000  0.5076900000000 1.0
C      1  0.5602570000000  0.4617990000000  0.4540140000000 1.0
C      1  0.5703740000000  0.4884150000000  0.4604620000000 1.0
C      1  0.5229880000000  0.5528490000000  0.5770010000000 1.0
C      1  0.4680360000000  0.4226930000000  0.4693070000000 1.0
C      1  0.5353210000000  0.5261500000000  0.5741520000000 1.0
C      1  0.5414220000000  0.4378870000000  0.5583330000000 1.0
C      1  0.5738750000000  0.4934810000000  0.4892970000000 1.0
C      1  0.5023690000000  0.5465440000000  0.4410590000000 1.0
C      1  0.4651880000000  0.5257850000000  0.5663700000000 1.0
C      1  0.4932130000000  0.5887430000000  0.4971390000000 1.0
C      1  0.4840320000000  0.4505340000000  0.4309600000000 1.0
C      1  0.4368160000000  0.5230750000000  0.4410520000000 1.0
C      1  0.4277200000000  0.5201390000000  0.5289820000000 1.0
C      1  0.4831360000000  0.4575950000000  0.5279120000000 1.0
C      1  0.4465020000000  0.4856580000000  0.5553380000000 1.0
C      1  0.5355920000000  0.4624750000000  0.4706080000000 1.0
C      1  0.5218650000000  0.4306430000000  0.5765190000000 1.0
C      1  0.5392120000000  0.5707850000000  0.5605750000000 1.0
C      1  0.5579860000000  0.5291380000000  0.5553860000000 1.0
C      1  0.5062050000000  0.4987360000000  0.5138210000000 1.0
C      1  0.5627490000000  0.5566590000000  0.5494210000000 1.0
C      1  0.4605500000000  0.4422630000000  0.5152440000000 1.0
C      1  0.5228630000000  0.4910270000000  0.4708040000000 1.0
C      1  0.4364930000000  0.4567780000000  0.5119940000000 1.0
C      1  0.4951800000000  0.4786100000000  0.4304730000000 1.0
C      1  0.5603280000000  0.4258120000000  0.4812200000000 1.0
C      1  0.4235220000000  0.4791630000000  0.4648470000000 1.0
C      1  0.4921980000000  0.4599070000000  0.5566180000000 1.0
C      1  0.4902460000000  0.5250010000000  0.4246870000000 1.0
C      1  0.5595260000000  0.5088890000000  0.4444520000000 1.0
C      1  0.4230140000000  0.4767300000000  0.4939460000000 1.0
C      1  0.5103990000000  0.5386020000000  0.4894460000000 1.0
C      1  0.5690300000000  0.5174480000000  0.5022610000000 1.0
C      1  0.4314480000000  0.4743390000000  0.5345180000000 1.0
C      1  0.4433840000000  0.4322710000000  0.4632060000000 1.0
C      1  0.5703380000000  0.4361200000000  0.4574450000000 1.0
C      1  0.4564160000000  0.4609600000000  0.4303350000000 1.0
C      1  0.5547200000000  0.5114320000000  0.5315320000000 1.0
C      1  0.4645780000000  0.5124550000000  0.4352080000000 1.0
C      1  0.5116160000000  0.4421440000000  0.4699470000000 1.0
C      1  0.4904930000000  0.4330680000000  0.4517090000000 1.0
C      1  0.5440780000000  0.4668620000000  0.5531300000000 1.0
C      1  0.4852080000000  0.5055570000000  0.5706610000000 1.0
C      1  0.5213690000000  0.5102710000000  0.4917200000000 1.0
C      1  0.4972150000000  0.4299240000000  0.5632570000000 1.0
C      1  0.5653260000000  0.5392850000000  0.4832110000000 1.0
C      1  0.5038750000000  0.4148900000000  0.5371830000000 1.0
C      1  0.4901710000000  0.5732620000000  0.4477720000000 1.0
C      1  0.4728140000000  0.4803770000000  0.5657690000000 1.0
C      1  0.5153320000000  0.5050410000000  0.5650650000000 1.0
C      1  0.4505060000000  0.5648750000000  0.5246100000000 1.0
END
