TITL C-92903-3706-1 188.063622312259 125000 -682.240760623752 0 0 95 (C1) n - 1
REM
REM in /rds/project/t2_vol4/rds-t2-cs072/BORA/CARBON/from-Arr/AIRSS/Generating-Clusters/GAP-ML-2020/Only-C1/SD-CG/HFTN-CG
REM
REM
REM
REM
REM
REM ./C.cell (11c1c37f851c82e70ff6c80c92926a4b)
REM AIRSS Version 0.9.1 bugfix July 2018 build 013d7b7c2542+ Fri, 06 Jul 2018 19:26:36 +0100
REM compiler GCC version 9.3.0
REM options -cpp -mtune=generic -march=x86-64 -g -O0
REM seed -186700373 1579829723 1310321845 1824071929 1094693629 1106540360 543368762 -524821323 1871507150 -939006173 1141952510 -603212273 900613665 -830337844 1427272142 -624030722 -1046338903 -766882901 -858141841 2041639878 1364427152 1690108634 199482760 -27403053 1154130083 -1748078996 -959494062 516106406 -1045546546 217274890 1763221742 189638334 -479943982
REM
CELL 1.54180   50.00000   50.00000   50.00000   90.00000   90.00000   90.00000
LATT -1
SFAC C  
C      1  0.5775200000000  0.5246430000000  0.4876960000000 1.0
C      1  0.5009740000000  0.4181020000000  0.5409440000000 1.0
C      1  0.4123760000000  0.5070430000000  0.5345360000000 1.0
C      1  0.4446810000000  0.5514090000000  0.4733770000000 1.0
C      1  0.5026180000000  0.4514040000000  0.5748360000000 1.0
C      1  0.4726790000000  0.5426410000000  0.5605350000000 1.0
C      1  0.5501940000000  0.4986910000000  0.4383270000000 1.0
C      1  0.5207050000000  0.5793270000000  0.5172410000000 1.0
C      1  0.5207600000000  0.5330490000000  0.5763150000000 1.0
C      1  0.4893580000000  0.5641980000000  0.4365180000000 1.0
C      1  0.4618380000000  0.5742620000000  0.4769730000000 1.0
C      1  0.5040400000000  0.5155630000000  0.5343120000000 1.0
C      1  0.4865710000000  0.4787700000000  0.4755040000000 1.0
C      1  0.4589770000000  0.4410770000000  0.5507080000000 1.0
C      1  0.4394360000000  0.4612490000000  0.5425180000000 1.0
C      1  0.4441260000000  0.5476190000000  0.5227050000000 1.0
C      1  0.5452510000000  0.5694480000000  0.5045930000000 1.0
C      1  0.5386040000000  0.4367030000000  0.4657790000000 1.0
C      1  0.4980110000000  0.5354450000000  0.5132790000000 1.0
C      1  0.4983730000000  0.5261190000000  0.4877090000000 1.0
C      1  0.5274720000000  0.4916350000000  0.4211260000000 1.0
C      1  0.4359870000000  0.4537050000000  0.4910560000000 1.0
C      1  0.5063940000000  0.5872710000000  0.4723240000000 1.0
C      1  0.5013430000000  0.4178470000000  0.4938870000000 1.0
C      1  0.5123540000000  0.5158310000000  0.4183500000000 1.0
C      1  0.4431690000000  0.4838800000000  0.5604770000000 1.0
C      1  0.5843890000000  0.5416340000000  0.5080860000000 1.0
C      1  0.4781890000000  0.5022780000000  0.4865460000000 1.0
C      1  0.4511440000000  0.4562010000000  0.4470320000000 1.0
C      1  0.4905670000000  0.4957050000000  0.5786590000000 1.0
C      1  0.5428240000000  0.4532880000000  0.4427160000000 1.0
C      1  0.5630030000000  0.5397580000000  0.4661050000000 1.0
C      1  0.4281860000000  0.4660360000000  0.5157290000000 1.0
C      1  0.4232590000000  0.5106120000000  0.4900210000000 1.0
C      1  0.5256100000000  0.5167820000000  0.4854630000000 1.0
C      1  0.5488790000000  0.5640290000000  0.4759460000000 1.0
C      1  0.4938480000000  0.4669630000000  0.5292540000000 1.0
C      1  0.4642480000000  0.4338570000000  0.4588490000000 1.0
C      1  0.5158120000000  0.4248020000000  0.5168210000000 1.0
C      1  0.5109490000000  0.5700810000000  0.5433100000000 1.0
C      1  0.4286650000000  0.4968650000000  0.4652890000000 1.0
C      1  0.4553220000000  0.4321750000000  0.4860120000000 1.0
C      1  0.5289240000000  0.5526180000000  0.5568390000000 1.0
C      1  0.5597790000000  0.4468070000000  0.5433720000000 1.0
C      1  0.5284970000000  0.5745440000000  0.4599610000000 1.0
C      1  0.5135460000000  0.4766300000000  0.4746070000000 1.0
C      1  0.5391930000000  0.4921410000000  0.5608420000000 1.0
C      1  0.4634720000000  0.5696110000000  0.5248470000000 1.0
C      1  0.4725560000000  0.5825540000000  0.5023460000000 1.0
C      1  0.4736510000000  0.4205950000000  0.5042460000000 1.0
C      1  0.4434190000000  0.5100750000000  0.4445430000000 1.0
C      1  0.4331160000000  0.5096880000000  0.5519910000000 1.0
C      1  0.4824640000000  0.5800030000000  0.4585780000000 1.0
C      1  0.4647810000000  0.4976950000000  0.4284950000000 1.0
C      1  0.4339470000000  0.5375120000000  0.4963190000000 1.0
C      1  0.4694450000000  0.4695070000000  0.4298540000000 1.0
C      1  0.5182160000000  0.5607410000000  0.4368380000000 1.0
C      1  0.4659400000000  0.4999390000000  0.5109770000000 1.0
C      1  0.5339400000000  0.5101820000000  0.5345230000000 1.0
C      1  0.5135130000000  0.4788920000000  0.5758020000000 1.0
C      1  0.4484770000000  0.5337900000000  0.5478010000000 1.0
C      1  0.5536410000000  0.4525920000000  0.4889150000000 1.0
C      1  0.5688610000000  0.4739730000000  0.4754480000000 1.0
C      1  0.5619720000000  0.4744330000000  0.4483330000000 1.0
C      1  0.5289650000000  0.4706920000000  0.4991500000000 1.0
C      1  0.4914620000000  0.4325920000000  0.4496040000000 1.0
C      1  0.4665770000000  0.4796580000000  0.5768060000000 1.0
C      1  0.4738530000000  0.4223540000000  0.5338130000000 1.0
C      1  0.5471910000000  0.5384040000000  0.5402730000000 1.0
C      1  0.5212370000000  0.4638560000000  0.4260230000000 1.0
C      1  0.4942540000000  0.5234130000000  0.5684010000000 1.0
C      1  0.5387800000000  0.5126840000000  0.5815360000000 1.0
C      1  0.5426830000000  0.4319520000000  0.5569100000000 1.0
C      1  0.5157090000000  0.4295140000000  0.5623390000000 1.0
C      1  0.5247890000000  0.4999990000000  0.4630240000000 1.0
C      1  0.4494580000000  0.5375640000000  0.4482620000000 1.0
C      1  0.5619950000000  0.5523060000000  0.5203860000000 1.0
C      1  0.4947720000000  0.4537250000000  0.4301740000000 1.0
C      1  0.5154180000000  0.4558310000000  0.5185900000000 1.0
C      1  0.5008340000000  0.5888150000000  0.4997150000000 1.0
C      1  0.5755490000000  0.4785240000000  0.5211000000000 1.0
C      1  0.4166620000000  0.4929360000000  0.5119500000000 1.0
C      1  0.4866640000000  0.4925930000000  0.5270180000000 1.0
C      1  0.4339520000000  0.4686950000000  0.4662650000000 1.0
C      1  0.4724940000000  0.5426160000000  0.4316970000000 1.0
C      1  0.5696120000000  0.4959330000000  0.4958290000000 1.0
C      1  0.5122140000000  0.4244680000000  0.4682890000000 1.0
C      1  0.5628040000000  0.4765100000000  0.5476260000000 1.0
C      1  0.5686890000000  0.4510460000000  0.5149090000000 1.0
C      1  0.5537330000000  0.5275790000000  0.4414040000000 1.0
C      1  0.5299260000000  0.5371710000000  0.4282580000000 1.0
C      1  0.4742940000000  0.4526690000000  0.5727950000000 1.0
C      1  0.5393840000000  0.4995700000000  0.5065370000000 1.0
C      1  0.4822520000000  0.5655200000000  0.5464520000000 1.0
C      1  0.4837360000000  0.5182880000000  0.4219270000000 1.0
END
