TITL C-92107-9581-1 0.0785772161552064 125000 -395.121850221724 0 0 58 (C1) n - 1
REM
REM in /rds/project/t2_vol4/rds-t2-cs072/BORA/CARBON/from-Arr/AIRSS/Generating-Clusters/GAP-ML-2020/Only-C1/SD-CG/HFTN-CG
REM
REM
REM
REM
REM
REM ./C.cell (11c1c37f851c82e70ff6c80c92926a4b)
REM AIRSS Version 0.9.1 bugfix July 2018 build 013d7b7c2542+ Fri, 06 Jul 2018 19:26:36 +0100
REM compiler GCC version 9.3.0
REM options -cpp -mtune=generic -march=x86-64 -g -O0
REM seed -276652554 -320052501 1600453716 410390746 -1376077177 -1211635683 -586207914 -2014085675 583356188 -1745610285 -357940465 253396562 -1903678015 782387827 1350593300 -1877932271 -76843217 -77936481 1689482966 -1169146401 -986582578 -2086022808 1973970175 1593202283 -940492892 -1232842010 8032148 1369323610 1583925944 1803651022 -109373237 1325757859 -103511995
REM
CELL 1.54180   50.00000   50.00000   50.00000   90.00000   90.00000   90.00000
LATT -1
SFAC C  
C      1  0.4699950000000  0.4418330000000  0.5312950000000 1.0
C      1  0.5260610000000  0.4596140000000  0.5093980000000 1.0
C      1  0.4974640000000  0.5330120000000  0.5473820000000 1.0
C      1  0.5191930000000  0.5266380000000  0.4200420000000 1.0
C      1  0.4698830000000  0.5347200000000  0.5400550000000 1.0
C      1  0.4930540000000  0.4415560000000  0.5450850000000 1.0
C      1  0.5058670000000  0.5649680000000  0.4847460000000 1.0
C      1  0.5549050000000  0.4941840000000  0.5131520000000 1.0
C      1  0.4716210000000  0.4341830000000  0.5026010000000 1.0
C      1  0.5490990000000  0.4848110000000  0.5425610000000 1.0
C      1  0.5055750000000  0.5043470000000  0.5307510000000 1.0
C      1  0.5178410000000  0.5280390000000  0.4936070000000 1.0
C      1  0.5284430000000  0.5122450000000  0.5159230000000 1.0
C      1  0.4362570000000  0.4750790000000  0.5225320000000 1.0
C      1  0.5710350000000  0.5181710000000  0.5064680000000 1.0
C      1  0.4656160000000  0.4861980000000  0.5568090000000 1.0
C      1  0.4356140000000  0.5030750000000  0.5256380000000 1.0
C      1  0.4417130000000  0.5119930000000  0.4989390000000 1.0
C      1  0.4543060000000  0.4882020000000  0.4554850000000 1.0
C      1  0.5390150000000  0.5078910000000  0.5577450000000 1.0
C      1  0.5191850000000  0.5527310000000  0.4595870000000 1.0
C      1  0.4947270000000  0.4221720000000  0.4922020000000 1.0
C      1  0.4711880000000  0.5148910000000  0.5009870000000 1.0
C      1  0.5046060000000  0.5414640000000  0.4378010000000 1.0
C      1  0.5396910000000  0.4736420000000  0.4679970000000 1.0
C      1  0.5367800000000  0.5285290000000  0.4705980000000 1.0
C      1  0.5095940000000  0.5074240000000  0.5610580000000 1.0
C      1  0.4672500000000  0.4628910000000  0.4608210000000 1.0
C      1  0.4944040000000  0.4879220000000  0.4322810000000 1.0
C      1  0.4735840000000  0.5402860000000  0.4674460000000 1.0
C      1  0.4842900000000  0.4928880000000  0.5166510000000 1.0
C      1  0.4779370000000  0.5585470000000  0.4895140000000 1.0
C      1  0.5318440000000  0.4630310000000  0.5392530000000 1.0
C      1  0.5036020000000  0.4923130000000  0.4737880000000 1.0
C      1  0.4917410000000  0.5185210000000  0.4807530000000 1.0
C      1  0.5152230000000  0.4395370000000  0.4883220000000 1.0
C      1  0.4952800000000  0.4678930000000  0.4533990000000 1.0
C      1  0.5612950000000  0.5358560000000  0.4851220000000 1.0
C      1  0.4693510000000  0.5423320000000  0.5123190000000 1.0
C      1  0.5192490000000  0.4536980000000  0.4638070000000 1.0
C      1  0.4711150000000  0.5041720000000  0.4383640000000 1.0
C      1  0.4564480000000  0.4505360000000  0.4844570000000 1.0
C      1  0.5196060000000  0.5023920000000  0.4319780000000 1.0
C      1  0.5638640000000  0.5393680000000  0.5253100000000 1.0
C      1  0.5527130000000  0.5556800000000  0.5037520000000 1.0
C      1  0.5414800000000  0.5310190000000  0.5398630000000 1.0
C      1  0.4934220000000  0.4839480000000  0.5659630000000 1.0
C      1  0.4769260000000  0.5335040000000  0.4411870000000 1.0
C      1  0.5302400000000  0.4999070000000  0.4593390000000 1.0
C      1  0.4370000000000  0.4922870000000  0.4783740000000 1.0
C      1  0.5187650000000  0.5487320000000  0.5363350000000 1.0
C      1  0.5082300000000  0.4602540000000  0.5570150000000 1.0
C      1  0.4535440000000  0.4636820000000  0.5414630000000 1.0
C      1  0.4373730000000  0.4684660000000  0.4947890000000 1.0
C      1  0.5009300000000  0.4781330000000  0.4996090000000 1.0
C      1  0.4543180000000  0.5109840000000  0.5459600000000 1.0
C      1  0.5475790000000  0.4728230000000  0.4953040000000 1.0
C      1  0.5230710000000  0.5567850000000  0.5070190000000 1.0
END
