TITL C-92111-23-5 46.4076194148283 125000 -205.104821619977 0 0 31 (C1) n - 1
REM
REM in /rds/project/t2_vol4/rds-t2-cs072/BORA/CARBON/from-Arr/AIRSS/Generating-Clusters/GAP-ML-2020/Only-C1/SD-CG/HFTN-CG
REM
REM
REM
REM
REM
REM ./C.cell (11c1c37f851c82e70ff6c80c92926a4b)
REM AIRSS Version 0.9.1 bugfix July 2018 build 013d7b7c2542+ Fri, 06 Jul 2018 19:26:36 +0100
REM compiler GCC version 9.3.0
REM options -cpp -mtune=generic -march=x86-64 -g -O0
REM seed 1960251414 1389242853 -650148656 851348808 1270373405 -1178316384 894341092 -2059149355 -345858169 2109635662 -859944105 -1191657902 -1800132053 432740148 -859131027 356727880 -569383083 222378446 -1308981213 -542411052 -300559611 9326201 1387271489 -2022872 -1338595912 1553986842 872205648 -1156236706 1621020807 1791298760 535474487 435647084 391326830
REM
CELL 1.54180   50.00000   50.00000   50.00000   90.00000   90.00000   90.00000
LATT -1
SFAC C  
C      1  0.4915910000000  0.4662600000000  0.5394550000000 1.0
C      1  0.5327670000000  0.4774720000000  0.5170620000000 1.0
C      1  0.4865220000000  0.5404980000000  0.4799390000000 1.0
C      1  0.5213150000000  0.4863570000000  0.4486440000000 1.0
C      1  0.5146790000000  0.5362500000000  0.4735360000000 1.0
C      1  0.4907700000000  0.4934990000000  0.5496460000000 1.0
C      1  0.4575200000000  0.4878020000000  0.5178340000000 1.0
C      1  0.5453380000000  0.4894200000000  0.4662020000000 1.0
C      1  0.4810480000000  0.5218420000000  0.4574300000000 1.0
C      1  0.4456410000000  0.5243420000000  0.4921140000000 1.0
C      1  0.5269970000000  0.4884990000000  0.4901540000000 1.0
C      1  0.4565030000000  0.4987670000000  0.4910410000000 1.0
C      1  0.5360770000000  0.4996320000000  0.5347300000000 1.0
C      1  0.4731750000000  0.5343030000000  0.5292340000000 1.0
C      1  0.5079900000000  0.5229250000000  0.4482350000000 1.0
C      1  0.4923650000000  0.5498370000000  0.5422690000000 1.0
C      1  0.5575890000000  0.5122550000000  0.4762270000000 1.0
C      1  0.4765100000000  0.4454400000000  0.5005140000000 1.0
C      1  0.5321920000000  0.5210830000000  0.4917350000000 1.0
C      1  0.5141810000000  0.4571010000000  0.5250320000000 1.0
C      1  0.4762280000000  0.4960330000000  0.4697060000000 1.0
C      1  0.5020010000000  0.4790840000000  0.4713620000000 1.0
C      1  0.5139910000000  0.5347530000000  0.5393360000000 1.0
C      1  0.5342170000000  0.5255290000000  0.5208910000000 1.0
C      1  0.4684290000000  0.4622540000000  0.5223510000000 1.0
C      1  0.4683680000000  0.5069580000000  0.5378440000000 1.0
C      1  0.4674270000000  0.5390560000000  0.5013660000000 1.0
C      1  0.4952390000000  0.4511900000000  0.4799260000000 1.0
C      1  0.5041420000000  0.4398970000000  0.5039880000000 1.0
C      1  0.5141620000000  0.5042080000000  0.4295650000000 1.0
C      1  0.5150220000000  0.5074540000000  0.5526330000000 1.0
END
