TITL C-92109-9992-2 -0.0195348577044641 125000 -771.624070881912 0 0 111 (C1) n - 1
REM
REM in /rds/project/t2_vol4/rds-t2-cs072/BORA/CARBON/from-Arr/AIRSS/Generating-Clusters/GAP-ML-2020/Only-C1/SD-CG/HFTN-CG
REM
REM
REM
REM
REM
REM ./C.cell (11c1c37f851c82e70ff6c80c92926a4b)
REM AIRSS Version 0.9.1 bugfix July 2018 build 013d7b7c2542+ Fri, 06 Jul 2018 19:26:36 +0100
REM compiler GCC version 9.3.0
REM options -cpp -mtune=generic -march=x86-64 -g -O0
REM seed -1777771370 774498034 -1359086555 -270931589 1029179268 1426145221 -964524415 1983709544 -1300150841 2103768060 -95089538 -1914189560 -360365994 1851409740 1988961591 2006690833 -46381046 318863515 -83712483 1756952462 -150477503 1388594400 -1807548643 1442284893 -1855333688 1728153106 742687256 -1051350622 -467754973 -2000596558 1103289079 501623130 -880198467
REM
CELL 1.54180   50.00000   50.00000   50.00000   90.00000   90.00000   90.00000
LATT -1
SFAC C  
C      1  0.5283390000000  0.5388680000000  0.5355190000000 1.0
C      1  0.4889000000000  0.5649370000000  0.4536690000000 1.0
C      1  0.4348390000000  0.4700330000000  0.5344610000000 1.0
C      1  0.5305490000000  0.5370470000000  0.5059460000000 1.0
C      1  0.5454500000000  0.4628540000000  0.5099250000000 1.0
C      1  0.4507200000000  0.5158190000000  0.4294260000000 1.0
C      1  0.5375710000000  0.5050360000000  0.4694760000000 1.0
C      1  0.4479320000000  0.4719980000000  0.5586440000000 1.0
C      1  0.4573190000000  0.4327370000000  0.5158730000000 1.0
C      1  0.5969050000000  0.4940170000000  0.4815100000000 1.0
C      1  0.5755300000000  0.5440550000000  0.5353750000000 1.0
C      1  0.4320540000000  0.4493510000000  0.5149300000000 1.0
C      1  0.5724690000000  0.5583020000000  0.4834170000000 1.0
C      1  0.4704980000000  0.4979840000000  0.4456330000000 1.0
C      1  0.4443530000000  0.5374960000000  0.5365970000000 1.0
C      1  0.4936710000000  0.5138660000000  0.4526280000000 1.0
C      1  0.4176650000000  0.5081220000000  0.4723290000000 1.0
C      1  0.5301840000000  0.4437510000000  0.4915000000000 1.0
C      1  0.5754130000000  0.4552700000000  0.5092740000000 1.0
C      1  0.5361310000000  0.5853970000000  0.4974360000000 1.0
C      1  0.4815020000000  0.5092970000000  0.5464750000000 1.0
C      1  0.4419110000000  0.4914010000000  0.5165350000000 1.0
C      1  0.5246010000000  0.4760220000000  0.5849730000000 1.0
C      1  0.4611180000000  0.5147280000000  0.5254420000000 1.0
C      1  0.4346530000000  0.5494220000000  0.4930660000000 1.0
C      1  0.5585640000000  0.5456580000000  0.4415880000000 1.0
C      1  0.5142260000000  0.5613940000000  0.4395320000000 1.0
C      1  0.5669320000000  0.4538300000000  0.5392350000000 1.0
C      1  0.4992950000000  0.5368360000000  0.5496190000000 1.0
C      1  0.4041310000000  0.5168680000000  0.5188620000000 1.0
C      1  0.5071820000000  0.4982390000000  0.5917240000000 1.0
C      1  0.4278660000000  0.5350830000000  0.4691420000000 1.0
C      1  0.5716140000000  0.4328450000000  0.4884700000000 1.0
C      1  0.4676930000000  0.5529180000000  0.4387380000000 1.0
C      1  0.4614480000000  0.5600110000000  0.5276060000000 1.0
C      1  0.5175800000000  0.4664790000000  0.5541050000000 1.0
C      1  0.5505690000000  0.5751570000000  0.4748810000000 1.0
C      1  0.5481970000000  0.5028440000000  0.4236710000000 1.0
C      1  0.4542040000000  0.4691730000000  0.4192230000000 1.0
C      1  0.5079990000000  0.4399470000000  0.5672010000000 1.0
C      1  0.4387430000000  0.5211290000000  0.5626720000000 1.0
C      1  0.5774440000000  0.5379370000000  0.4617840000000 1.0
C      1  0.5001170000000  0.4514360000000  0.4915160000000 1.0
C      1  0.5070280000000  0.4510660000000  0.5919120000000 1.0
C      1  0.5581460000000  0.4990710000000  0.5368020000000 1.0
C      1  0.4987940000000  0.4575710000000  0.4385770000000 1.0
C      1  0.5347180000000  0.4170440000000  0.5062810000000 1.0
C      1  0.3942480000000  0.5151570000000  0.5447380000000 1.0
C      1  0.4716740000000  0.5338370000000  0.4172100000000 1.0
C      1  0.4896460000000  0.4718950000000  0.5119250000000 1.0
C      1  0.5933810000000  0.4757260000000  0.4990500000000 1.0
C      1  0.4626410000000  0.4494940000000  0.5650720000000 1.0
C      1  0.4773680000000  0.4219450000000  0.4665860000000 1.0
C      1  0.5283900000000  0.5672510000000  0.5694700000000 1.0
C      1  0.4454460000000  0.4538100000000  0.4591850000000 1.0
C      1  0.5407060000000  0.5662980000000  0.4498270000000 1.0
C      1  0.4989410000000  0.5132840000000  0.4943780000000 1.0
C      1  0.4658600000000  0.4842490000000  0.4967450000000 1.0
C      1  0.4713940000000  0.5125020000000  0.4977350000000 1.0
C      1  0.4794610000000  0.4889830000000  0.5883570000000 1.0
C      1  0.4971550000000  0.5249200000000  0.4102170000000 1.0
C      1  0.5547090000000  0.5261830000000  0.5470430000000 1.0
C      1  0.4821220000000  0.4791610000000  0.4225520000000 1.0
C      1  0.5063440000000  0.5405350000000  0.4928920000000 1.0
C      1  0.5276380000000  0.4858010000000  0.4141290000000 1.0
C      1  0.4192480000000  0.4882310000000  0.4518140000000 1.0
C      1  0.5092770000000  0.4986320000000  0.4690800000000 1.0
C      1  0.4986730000000  0.4239360000000  0.5459810000000 1.0
C      1  0.5182630000000  0.5414690000000  0.4190530000000 1.0
C      1  0.4777010000000  0.4289720000000  0.4924420000000 1.0
C      1  0.5732150000000  0.5603920000000  0.5140260000000 1.0
C      1  0.4600280000000  0.4994530000000  0.5678160000000 1.0
C      1  0.4352160000000  0.4910390000000  0.4274660000000 1.0
C      1  0.5511140000000  0.5785860000000  0.5207780000000 1.0
C      1  0.5277940000000  0.4616040000000  0.4301900000000 1.0
C      1  0.5516310000000  0.4440410000000  0.4698300000000 1.0
C      1  0.4164810000000  0.4647170000000  0.4945020000000 1.0
C      1  0.4601200000000  0.5621510000000  0.4995710000000 1.0
C      1  0.5593120000000  0.4094570000000  0.4986120000000 1.0
C      1  0.5050870000000  0.5793250000000  0.5293040000000 1.0
C      1  0.5469860000000  0.5143210000000  0.5744900000000 1.0
C      1  0.5376100000000  0.4503230000000  0.5375740000000 1.0
C      1  0.4957660000000  0.4686770000000  0.4671140000000 1.0
C      1  0.5503810000000  0.4623420000000  0.4481300000000 1.0
C      1  0.5838620000000  0.5092030000000  0.4619130000000 1.0
C      1  0.4115660000000  0.5171670000000  0.5651190000000 1.0
C      1  0.4980210000000  0.4846400000000  0.5378540000000 1.0
C      1  0.5231800000000  0.4247260000000  0.5311530000000 1.0
C      1  0.5014540000000  0.4961060000000  0.4083880000000 1.0
C      1  0.4860870000000  0.5614920000000  0.5391550000000 1.0
C      1  0.4435390000000  0.5387480000000  0.4464240000000 1.0
C      1  0.5115070000000  0.4946850000000  0.5147800000000 1.0
C      1  0.4197460000000  0.4632310000000  0.4661450000000 1.0
C      1  0.5075330000000  0.5836340000000  0.5017870000000 1.0
C      1  0.5307320000000  0.5702090000000  0.5408720000000 1.0
C      1  0.4706240000000  0.4308960000000  0.5418020000000 1.0
C      1  0.5409990000000  0.4917670000000  0.5140360000000 1.0
C      1  0.4797890000000  0.4334300000000  0.4418420000000 1.0
C      1  0.4669360000000  0.4765650000000  0.4675320000000 1.0
C      1  0.5121940000000  0.5465630000000  0.5767670000000 1.0
C      1  0.5581420000000  0.4930510000000  0.4503840000000 1.0
C      1  0.5445890000000  0.5305090000000  0.4221420000000 1.0
C      1  0.4226720000000  0.5395300000000  0.5163430000000 1.0
C      1  0.5511750000000  0.4859680000000  0.5772220000000 1.0
C      1  0.4539220000000  0.4449630000000  0.4339070000000 1.0
C      1  0.4804150000000  0.4601160000000  0.5861120000000 1.0
C      1  0.4881690000000  0.5647160000000  0.4847960000000 1.0
C      1  0.5221290000000  0.5218840000000  0.5866360000000 1.0
C      1  0.4162000000000  0.4957820000000  0.4997280000000 1.0
C      1  0.5662250000000  0.4779710000000  0.5537430000000 1.0
C      1  0.5448030000000  0.5134000000000  0.4953330000000 1.0
END
