TITL C-92897-3632-6 329.658290200858 125000 -1125.73611088974 0 0 162 (C1) n - 1
REM
REM in /rds/project/t2_vol4/rds-t2-cs072/BORA/CARBON/from-Arr/AIRSS/Generating-Clusters/GAP-ML-2020/Only-C1/SD-CG/HFTN-CG
REM
REM
REM
REM
REM
REM ./C.cell (11c1c37f851c82e70ff6c80c92926a4b)
REM AIRSS Version 0.9.1 bugfix July 2018 build 013d7b7c2542+ Fri, 06 Jul 2018 19:26:36 +0100
REM compiler GCC version 9.3.0
REM options -cpp -mtune=generic -march=x86-64 -g -O0
REM seed -767052131 -1327688822 242116879 -779184417 1699088379 -371765002 -1273302182 -1023999472 -503689773 1930076833 571079956 -1354602045 -725340454 -1837360636 119738804 2013937544 365926789 661629742 -1939334232 661636381 766987242 -1284056064 1504183778 -1437697977 361247047 1617215707 1444731229 -10906990 -798779880 -1221872226 1060159623 1441818418 742275102
REM
CELL 1.54180   50.00000   50.00000   50.00000   90.00000   90.00000   90.00000
LATT -1
SFAC C  
C      1  0.5231940000000  0.5669730000000  0.4278360000000 1.0
C      1  0.4444820000000  0.5710900000000  0.4606070000000 1.0
C      1  0.5928520000000  0.4560340000000  0.5335860000000 1.0
C      1  0.4979520000000  0.5298500000000  0.6099170000000 1.0
C      1  0.5637850000000  0.4449620000000  0.4353360000000 1.0
C      1  0.5089330000000  0.5185090000000  0.5258910000000 1.0
C      1  0.5263450000000  0.5144580000000  0.4540480000000 1.0
C      1  0.4940030000000  0.4743470000000  0.5081810000000 1.0
C      1  0.5046140000000  0.4718220000000  0.4594890000000 1.0
C      1  0.5040390000000  0.5448130000000  0.4174150000000 1.0
C      1  0.5732020000000  0.5070190000000  0.4719710000000 1.0
C      1  0.4722360000000  0.5450790000000  0.5086710000000 1.0
C      1  0.4136110000000  0.4988640000000  0.4544970000000 1.0
C      1  0.4580510000000  0.4078630000000  0.5020790000000 1.0
C      1  0.4482060000000  0.5337920000000  0.4945420000000 1.0
C      1  0.4654360000000  0.4268990000000  0.5765310000000 1.0
C      1  0.4626750000000  0.4902430000000  0.6017630000000 1.0
C      1  0.4781000000000  0.5260780000000  0.4637290000000 1.0
C      1  0.5419720000000  0.5401790000000  0.4605950000000 1.0
C      1  0.5081890000000  0.4119300000000  0.5317570000000 1.0
C      1  0.4484440000000  0.4160760000000  0.5292030000000 1.0
C      1  0.4403320000000  0.4486560000000  0.4211490000000 1.0
C      1  0.3983350000000  0.5150060000000  0.5032070000000 1.0
C      1  0.4911640000000  0.5935800000000  0.4613090000000 1.0
C      1  0.4895800000000  0.4356030000000  0.5371790000000 1.0
C      1  0.4679680000000  0.5852180000000  0.4477390000000 1.0
C      1  0.4224430000000  0.4983280000000  0.5393860000000 1.0
C      1  0.4474380000000  0.5231580000000  0.5676690000000 1.0
C      1  0.5710740000000  0.4971430000000  0.4421330000000 1.0
C      1  0.4686950000000  0.4195460000000  0.5496780000000 1.0
C      1  0.4853330000000  0.4838540000000  0.5545900000000 1.0
C      1  0.4641710000000  0.5770600000000  0.5738470000000 1.0
C      1  0.5806610000000  0.4151240000000  0.5034680000000 1.0
C      1  0.4301230000000  0.5735920000000  0.5358260000000 1.0
C      1  0.4493250000000  0.4903450000000  0.5190230000000 1.0
C      1  0.4355720000000  0.4072210000000  0.4834360000000 1.0
C      1  0.5386160000000  0.4431940000000  0.5075750000000 1.0
C      1  0.4964110000000  0.4873600000000  0.4818010000000 1.0
C      1  0.4289060000000  0.4529310000000  0.5582610000000 1.0
C      1  0.5895650000000  0.5196870000000  0.5524220000000 1.0
C      1  0.5588630000000  0.5776500000000  0.5441220000000 1.0
C      1  0.5183300000000  0.4320550000000  0.4340600000000 1.0
C      1  0.5642840000000  0.5338850000000  0.4791490000000 1.0
C      1  0.4238580000000  0.4362240000000  0.4823110000000 1.0
C      1  0.4112900000000  0.4464700000000  0.5065550000000 1.0
C      1  0.5258800000000  0.4553550000000  0.4666960000000 1.0
C      1  0.5608090000000  0.5354260000000  0.5078570000000 1.0
C      1  0.5642930000000  0.5034400000000  0.5854920000000 1.0
C      1  0.4017450000000  0.5418620000000  0.5096510000000 1.0
C      1  0.4260520000000  0.5260380000000  0.5490450000000 1.0
C      1  0.5340500000000  0.5806800000000  0.5019860000000 1.0
C      1  0.5816130000000  0.5429190000000  0.5681980000000 1.0
C      1  0.5134740000000  0.5072820000000  0.3846270000000 1.0
C      1  0.5418160000000  0.5000770000000  0.4325070000000 1.0
C      1  0.4368320000000  0.4753250000000  0.4161090000000 1.0
C      1  0.4735830000000  0.4204920000000  0.4419560000000 1.0
C      1  0.4829920000000  0.4656630000000  0.4392450000000 1.0
C      1  0.5985800000000  0.4985560000000  0.4829700000000 1.0
C      1  0.5082750000000  0.5483020000000  0.5917930000000 1.0
C      1  0.4706160000000  0.4331130000000  0.4889840000000 1.0
C      1  0.5223020000000  0.5285940000000  0.3988480000000 1.0
C      1  0.5309150000000  0.4765560000000  0.4174140000000 1.0
C      1  0.4457840000000  0.5046760000000  0.4933980000000 1.0
C      1  0.5386160000000  0.4492950000000  0.4232270000000 1.0
C      1  0.5676850000000  0.5928630000000  0.4707860000000 1.0
C      1  0.5325380000000  0.5591080000000  0.5464880000000 1.0
C      1  0.4657690000000  0.4617570000000  0.6067950000000 1.0
C      1  0.5839180000000  0.4947430000000  0.5670290000000 1.0
C      1  0.5490450000000  0.4921460000000  0.4914260000000 1.0
C      1  0.5269040000000  0.4725400000000  0.5417960000000 1.0
C      1  0.5325530000000  0.5401910000000  0.5736270000000 1.0
C      1  0.5227370000000  0.5048780000000  0.4818430000000 1.0
C      1  0.4823100000000  0.4826570000000  0.4146470000000 1.0
C      1  0.5118000000000  0.4458370000000  0.5815600000000 1.0
C      1  0.5469110000000  0.5510790000000  0.4328570000000 1.0
C      1  0.4162340000000  0.5483060000000  0.5342930000000 1.0
C      1  0.5541510000000  0.5053960000000  0.5189060000000 1.0
C      1  0.5787870000000  0.4574690000000  0.4713350000000 1.0
C      1  0.4742440000000  0.5476850000000  0.4115650000000 1.0
C      1  0.5297960000000  0.5029040000000  0.5391720000000 1.0
C      1  0.5393720000000  0.5878760000000  0.4730770000000 1.0
C      1  0.4818460000000  0.5254960000000  0.5313220000000 1.0
C      1  0.5390310000000  0.4909210000000  0.5869150000000 1.0
C      1  0.4935350000000  0.5067890000000  0.5717780000000 1.0
C      1  0.5791270000000  0.4693050000000  0.5547930000000 1.0
C      1  0.5599430000000  0.5322990000000  0.5828800000000 1.0
C      1  0.5483690000000  0.4624730000000  0.4865070000000 1.0
C      1  0.5137550000000  0.5528490000000  0.4655840000000 1.0
C      1  0.5629260000000  0.4124210000000  0.4818180000000 1.0
C      1  0.4491880000000  0.4527940000000  0.4817200000000 1.0
C      1  0.6008530000000  0.4696690000000  0.4852460000000 1.0
C      1  0.5027430000000  0.5309700000000  0.4457180000000 1.0
C      1  0.4781880000000  0.4948050000000  0.5283270000000 1.0
C      1  0.5518610000000  0.4338730000000  0.5363790000000 1.0
C      1  0.5817420000000  0.5840900000000  0.4482790000000 1.0
C      1  0.5313470000000  0.4155850000000  0.5479100000000 1.0
C      1  0.4697790000000  0.5784820000000  0.5101740000000 1.0
C      1  0.5051200000000  0.5704070000000  0.5497040000000 1.0
C      1  0.4863320000000  0.3981490000000  0.4909610000000 1.0
C      1  0.4575270000000  0.4963590000000  0.4099010000000 1.0
C      1  0.4392840000000  0.4387780000000  0.5815200000000 1.0
C      1  0.5082150000000  0.4864180000000  0.4025590000000 1.0
C      1  0.4270040000000  0.5773820000000  0.4853190000000 1.0
C      1  0.5174050000000  0.5810930000000  0.4539950000000 1.0
C      1  0.4500400000000  0.4611620000000  0.5127150000000 1.0
C      1  0.4879250000000  0.4176350000000  0.4679000000000 1.0
C      1  0.5368780000000  0.4630920000000  0.5829250000000 1.0
C      1  0.4839250000000  0.4427640000000  0.5927800000000 1.0
C      1  0.5797040000000  0.4302400000000  0.5261770000000 1.0
C      1  0.4786620000000  0.4501690000000  0.5120500000000 1.0
C      1  0.5764730000000  0.5629130000000  0.4321760000000 1.0
C      1  0.4320380000000  0.4416970000000  0.5292370000000 1.0
C      1  0.5351950000000  0.5495040000000  0.5149200000000 1.0
C      1  0.4690540000000  0.4978620000000  0.4729590000000 1.0
C      1  0.4146630000000  0.4966540000000  0.4841500000000 1.0
C      1  0.5236840000000  0.5110420000000  0.5682790000000 1.0
C      1  0.6046730000000  0.4726760000000  0.5140140000000 1.0
C      1  0.4399950000000  0.5831820000000  0.5104020000000 1.0
C      1  0.5585310000000  0.5906370000000  0.5176260000000 1.0
C      1  0.4573110000000  0.4729750000000  0.4586790000000 1.0
C      1  0.5795260000000  0.5681680000000  0.5582300000000 1.0
C      1  0.6015770000000  0.5018190000000  0.5108370000000 1.0
C      1  0.5201580000000  0.4635840000000  0.5163100000000 1.0
C      1  0.5207430000000  0.4205000000000  0.5724240000000 1.0
C      1  0.5775940000000  0.4686520000000  0.4438460000000 1.0
C      1  0.4273030000000  0.4182180000000  0.4598030000000 1.0
C      1  0.4925890000000  0.5847140000000  0.5294170000000 1.0
C      1  0.4449340000000  0.4271290000000  0.4377860000000 1.0
C      1  0.3992600000000  0.4933570000000  0.5219940000000 1.0
C      1  0.4437170000000  0.5810320000000  0.5598830000000 1.0
C      1  0.5321010000000  0.4170340000000  0.4896860000000 1.0
C      1  0.4406110000000  0.4477830000000  0.6076870000000 1.0
C      1  0.4440330000000  0.4973610000000  0.5806390000000 1.0
C      1  0.5773400000000  0.5181100000000  0.4201390000000 1.0
C      1  0.5820210000000  0.5182130000000  0.5241550000000 1.0
C      1  0.4057320000000  0.5574430000000  0.4849690000000 1.0
C      1  0.4940470000000  0.5409800000000  0.4865550000000 1.0
C      1  0.4623740000000  0.5712350000000  0.4227600000000 1.0
C      1  0.4317660000000  0.4805990000000  0.4433150000000 1.0
C      1  0.4912940000000  0.4374770000000  0.4288170000000 1.0
C      1  0.4530590000000  0.5418590000000  0.4675010000000 1.0
C      1  0.5516670000000  0.4584900000000  0.5559990000000 1.0
C      1  0.5020150000000  0.4594830000000  0.5540680000000 1.0
C      1  0.5470250000000  0.5262160000000  0.4151020000000 1.0
C      1  0.5086610000000  0.5939350000000  0.5077690000000 1.0
C      1  0.4761770000000  0.5301800000000  0.5607650000000 1.0
C      1  0.5167920000000  0.4269820000000  0.4646310000000 1.0
C      1  0.4530560000000  0.5256650000000  0.4121580000000 1.0
C      1  0.5918730000000  0.5412060000000  0.4215890000000 1.0
C      1  0.3996430000000  0.5443530000000  0.4619680000000 1.0
C      1  0.5106070000000  0.4022230000000  0.5050240000000 1.0
C      1  0.4857320000000  0.5073810000000  0.6009020000000 1.0
C      1  0.4358690000000  0.5643160000000  0.4318250000000 1.0
C      1  0.5159200000000  0.5290450000000  0.5005990000000 1.0
C      1  0.4282230000000  0.4810250000000  0.5628360000000 1.0
C      1  0.4105120000000  0.5260910000000  0.4446760000000 1.0
C      1  0.5757750000000  0.5974470000000  0.4983320000000 1.0
C      1  0.4034320000000  0.4731900000000  0.5022560000000 1.0
C      1  0.4883720000000  0.5583630000000  0.5706870000000 1.0
C      1  0.4296520000000  0.5375910000000  0.4249610000000 1.0
C      1  0.5701970000000  0.4304450000000  0.4607180000000 1.0
C      1  0.4875100000000  0.5946390000000  0.4893400000000 1.0
END
