TITL C-92889-3724-7 -65.2579603620813 125000 -100.323910773991 0 0 16 (C1) n - 1
REM
REM in /rds/project/t2_vol4/rds-t2-cs072/BORA/CARBON/from-Arr/AIRSS/Generating-Clusters/GAP-ML-2020/Only-C1/SD-CG/HFTN-CG
REM
REM
REM
REM
REM
REM ./C.cell (11c1c37f851c82e70ff6c80c92926a4b)
REM AIRSS Version 0.9.1 bugfix July 2018 build 013d7b7c2542+ Fri, 06 Jul 2018 19:26:36 +0100
REM compiler GCC version 9.3.0
REM options -cpp -mtune=generic -march=x86-64 -g -O0
REM seed 112232530 2066485383 1405661883 -1489243325 -1900221176 1293468331 2084820775 2045046154 695169190 -1897521296 1944217240 -1092119429 -1360251878 -1580903490 1033637737 -530372788 332432716 1303918896 1315626527 1455437077 348066520 -777679817 514533458 -864924510 -1662667451 -1756929993 138727123 219420845 -984958153 -568242461 -1365855772 502603744 1951279969
REM
CELL 1.54180   50.00000   50.00000   50.00000   90.00000   90.00000   90.00000
LATT -1
SFAC C  
C      1  0.4499510000000  0.5149640000000  0.5317890000000 1.0
C      1  0.4646190000000  0.5015920000000  0.4979150000000 1.0
C      1  0.4660330000000  0.5405290000000  0.4895850000000 1.0
C      1  0.5357410000000  0.4869990000000  0.5330880000000 1.0
C      1  0.5456130000000  0.5007270000000  0.4922080000000 1.0
C      1  0.4689750000000  0.4943810000000  0.5256240000000 1.0
C      1  0.4502060000000  0.5257390000000  0.5068580000000 1.0
C      1  0.5530170000000  0.4991710000000  0.5182690000000 1.0
C      1  0.4894720000000  0.4830610000000  0.5391060000000 1.0
C      1  0.4791610000000  0.5171580000000  0.4793030000000 1.0
C      1  0.5406780000000  0.4816540000000  0.4715400000000 1.0
C      1  0.4964160000000  0.4824300000000  0.4580100000000 1.0
C      1  0.5023160000000  0.5088250000000  0.4663840000000 1.0
C      1  0.5303490000000  0.5116200000000  0.4708760000000 1.0
C      1  0.5136090000000  0.4724640000000  0.4745510000000 1.0
C      1  0.5138430000000  0.4786860000000  0.5448960000000 1.0
END
