TITL C-92898-3672-10 62.8055297521217 125000 -703.228231190639 0 0 100 (C1) n - 1
REM
REM in /rds/project/t2_vol4/rds-t2-cs072/BORA/CARBON/from-Arr/AIRSS/Generating-Clusters/GAP-ML-2020/Only-C1/SD-CG/HFTN-CG
REM
REM
REM
REM
REM
REM ./C.cell (11c1c37f851c82e70ff6c80c92926a4b)
REM AIRSS Version 0.9.1 bugfix July 2018 build 013d7b7c2542+ Fri, 06 Jul 2018 19:26:36 +0100
REM compiler GCC version 9.3.0
REM options -cpp -mtune=generic -march=x86-64 -g -O0
REM seed -1475371230 542823556 -1239612106 1642302667 1252963082 1101249676 428966805 -973225229 1027694218 -1936272995 -2087102265 -585507310 1834335860 1241103027 -108526830 -1003002837 1068152127 1969168687 -886231356 1491916360 -1428784737 1389691844 965215695 325790127 1586355497 -189217807 600614682 1607929179 -1434603456 127464609 1927732050 -1292835341 -538419628
REM
CELL 1.54180   50.00000   50.00000   50.00000   90.00000   90.00000   90.00000
LATT -1
SFAC C  
C      1  0.4793190000000  0.5530920000000  0.5072430000000 1.0
C      1  0.4716390000000  0.5161210000000  0.5694650000000 1.0
C      1  0.4284070000000  0.4953530000000  0.4534660000000 1.0
C      1  0.4980010000000  0.5528530000000  0.4441500000000 1.0
C      1  0.5434810000000  0.4996680000000  0.5104100000000 1.0
C      1  0.5503490000000  0.4400490000000  0.4925980000000 1.0
C      1  0.4711100000000  0.5525790000000  0.4538870000000 1.0
C      1  0.4743260000000  0.4441350000000  0.4579090000000 1.0
C      1  0.4208730000000  0.5310520000000  0.5406570000000 1.0
C      1  0.4795060000000  0.4678110000000  0.4807570000000 1.0
C      1  0.4980710000000  0.4446950000000  0.4395750000000 1.0
C      1  0.5358540000000  0.5151860000000  0.4299970000000 1.0
C      1  0.5751780000000  0.4994170000000  0.4560610000000 1.0
C      1  0.5172040000000  0.5190130000000  0.5877170000000 1.0
C      1  0.5006770000000  0.4239580000000  0.4938690000000 1.0
C      1  0.5213960000000  0.4861850000000  0.4690840000000 1.0
C      1  0.5199510000000  0.4644700000000  0.5797480000000 1.0
C      1  0.5421580000000  0.5056450000000  0.5821110000000 1.0
C      1  0.4983030000000  0.5563170000000  0.5602110000000 1.0
C      1  0.4520580000000  0.4557050000000  0.4407250000000 1.0
C      1  0.5330440000000  0.4871810000000  0.4231550000000 1.0
C      1  0.4618760000000  0.5479980000000  0.5331920000000 1.0
C      1  0.5807900000000  0.5375370000000  0.4817160000000 1.0
C      1  0.5097100000000  0.5034450000000  0.5408970000000 1.0
C      1  0.5124470000000  0.4394250000000  0.5679970000000 1.0
C      1  0.5586900000000  0.5225270000000  0.5658960000000 1.0
C      1  0.5233740000000  0.4373380000000  0.4785820000000 1.0
C      1  0.5243300000000  0.4868660000000  0.5258140000000 1.0
C      1  0.4737040000000  0.5424470000000  0.5580300000000 1.0
C      1  0.5826530000000  0.4709980000000  0.5060800000000 1.0
C      1  0.5433070000000  0.5464000000000  0.5607980000000 1.0
C      1  0.4921110000000  0.4616870000000  0.4181910000000 1.0
C      1  0.4346880000000  0.5548570000000  0.5320770000000 1.0
C      1  0.5751760000000  0.5063940000000  0.5486840000000 1.0
C      1  0.5127190000000  0.4642500000000  0.5140830000000 1.0
C      1  0.4380500000000  0.5627490000000  0.4859120000000 1.0
C      1  0.4922660000000  0.5059050000000  0.5858260000000 1.0
C      1  0.4502990000000  0.4164130000000  0.4890260000000 1.0
C      1  0.4981140000000  0.5313220000000  0.5058430000000 1.0
C      1  0.5552990000000  0.5621880000000  0.5145670000000 1.0
C      1  0.5415260000000  0.5744620000000  0.4926680000000 1.0
C      1  0.5589470000000  0.5212080000000  0.4444250000000 1.0
C      1  0.5851420000000  0.5173820000000  0.5236640000000 1.0
C      1  0.5290680000000  0.4181390000000  0.5612210000000 1.0
C      1  0.4303790000000  0.5388380000000  0.4716170000000 1.0
C      1  0.4659900000000  0.4946730000000  0.5187000000000 1.0
C      1  0.4639250000000  0.4673120000000  0.5080160000000 1.0
C      1  0.4934150000000  0.5795970000000  0.5141150000000 1.0
C      1  0.4443790000000  0.5114340000000  0.4358230000000 1.0
C      1  0.4126440000000  0.5070510000000  0.5283810000000 1.0
C      1  0.5384510000000  0.5630230000000  0.5377350000000 1.0
C      1  0.4266660000000  0.4667450000000  0.4499070000000 1.0
C      1  0.5131080000000  0.5803040000000  0.4890750000000 1.0
C      1  0.4569130000000  0.5078100000000  0.4923140000000 1.0
C      1  0.4271120000000  0.5095710000000  0.4801620000000 1.0
C      1  0.4996820000000  0.5069260000000  0.4623480000000 1.0
C      1  0.5043360000000  0.4373410000000  0.5229900000000 1.0
C      1  0.4657150000000  0.5623020000000  0.4800530000000 1.0
C      1  0.5766430000000  0.5424550000000  0.5093440000000 1.0
C      1  0.4749200000000  0.4960000000000  0.4723920000000 1.0
C      1  0.4373560000000  0.4564620000000  0.5100390000000 1.0
C      1  0.5660490000000  0.4722650000000  0.4577340000000 1.0
C      1  0.4376380000000  0.5750130000000  0.5119030000000 1.0
C      1  0.5455570000000  0.4786860000000  0.5748140000000 1.0
C      1  0.5092360000000  0.4656940000000  0.4857410000000 1.0
C      1  0.5149600000000  0.5691930000000  0.4611860000000 1.0
C      1  0.5070050000000  0.5256080000000  0.4337910000000 1.0
C      1  0.4053730000000  0.4512610000000  0.4594660000000 1.0
C      1  0.5312750000000  0.4263160000000  0.5348990000000 1.0
C      1  0.5187760000000  0.5438630000000  0.5748560000000 1.0
C      1  0.4643750000000  0.5905570000000  0.5168830000000 1.0
C      1  0.4919240000000  0.5094840000000  0.5217790000000 1.0
C      1  0.5540560000000  0.4382380000000  0.5210240000000 1.0
C      1  0.4947570000000  0.4779750000000  0.5810430000000 1.0
C      1  0.5889880000000  0.5102310000000  0.4780080000000 1.0
C      1  0.5352720000000  0.5071290000000  0.4863190000000 1.0
C      1  0.4757620000000  0.4215260000000  0.4800000000000 1.0
C      1  0.5075070000000  0.4844510000000  0.4125320000000 1.0
C      1  0.5716370000000  0.4599680000000  0.5304460000000 1.0
C      1  0.4302060000000  0.5048900000000  0.5500410000000 1.0
C      1  0.4889860000000  0.4448670000000  0.5505590000000 1.0
C      1  0.4757720000000  0.4687810000000  0.5612720000000 1.0
C      1  0.4476110000000  0.5370500000000  0.4484370000000 1.0
C      1  0.5399980000000  0.4685530000000  0.4451400000000 1.0
C      1  0.4057410000000  0.4459000000000  0.4859150000000 1.0
C      1  0.5696430000000  0.4589270000000  0.4827780000000 1.0
C      1  0.4639370000000  0.4989640000000  0.4187440000000 1.0
C      1  0.4096020000000  0.4967610000000  0.5016520000000 1.0
C      1  0.5130940000000  0.5247840000000  0.4839160000000 1.0
C      1  0.5918130000000  0.4977790000000  0.5033130000000 1.0
C      1  0.5104730000000  0.5707260000000  0.5384210000000 1.0
C      1  0.4912800000000  0.5078930000000  0.4154220000000 1.0
C      1  0.5240640000000  0.4432600000000  0.4493640000000 1.0
C      1  0.4123380000000  0.4691580000000  0.5029020000000 1.0
C      1  0.5672680000000  0.4781580000000  0.5531420000000 1.0
C      1  0.5441830000000  0.5654470000000  0.4652680000000 1.0
C      1  0.5634260000000  0.5453640000000  0.4602480000000 1.0
C      1  0.4648010000000  0.4704160000000  0.4207610000000 1.0
C      1  0.4587590000000  0.4938280000000  0.5516380000000 1.0
C      1  0.4300290000000  0.4307740000000  0.4976490000000 1.0
END
