TITL C-92104-9459-6 86.8914619596191 125000 -61.2409980354478 0 0 10 (C2) n - 1
REM
REM in /rds/project/t2_vol4/rds-t2-cs072/BORA/CARBON/from-Arr/AIRSS/Generating-Clusters/GAP-ML-2020/Only-C1/SD-CG/HFTN-CG
REM
REM
REM
REM
REM
REM ./C.cell (11c1c37f851c82e70ff6c80c92926a4b)
REM AIRSS Version 0.9.1 bugfix July 2018 build 013d7b7c2542+ Fri, 06 Jul 2018 19:26:36 +0100
REM compiler GCC version 9.3.0
REM options -cpp -mtune=generic -march=x86-64 -g -O0
REM seed -1455165624 -464970302 41520508 -1794416952 1696764969 -439539707 550053383 -801780818 659570407 -818238539 -1571414328 1812815879 -1484459448 -1119452497 -1927571774 -1371910753 1578667483 1966045190 795656811 489676085 734080396 819503285 992322370 1496798040 966472303 256356917 339708794 2016405455 -2145832036 1210950776 241393165 1088765046 -120553986
REM
CELL 1.54180   50.00000   50.00000   50.00000   90.00000   90.00000   90.00000
LATT -1
SFAC C  
C      1  0.5530340000000  0.5086500000000  0.4983010000000 1.0
C      1  0.4931230000000  0.5211090000000  0.5071710000000 1.0
C      1  0.5356830000000  0.4903920000000  0.4929370000000 1.0
C      1  0.4839970000000  0.5301010000000  0.4840850000000 1.0
C      1  0.4861920000000  0.5141810000000  0.5319380000000 1.0
C      1  0.4927310000000  0.4638710000000  0.4926720000000 1.0
C      1  0.4805450000000  0.4887010000000  0.5317970000000 1.0
C      1  0.5107820000000  0.4829570000000  0.4882700000000 1.0
C      1  0.4841070000000  0.5300260000000  0.4583320000000 1.0
C      1  0.4798060000000  0.4700130000000  0.5144970000000 1.0
END
