TITL C-92900-3690-4 35.2052245893666 125000 -830.534411097906 0 0 119 (C1) n - 1
REM
REM in /rds/project/t2_vol4/rds-t2-cs072/BORA/CARBON/from-Arr/AIRSS/Generating-Clusters/GAP-ML-2020/Only-C1/SD-CG/HFTN-CG
REM
REM
REM
REM
REM
REM ./C.cell (11c1c37f851c82e70ff6c80c92926a4b)
REM AIRSS Version 0.9.1 bugfix July 2018 build 013d7b7c2542+ Fri, 06 Jul 2018 19:26:36 +0100
REM compiler GCC version 9.3.0
REM options -cpp -mtune=generic -march=x86-64 -g -O0
REM seed -1861707250 -1460383268 -117567304 974514628 -1181508381 1037976845 768140193 518304955 1842295106 -151380852 -961058667 1212259353 570785991 -126436816 -1004779858 2098425190 668263085 -1313416855 1703571096 1333861279 1192990569 2070157225 -1012901504 457950568 1193365182 -1743267123 -1256995177 -131600703 -1491362597 -1535450895 -784275027 -1509236925 -1109609475
REM
CELL 1.54180   50.00000   50.00000   50.00000   90.00000   90.00000   90.00000
LATT -1
SFAC C  
C      1  0.5221020000000  0.4737040000000  0.5191180000000 1.0
C      1  0.5077600000000  0.4074440000000  0.5326170000000 1.0
C      1  0.4701890000000  0.5834810000000  0.4854550000000 1.0
C      1  0.4268220000000  0.4778110000000  0.5791130000000 1.0
C      1  0.4268720000000  0.5575720000000  0.5400490000000 1.0
C      1  0.4943240000000  0.5712210000000  0.4482280000000 1.0
C      1  0.4991520000000  0.4463600000000  0.4442760000000 1.0
C      1  0.4290400000000  0.5301420000000  0.5388120000000 1.0
C      1  0.5385740000000  0.5011860000000  0.4568670000000 1.0
C      1  0.5825210000000  0.4756440000000  0.4812010000000 1.0
C      1  0.4618540000000  0.4152620000000  0.5152770000000 1.0
C      1  0.5869660000000  0.4837000000000  0.5090190000000 1.0
C      1  0.4318620000000  0.4752480000000  0.4394120000000 1.0
C      1  0.4380610000000  0.4657150000000  0.5278430000000 1.0
C      1  0.5492830000000  0.4376260000000  0.4912130000000 1.0
C      1  0.4970880000000  0.4983170000000  0.5915130000000 1.0
C      1  0.5723390000000  0.5570020000000  0.4930100000000 1.0
C      1  0.4677740000000  0.4980030000000  0.4125280000000 1.0
C      1  0.4278720000000  0.5155260000000  0.5133210000000 1.0
C      1  0.5524060000000  0.4989420000000  0.5408110000000 1.0
C      1  0.4563530000000  0.4749080000000  0.4237670000000 1.0
C      1  0.5746280000000  0.4755870000000  0.5325870000000 1.0
C      1  0.5551300000000  0.4314100000000  0.5188940000000 1.0
C      1  0.4839380000000  0.4664540000000  0.5080700000000 1.0
C      1  0.5446850000000  0.5564390000000  0.4430290000000 1.0
C      1  0.4492660000000  0.4248080000000  0.4909250000000 1.0
C      1  0.5287240000000  0.5456910000000  0.4679070000000 1.0
C      1  0.5439270000000  0.5812480000000  0.4611800000000 1.0
C      1  0.4881780000000  0.4826250000000  0.4841740000000 1.0
C      1  0.5092690000000  0.4624980000000  0.4686250000000 1.0
C      1  0.5595360000000  0.5807790000000  0.4858250000000 1.0
C      1  0.5003250000000  0.5682790000000  0.5587740000000 1.0
C      1  0.4735420000000  0.4867340000000  0.5802700000000 1.0
C      1  0.5377950000000  0.5339390000000  0.5140420000000 1.0
C      1  0.5068350000000  0.4519430000000  0.5129420000000 1.0
C      1  0.5581960000000  0.4661060000000  0.5850010000000 1.0
C      1  0.4139970000000  0.4962570000000  0.4969300000000 1.0
C      1  0.4952420000000  0.4999140000000  0.4190120000000 1.0
C      1  0.5176490000000  0.4824040000000  0.4156960000000 1.0
C      1  0.5681030000000  0.4488100000000  0.5390990000000 1.0
C      1  0.4636270000000  0.4196640000000  0.4660630000000 1.0
C      1  0.5563160000000  0.5240370000000  0.5567480000000 1.0
C      1  0.5140480000000  0.5727890000000  0.4690130000000 1.0
C      1  0.4187690000000  0.4996930000000  0.4433180000000 1.0
C      1  0.4551620000000  0.4255580000000  0.5417530000000 1.0
C      1  0.4999590000000  0.5096230000000  0.5356120000000 1.0
C      1  0.4516050000000  0.5617020000000  0.4396200000000 1.0
C      1  0.5028260000000  0.4139530000000  0.4855840000000 1.0
C      1  0.4518290000000  0.5694000000000  0.5018940000000 1.0
C      1  0.5819070000000  0.5407280000000  0.5140790000000 1.0
C      1  0.4758090000000  0.5604830000000  0.5409160000000 1.0
C      1  0.5167990000000  0.5192040000000  0.4635410000000 1.0
C      1  0.4531750000000  0.4365440000000  0.4466910000000 1.0
C      1  0.4716790000000  0.4519760000000  0.4327210000000 1.0
C      1  0.5261420000000  0.4371130000000  0.5590270000000 1.0
C      1  0.5360280000000  0.4773780000000  0.4722250000000 1.0
C      1  0.4956820000000  0.5441470000000  0.5757000000000 1.0
C      1  0.4958120000000  0.5201150000000  0.4424630000000 1.0
C      1  0.5821070000000  0.5033720000000  0.4728990000000 1.0
C      1  0.5522150000000  0.4603350000000  0.4406380000000 1.0
C      1  0.4205740000000  0.4545970000000  0.5686900000000 1.0
C      1  0.4536950000000  0.5226170000000  0.4137680000000 1.0
C      1  0.5425420000000  0.5261750000000  0.4136220000000 1.0
C      1  0.5607490000000  0.4859550000000  0.4300320000000 1.0
C      1  0.4686840000000  0.5776760000000  0.4572830000000 1.0
C      1  0.5428030000000  0.5194850000000  0.5819440000000 1.0
C      1  0.4696880000000  0.5042680000000  0.5317080000000 1.0
C      1  0.5798850000000  0.5128570000000  0.5020010000000 1.0
C      1  0.5007500000000  0.4204120000000  0.5574580000000 1.0
C      1  0.5467590000000  0.5868410000000  0.5106870000000 1.0
C      1  0.4515980000000  0.5180440000000  0.5549730000000 1.0
C      1  0.4274030000000  0.5458270000000  0.4444450000000 1.0
C      1  0.5599820000000  0.4580420000000  0.4714180000000 1.0
C      1  0.5465620000000  0.5437600000000  0.4896730000000 1.0
C      1  0.4714850000000  0.5187460000000  0.4583940000000 1.0
C      1  0.4486410000000  0.5707930000000  0.5299100000000 1.0
C      1  0.5378360000000  0.4749770000000  0.6025140000000 1.0
C      1  0.4648680000000  0.5429390000000  0.5010890000000 1.0
C      1  0.5212980000000  0.5805000000000  0.5439000000000 1.0
C      1  0.4898840000000  0.5508270000000  0.5126620000000 1.0
C      1  0.5126980000000  0.4746300000000  0.5910490000000 1.0
C      1  0.4323420000000  0.4524430000000  0.4567070000000 1.0
C      1  0.5620790000000  0.5337910000000  0.4334250000000 1.0
C      1  0.4290800000000  0.5219580000000  0.4283260000000 1.0
C      1  0.4912420000000  0.4198470000000  0.4610330000000 1.0
C      1  0.4672960000000  0.5016610000000  0.4788380000000 1.0
C      1  0.5204940000000  0.4884720000000  0.5429980000000 1.0
C      1  0.4698490000000  0.5404030000000  0.5625620000000 1.0
C      1  0.5338950000000  0.4199230000000  0.5340910000000 1.0
C      1  0.5514230000000  0.5086160000000  0.5118860000000 1.0
C      1  0.5491880000000  0.5736960000000  0.5371390000000 1.0
C      1  0.5541410000000  0.4471640000000  0.5649030000000 1.0
C      1  0.5180600000000  0.5894940000000  0.5154060000000 1.0
C      1  0.4764910000000  0.4343890000000  0.5587410000000 1.0
C      1  0.4961520000000  0.5492900000000  0.4280190000000 1.0
C      1  0.5418030000000  0.4973960000000  0.4117450000000 1.0
C      1  0.4104220000000  0.5086200000000  0.4705560000000 1.0
C      1  0.4673630000000  0.4746710000000  0.5313140000000 1.0
C      1  0.5318900000000  0.4902250000000  0.4982450000000 1.0
C      1  0.5087350000000  0.5071760000000  0.4897240000000 1.0
C      1  0.5253590000000  0.5486450000000  0.4203190000000 1.0
C      1  0.4135890000000  0.5361850000000  0.4663570000000 1.0
C      1  0.4328960000000  0.4442770000000  0.5460340000000 1.0
C      1  0.4988630000000  0.5770510000000  0.4957350000000 1.0
C      1  0.5594970000000  0.5457920000000  0.5361900000000 1.0
C      1  0.4235850000000  0.4691680000000  0.5030080000000 1.0
C      1  0.4568440000000  0.5156530000000  0.5055950000000 1.0
C      1  0.4468760000000  0.4969020000000  0.5766180000000 1.0
C      1  0.4669330000000  0.5476140000000  0.4195560000000 1.0
C      1  0.5085570000000  0.5270670000000  0.5140640000000 1.0
C      1  0.5124340000000  0.5232940000000  0.5872280000000 1.0
C      1  0.5106500000000  0.4658440000000  0.5629630000000 1.0
C      1  0.4304030000000  0.4472270000000  0.4852420000000 1.0
C      1  0.5674820000000  0.5089770000000  0.4486100000000 1.0
C      1  0.4803550000000  0.4644700000000  0.5599980000000 1.0
C      1  0.4893550000000  0.4062770000000  0.5105590000000 1.0
C      1  0.5532880000000  0.4956000000000  0.5930350000000 1.0
C      1  0.5235960000000  0.4580330000000  0.4308160000000 1.0
C      1  0.5194330000000  0.4381700000000  0.4882580000000 1.0
END
