TITL C-92903-3706-8 7.20050837615325 125000 -527.337147438173 0 0 76 (C1) n - 1
REM
REM in /rds/project/t2_vol4/rds-t2-cs072/BORA/CARBON/from-Arr/AIRSS/Generating-Clusters/GAP-ML-2020/Only-C1/SD-CG/HFTN-CG
REM
REM
REM
REM
REM
REM ./C.cell (11c1c37f851c82e70ff6c80c92926a4b)
REM AIRSS Version 0.9.1 bugfix July 2018 build 013d7b7c2542+ Fri, 06 Jul 2018 19:26:36 +0100
REM compiler GCC version 9.3.0
REM options -cpp -mtune=generic -march=x86-64 -g -O0
REM seed 1283903641 276088726 -1380020798 61930433 1382794999 -966549559 1397943563 -1800241584 -499288024 1738013927 1266369737 -1173252520 83407269 159973308 -2145054791 -1069564392 2138998922 1626098788 898547358 -1273539639 -679314090 -1448469562 1184392334 -183993892 1146361013 -184558796 655902655 -1748112560 -1926707383 1916153787 273953546 -42465762 1312742688
REM
CELL 1.54180   50.00000   50.00000   50.00000   90.00000   90.00000   90.00000
LATT -1
SFAC C  
C      1  0.5587490000000  0.5161000000000  0.4499790000000 1.0
C      1  0.4757670000000  0.5194580000000  0.5510200000000 1.0
C      1  0.5724170000000  0.5146220000000  0.4751380000000 1.0
C      1  0.5312270000000  0.5096530000000  0.5684110000000 1.0
C      1  0.4997960000000  0.5254290000000  0.4790270000000 1.0
C      1  0.5599470000000  0.4590740000000  0.5243060000000 1.0
C      1  0.5714140000000  0.4876170000000  0.4841090000000 1.0
C      1  0.4544270000000  0.5038310000000  0.5610710000000 1.0
C      1  0.5432340000000  0.5389930000000  0.4496330000000 1.0
C      1  0.4430350000000  0.4931630000000  0.4512460000000 1.0
C      1  0.5171110000000  0.5385250000000  0.4385920000000 1.0
C      1  0.5627840000000  0.5324500000000  0.5201510000000 1.0
C      1  0.4325010000000  0.4856990000000  0.4773540000000 1.0
C      1  0.5384310000000  0.5432530000000  0.5323840000000 1.0
C      1  0.4645110000000  0.4777860000000  0.5664510000000 1.0
C      1  0.5242500000000  0.5102390000000  0.4837230000000 1.0
C      1  0.4644640000000  0.4460700000000  0.5028360000000 1.0
C      1  0.4762630000000  0.5091850000000  0.4284550000000 1.0
C      1  0.5278220000000  0.5369600000000  0.5594150000000 1.0
C      1  0.4774000000000  0.5475240000000  0.5536000000000 1.0
C      1  0.4679320000000  0.5873420000000  0.4683420000000 1.0
C      1  0.5512540000000  0.4669970000000  0.5503190000000 1.0
C      1  0.5036890000000  0.4509520000000  0.5660600000000 1.0
C      1  0.4496030000000  0.4733780000000  0.5003640000000 1.0
C      1  0.5711360000000  0.4826680000000  0.5121210000000 1.0
C      1  0.4704750000000  0.5725720000000  0.5132320000000 1.0
C      1  0.4757060000000  0.5637500000000  0.4560660000000 1.0
C      1  0.4788430000000  0.4360810000000  0.4415240000000 1.0
C      1  0.5047630000000  0.5547640000000  0.5548490000000 1.0
C      1  0.4697930000000  0.4417280000000  0.5305810000000 1.0
C      1  0.5005400000000  0.4789540000000  0.5056470000000 1.0
C      1  0.4393410000000  0.4786150000000  0.5276690000000 1.0
C      1  0.5179140000000  0.4911390000000  0.4386040000000 1.0
C      1  0.5058220000000  0.3999570000000  0.4670580000000 1.0
C      1  0.4544520000000  0.4615810000000  0.5452190000000 1.0
C      1  0.5020180000000  0.5519070000000  0.4599560000000 1.0
C      1  0.4860320000000  0.4396350000000  0.4853270000000 1.0
C      1  0.4614580000000  0.4832880000000  0.4301690000000 1.0
C      1  0.5311680000000  0.4489690000000  0.5579780000000 1.0
C      1  0.4282200000000  0.5322610000000  0.4976130000000 1.0
C      1  0.5349850000000  0.4527990000000  0.4740050000000 1.0
C      1  0.5099870000000  0.4958830000000  0.5781700000000 1.0
C      1  0.5194850000000  0.5640550000000  0.4816090000000 1.0
C      1  0.4948320000000  0.4350070000000  0.5428950000000 1.0
C      1  0.5276110000000  0.4063030000000  0.4787000000000 1.0
C      1  0.5649470000000  0.5367950000000  0.4918050000000 1.0
C      1  0.4206170000000  0.5083170000000  0.4870180000000 1.0
C      1  0.5524410000000  0.4953660000000  0.5535860000000 1.0
C      1  0.4606950000000  0.5171270000000  0.4525700000000 1.0
C      1  0.4972530000000  0.4789160000000  0.4572990000000 1.0
C      1  0.4586500000000  0.5562130000000  0.5336370000000 1.0
C      1  0.5410880000000  0.4282270000000  0.4880490000000 1.0
C      1  0.4942560000000  0.5344760000000  0.5071070000000 1.0
C      1  0.5236820000000  0.4315540000000  0.5357270000000 1.0
C      1  0.4389490000000  0.5528810000000  0.4809880000000 1.0
C      1  0.4746760000000  0.4933720000000  0.5002720000000 1.0
C      1  0.4724450000000  0.5177480000000  0.5183330000000 1.0
C      1  0.5440220000000  0.4362250000000  0.5155390000000 1.0
C      1  0.5448010000000  0.5522850000000  0.4762950000000 1.0
C      1  0.5175890000000  0.5657380000000  0.5315260000000 1.0
C      1  0.4790760000000  0.4626750000000  0.4376480000000 1.0
C      1  0.5533030000000  0.4729960000000  0.4660830000000 1.0
C      1  0.4813290000000  0.5031010000000  0.4720770000000 1.0
C      1  0.4363950000000  0.5049800000000  0.5392330000000 1.0
C      1  0.5010550000000  0.5649830000000  0.5078020000000 1.0
C      1  0.4873610000000  0.4214380000000  0.4632770000000 1.0
C      1  0.4537860000000  0.5773480000000  0.4907820000000 1.0
C      1  0.4921420000000  0.4752600000000  0.5749510000000 1.0
C      1  0.5209110000000  0.4976600000000  0.5090570000000 1.0
C      1  0.5454750000000  0.4909310000000  0.4453320000000 1.0
C      1  0.5162060000000  0.5219950000000  0.5225350000000 1.0
C      1  0.4540120000000  0.5444960000000  0.4587390000000 1.0
C      1  0.5059990000000  0.4617920000000  0.4804480000000 1.0
C      1  0.5663670000000  0.5053560000000  0.5303050000000 1.0
C      1  0.4430800000000  0.5297230000000  0.5226510000000 1.0
C      1  0.5047820000000  0.5138110000000  0.4283560000000 1.0
END
