TITL C-92897-3632-5 -1.0842369053615 125000 -581.357654597742 0 0 82 (C1) n - 1
REM
REM in /rds/project/t2_vol4/rds-t2-cs072/BORA/CARBON/from-Arr/AIRSS/Generating-Clusters/GAP-ML-2020/Only-C1/SD-CG/HFTN-CG
REM
REM
REM
REM
REM
REM ./C.cell (11c1c37f851c82e70ff6c80c92926a4b)
REM AIRSS Version 0.9.1 bugfix July 2018 build 013d7b7c2542+ Fri, 06 Jul 2018 19:26:36 +0100
REM compiler GCC version 9.3.0
REM options -cpp -mtune=generic -march=x86-64 -g -O0
REM seed -1735010409 1422810043 492551131 -1090080717 1022144282 1843283758 -1075813939 867971947 -1137812226 653924364 -1468741882 1607492320 -1150474551 -774168489 1974486501 480168822 1666141792 -1735547345 1796243099 -317617807 -17297618 406934075 1346182107 1239518175 -1941944512 181262114 664233488 -294367676 -1494407614 1422421240 -904773909 -1167870146 1216660887
REM
CELL 1.54180   50.00000   50.00000   50.00000   90.00000   90.00000   90.00000
LATT -1
SFAC C  
C      1  0.5000220000000  0.4094780000000  0.4935730000000 1.0
C      1  0.4513530000000  0.5211960000000  0.4631890000000 1.0
C      1  0.4391430000000  0.4875090000000  0.5227420000000 1.0
C      1  0.5750040000000  0.4889700000000  0.5300930000000 1.0
C      1  0.5412530000000  0.4141300000000  0.4730590000000 1.0
C      1  0.5316980000000  0.4884950000000  0.5078990000000 1.0
C      1  0.5337640000000  0.4946640000000  0.5579830000000 1.0
C      1  0.4906470000000  0.4208050000000  0.5307580000000 1.0
C      1  0.5515280000000  0.4889060000000  0.4437480000000 1.0
C      1  0.5700380000000  0.4983970000000  0.4623220000000 1.0
C      1  0.5166150000000  0.5747230000000  0.5034640000000 1.0
C      1  0.5821460000000  0.5174770000000  0.5005580000000 1.0
C      1  0.4352440000000  0.4965330000000  0.4739170000000 1.0
C      1  0.5136310000000  0.4137410000000  0.4694430000000 1.0
C      1  0.4690650000000  0.4588540000000  0.5470730000000 1.0
C      1  0.5480670000000  0.5433010000000  0.4695600000000 1.0
C      1  0.4908640000000  0.4955990000000  0.5308750000000 1.0
C      1  0.4879550000000  0.5532200000000  0.4619450000000 1.0
C      1  0.4604230000000  0.5056780000000  0.5646180000000 1.0
C      1  0.4894550000000  0.4401080000000  0.5498850000000 1.0
C      1  0.5040580000000  0.4715440000000  0.4258860000000 1.0
C      1  0.4720290000000  0.5289990000000  0.5770230000000 1.0
C      1  0.4753140000000  0.4202410000000  0.5058070000000 1.0
C      1  0.4660990000000  0.5540930000000  0.5674530000000 1.0
C      1  0.4754040000000  0.5755820000000  0.4741270000000 1.0
C      1  0.5613560000000  0.4530630000000  0.4729370000000 1.0
C      1  0.4792150000000  0.5356790000000  0.5086960000000 1.0
C      1  0.4898450000000  0.5187990000000  0.4296940000000 1.0
C      1  0.4474490000000  0.5714790000000  0.4745880000000 1.0
C      1  0.4797230000000  0.4847160000000  0.5572020000000 1.0
C      1  0.5207140000000  0.4519810000000  0.4389470000000 1.0
C      1  0.5343440000000  0.5088390000000  0.4341770000000 1.0
C      1  0.4176990000000  0.5258520000000  0.5072080000000 1.0
C      1  0.4783810000000  0.5297130000000  0.4796140000000 1.0
C      1  0.5404460000000  0.5593960000000  0.4929990000000 1.0
C      1  0.4772530000000  0.4639070000000  0.4310670000000 1.0
C      1  0.5315580000000  0.5348010000000  0.4466190000000 1.0
C      1  0.5197420000000  0.5133970000000  0.5021320000000 1.0
C      1  0.4436800000000  0.4731810000000  0.4607140000000 1.0
C      1  0.5095670000000  0.4991880000000  0.4239830000000 1.0
C      1  0.4254150000000  0.4993450000000  0.5004860000000 1.0
C      1  0.5477580000000  0.4788630000000  0.5365750000000 1.0
C      1  0.4987370000000  0.5287400000000  0.5854960000000 1.0
C      1  0.5149350000000  0.4524490000000  0.5565930000000 1.0
C      1  0.5479380000000  0.5553230000000  0.5217550000000 1.0
C      1  0.5384920000000  0.5226060000000  0.5593270000000 1.0
C      1  0.5096350000000  0.4797100000000  0.5639330000000 1.0
C      1  0.4637760000000  0.5104040000000  0.4378240000000 1.0
C      1  0.4548230000000  0.4477590000000  0.4698080000000 1.0
C      1  0.5684970000000  0.5235610000000  0.4758920000000 1.0
C      1  0.5155090000000  0.4142650000000  0.5179370000000 1.0
C      1  0.4327300000000  0.5341800000000  0.5296360000000 1.0
C      1  0.4434590000000  0.5607000000000  0.5213750000000 1.0
C      1  0.4937570000000  0.4831540000000  0.4821990000000 1.0
C      1  0.5122450000000  0.4696090000000  0.4982180000000 1.0
C      1  0.5756710000000  0.5181770000000  0.5289870000000 1.0
C      1  0.4886320000000  0.5786310000000  0.4998600000000 1.0
C      1  0.4725350000000  0.5651560000000  0.5216730000000 1.0
C      1  0.4300980000000  0.5699200000000  0.4978780000000 1.0
C      1  0.4345330000000  0.5459990000000  0.4653580000000 1.0
C      1  0.4858000000000  0.4769520000000  0.5106190000000 1.0
C      1  0.5777650000000  0.4762850000000  0.4791610000000 1.0
C      1  0.5036630000000  0.5416200000000  0.4419660000000 1.0
C      1  0.5855560000000  0.4879620000000  0.5031230000000 1.0
C      1  0.5103080000000  0.5634400000000  0.5534790000000 1.0
C      1  0.5379720000000  0.4502550000000  0.5397700000000 1.0
C      1  0.5180180000000  0.5397530000000  0.5696550000000 1.0
C      1  0.4563920000000  0.4401980000000  0.4983130000000 1.0
C      1  0.4165070000000  0.5460960000000  0.4876020000000 1.0
C      1  0.4574130000000  0.4635970000000  0.5195300000000 1.0
C      1  0.4578540000000  0.4827790000000  0.4371170000000 1.0
C      1  0.5459280000000  0.4609200000000  0.4490920000000 1.0
C      1  0.4758330000000  0.4419790000000  0.4495150000000 1.0
C      1  0.5563290000000  0.5344150000000  0.5397120000000 1.0
C      1  0.5008120000000  0.5095950000000  0.4785700000000 1.0
C      1  0.5389420000000  0.4302630000000  0.5187300000000 1.0
C      1  0.4824380000000  0.5659020000000  0.5490510000000 1.0
C      1  0.5029580000000  0.4319660000000  0.4502090000000 1.0
C      1  0.4420160000000  0.5088040000000  0.5427020000000 1.0
C      1  0.5518660000000  0.4318080000000  0.4911000000000 1.0
C      1  0.4994750000000  0.5208070000000  0.5217550000000 1.0
C      1  0.5251880000000  0.5698250000000  0.5308410000000 1.0
END
