TITL C-92093-9469-4 -0.150271862438992 125000 -760.236357322608 0 0 108 (C1) n - 1
REM
REM in /rds/project/t2_vol4/rds-t2-cs072/BORA/CARBON/from-Arr/AIRSS/Generating-Clusters/GAP-ML-2020/Only-C1/SD-CG/HFTN-CG
REM
REM
REM
REM
REM
REM ./C.cell (11c1c37f851c82e70ff6c80c92926a4b)
REM AIRSS Version 0.9.1 bugfix July 2018 build 013d7b7c2542+ Fri, 06 Jul 2018 19:26:36 +0100
REM compiler GCC version 9.3.0
REM options -cpp -mtune=generic -march=x86-64 -g -O0
REM seed -309243075 2023076694 -1928429106 -962309369 -1131980337 -628470397 -1728493290 1505384524 1353249711 -738973871 -61857761 -1671472563 45160922 548778260 808378139 -15900918 690128389 -779139031 622595237 2002216183 1354501416 -719416864 -1178630513 -990165727 -744341138 1570405071 1538730543 1891291406 1304799367 343528009 1994507259 -55701975 -25441699
REM
CELL 1.54180   50.00000   50.00000   50.00000   90.00000   90.00000   90.00000
LATT -1
SFAC C  
C      1  0.4609770000000  0.4816990000000  0.5254200000000 1.0
C      1  0.5275410000000  0.4910410000000  0.5112060000000 1.0
C      1  0.4923420000000  0.4490280000000  0.5626110000000 1.0
C      1  0.4619220000000  0.4487940000000  0.4299120000000 1.0
C      1  0.4416440000000  0.4600920000000  0.5318370000000 1.0
C      1  0.4828770000000  0.4107680000000  0.5001780000000 1.0
C      1  0.5040560000000  0.5608180000000  0.4474950000000 1.0
C      1  0.4823160000000  0.4914350000000  0.5419220000000 1.0
C      1  0.4870910000000  0.5794960000000  0.5519950000000 1.0
C      1  0.4577480000000  0.5401670000000  0.4455490000000 1.0
C      1  0.4572210000000  0.5400970000000  0.4747220000000 1.0
C      1  0.4332550000000  0.4989750000000  0.5674330000000 1.0
C      1  0.5377020000000  0.5590690000000  0.5457770000000 1.0
C      1  0.5044920000000  0.5032520000000  0.4635880000000 1.0
C      1  0.5231800000000  0.5080410000000  0.5342000000000 1.0
C      1  0.5008980000000  0.4257450000000  0.4333070000000 1.0
C      1  0.4621330000000  0.5075810000000  0.4820100000000 1.0
C      1  0.5320130000000  0.5344880000000  0.4995230000000 1.0
C      1  0.5474450000000  0.5765480000000  0.4980700000000 1.0
C      1  0.4325000000000  0.5473750000000  0.4893580000000 1.0
C      1  0.4820320000000  0.4134960000000  0.4513370000000 1.0
C      1  0.5485520000000  0.5538820000000  0.4803570000000 1.0
C      1  0.4942970000000  0.5172890000000  0.5918910000000 1.0
C      1  0.4939220000000  0.5269940000000  0.4164770000000 1.0
C      1  0.4906150000000  0.5071780000000  0.4884890000000 1.0
C      1  0.5314420000000  0.5044620000000  0.4646880000000 1.0
C      1  0.4830210000000  0.4396580000000  0.5364000000000 1.0
C      1  0.4825620000000  0.5465100000000  0.4342170000000 1.0
C      1  0.4867270000000  0.4683100000000  0.5213260000000 1.0
C      1  0.5197070000000  0.5838540000000  0.4936000000000 1.0
C      1  0.4576820000000  0.4243290000000  0.5004370000000 1.0
C      1  0.5583570000000  0.4806990000000  0.4323540000000 1.0
C      1  0.5696720000000  0.5275630000000  0.5356350000000 1.0
C      1  0.4426450000000  0.5247340000000  0.5773600000000 1.0
C      1  0.5412260000000  0.5080160000000  0.4913030000000 1.0
C      1  0.5398190000000  0.5332560000000  0.5293130000000 1.0
C      1  0.5304880000000  0.4823600000000  0.4188060000000 1.0
C      1  0.4584620000000  0.4290400000000  0.4507100000000 1.0
C      1  0.5046010000000  0.4767150000000  0.5006040000000 1.0
C      1  0.4990010000000  0.5309990000000  0.5045010000000 1.0
C      1  0.4478850000000  0.4365550000000  0.4760780000000 1.0
C      1  0.4566440000000  0.4978960000000  0.4221420000000 1.0
C      1  0.5217410000000  0.5322140000000  0.4157000000000 1.0
C      1  0.5270580000000  0.4215200000000  0.5201550000000 1.0
C      1  0.4656690000000  0.5731860000000  0.5084590000000 1.0
C      1  0.4330380000000  0.5450890000000  0.5351580000000 1.0
C      1  0.4473200000000  0.5004000000000  0.5070910000000 1.0
C      1  0.4807060000000  0.5896340000000  0.5251610000000 1.0
C      1  0.4609050000000  0.4813300000000  0.4638790000000 1.0
C      1  0.4805130000000  0.5548300000000  0.4901020000000 1.0
C      1  0.4145500000000  0.5265150000000  0.4968000000000 1.0
C      1  0.4846250000000  0.4772620000000  0.5702280000000 1.0
C      1  0.5374840000000  0.5097050000000  0.4113800000000 1.0
C      1  0.4654670000000  0.5138580000000  0.5917450000000 1.0
C      1  0.5587970000000  0.5707890000000  0.5240740000000 1.0
C      1  0.5054220000000  0.4920500000000  0.5865570000000 1.0
C      1  0.4986160000000  0.4191130000000  0.5221810000000 1.0
C      1  0.5223120000000  0.4093980000000  0.4731200000000 1.0
C      1  0.4924900000000  0.5390670000000  0.5580770000000 1.0
C      1  0.4580010000000  0.4882030000000  0.5813710000000 1.0
C      1  0.4893200000000  0.4483320000000  0.4199050000000 1.0
C      1  0.5376920000000  0.5376060000000  0.5717300000000 1.0
C      1  0.4251040000000  0.4811950000000  0.4950690000000 1.0
C      1  0.4953380000000  0.5180480000000  0.5347100000000 1.0
C      1  0.5245350000000  0.4246500000000  0.4488470000000 1.0
C      1  0.5700440000000  0.5039450000000  0.5510980000000 1.0
C      1  0.5334690000000  0.4897040000000  0.5819970000000 1.0
C      1  0.5723100000000  0.4787560000000  0.5348290000000 1.0
C      1  0.5520780000000  0.5480230000000  0.4523720000000 1.0
C      1  0.4186220000000  0.4967200000000  0.5421830000000 1.0
C      1  0.5780960000000  0.4808150000000  0.5059270000000 1.0
C      1  0.5371310000000  0.4371500000000  0.5414090000000 1.0
C      1  0.5732100000000  0.4797320000000  0.4577880000000 1.0
C      1  0.4418160000000  0.5185030000000  0.4359940000000 1.0
C      1  0.5398950000000  0.4649230000000  0.5711640000000 1.0
C      1  0.4948220000000  0.4039010000000  0.4756000000000 1.0
C      1  0.5069470000000  0.4610460000000  0.4751070000000 1.0
C      1  0.5622930000000  0.5089520000000  0.4248140000000 1.0
C      1  0.5810070000000  0.5530440000000  0.5237330000000 1.0
C      1  0.5717970000000  0.4636030000000  0.4828900000000 1.0
C      1  0.5855350000000  0.5295220000000  0.5112480000000 1.0
C      1  0.4136020000000  0.5044670000000  0.4781550000000 1.0
C      1  0.5200510000000  0.4456380000000  0.5631920000000 1.0
C      1  0.5700170000000  0.5255640000000  0.4457840000000 1.0
C      1  0.5011720000000  0.5705190000000  0.4740940000000 1.0
C      1  0.5317990000000  0.4491220000000  0.4624980000000 1.0
C      1  0.4248490000000  0.5191380000000  0.5239620000000 1.0
C      1  0.5771050000000  0.5081110000000  0.4938720000000 1.0
C      1  0.5387390000000  0.4204270000000  0.4937440000000 1.0
C      1  0.5089090000000  0.5904970000000  0.5183320000000 1.0
C      1  0.4925390000000  0.4774660000000  0.4562520000000 1.0
C      1  0.4834850000000  0.5005990000000  0.4148060000000 1.0
C      1  0.5500450000000  0.5111940000000  0.5718080000000 1.0
C      1  0.5806710000000  0.5063990000000  0.4647360000000 1.0
C      1  0.4717350000000  0.5583320000000  0.5623430000000 1.0
C      1  0.4454730000000  0.5477070000000  0.5604340000000 1.0
C      1  0.4510680000000  0.4738760000000  0.4358410000000 1.0
C      1  0.5561760000000  0.4588040000000  0.5479680000000 1.0
C      1  0.4550570000000  0.4363120000000  0.5262970000000 1.0
C      1  0.4406540000000  0.5608940000000  0.5128400000000 1.0
C      1  0.5015540000000  0.4760950000000  0.4229190000000 1.0
C      1  0.5532440000000  0.4423000000000  0.4807160000000 1.0
C      1  0.4416170000000  0.4640820000000  0.4777220000000 1.0
C      1  0.4217460000000  0.5099480000000  0.4533450000000 1.0
C      1  0.5159050000000  0.5784870000000  0.5443400000000 1.0
C      1  0.5113040000000  0.5380950000000  0.5804390000000 1.0
C      1  0.5290710000000  0.5515330000000  0.4356880000000 1.0
C      1  0.4179230000000  0.4737580000000  0.5240850000000 1.0
END
