TITL C-92890-3694-8 -0.129358393676126 125000 -267.161043053252 0 0 40 (C1) n - 1
REM
REM in /rds/project/t2_vol4/rds-t2-cs072/BORA/CARBON/from-Arr/AIRSS/Generating-Clusters/GAP-ML-2020/Only-C1/SD-CG/HFTN-CG
REM
REM
REM
REM
REM
REM ./C.cell (11c1c37f851c82e70ff6c80c92926a4b)
REM AIRSS Version 0.9.1 bugfix July 2018 build 013d7b7c2542+ Fri, 06 Jul 2018 19:26:36 +0100
REM compiler GCC version 9.3.0
REM options -cpp -mtune=generic -march=x86-64 -g -O0
REM seed 305077830 70889324 453076207 454427973 2095043468 -1004743029 1147988970 -71293571 -308692902 209390915 -560651185 1174495720 401728846 170107291 -1641409146 1779750656 549785704 1637005451 -19268222 1821538975 34572381 -662007098 1603062533 -234625757 -844948959 -1507336815 -1726819419 -962472262 -1488837199 -2009009811 -1344823887 829148705 1243000817
REM
CELL 1.54180   50.00000   50.00000   50.00000   90.00000   90.00000   90.00000
LATT -1
SFAC C  
C      1  0.5080590000000  0.4689040000000  0.5270290000000 1.0
C      1  0.5014410000000  0.5412490000000  0.4738740000000 1.0
C      1  0.4976620000000  0.4975680000000  0.5258960000000 1.0
C      1  0.4836800000000  0.5062220000000  0.5504380000000 1.0
C      1  0.4820810000000  0.5022530000000  0.5026450000000 1.0
C      1  0.5369070000000  0.5352030000000  0.5067220000000 1.0
C      1  0.4498550000000  0.5106110000000  0.4693530000000 1.0
C      1  0.4605430000000  0.4639450000000  0.5258560000000 1.0
C      1  0.5184740000000  0.4556800000000  0.4601510000000 1.0
C      1  0.5404790000000  0.5176090000000  0.4620210000000 1.0
C      1  0.4590410000000  0.4828000000000  0.5050730000000 1.0
C      1  0.4936320000000  0.4410380000000  0.4913940000000 1.0
C      1  0.4864310000000  0.5633240000000  0.4611520000000 1.0
C      1  0.4797310000000  0.5320820000000  0.4999400000000 1.0
C      1  0.4637130000000  0.4701140000000  0.5519220000000 1.0
C      1  0.4946940000000  0.5149170000000  0.4570730000000 1.0
C      1  0.4756340000000  0.4732570000000  0.4646980000000 1.0
C      1  0.5195790000000  0.5479020000000  0.5252800000000 1.0
C      1  0.5218980000000  0.5336770000000  0.5500930000000 1.0
C      1  0.5487350000000  0.4923320000000  0.4718010000000 1.0
C      1  0.4519380000000  0.4832120000000  0.4775450000000 1.0
C      1  0.5384510000000  0.5101490000000  0.5455790000000 1.0
C      1  0.4624800000000  0.5507050000000  0.4586540000000 1.0
C      1  0.5299400000000  0.5366250000000  0.4794460000000 1.0
C      1  0.5220120000000  0.4475900000000  0.4873680000000 1.0
C      1  0.5300170000000  0.4654980000000  0.5071560000000 1.0
C      1  0.4857850000000  0.4544010000000  0.5147220000000 1.0
C      1  0.5456880000000  0.4877560000000  0.4997430000000 1.0
C      1  0.4663900000000  0.5214330000000  0.4485050000000 1.0
C      1  0.4539630000000  0.5356690000000  0.4838820000000 1.0
C      1  0.5198800000000  0.5052940000000  0.4446510000000 1.0
C      1  0.4887100000000  0.4495060000000  0.4637600000000 1.0
C      1  0.4942450000000  0.4929690000000  0.4776470000000 1.0
C      1  0.4927980000000  0.5322870000000  0.5514760000000 1.0
C      1  0.5301810000000  0.4787050000000  0.4522350000000 1.0
C      1  0.4842110000000  0.4819740000000  0.5652980000000 1.0
C      1  0.5333110000000  0.4881330000000  0.5608120000000 1.0
C      1  0.4906830000000  0.5453940000000  0.5243820000000 1.0
C      1  0.5453600000000  0.5102410000000  0.5174070000000 1.0
C      1  0.5116870000000  0.4717730000000  0.5573180000000 1.0
END
