TITL C-92884-3683-7 -0.101374089237443 125000 -678.798279400899 0 0 95 (C1) n - 1
REM
REM in /rds/project/t2_vol4/rds-t2-cs072/BORA/CARBON/from-Arr/AIRSS/Generating-Clusters/GAP-ML-2020/Only-C1/SD-CG/HFTN-CG
REM
REM
REM
REM
REM
REM ./C.cell (11c1c37f851c82e70ff6c80c92926a4b)
REM AIRSS Version 0.9.1 bugfix July 2018 build 013d7b7c2542+ Fri, 06 Jul 2018 19:26:36 +0100
REM compiler GCC version 9.3.0
REM options -cpp -mtune=generic -march=x86-64 -g -O0
REM seed 1570342593 1775346639 1797422999 -664609752 -1860165697 769083650 1423785248 -4066971 -112590057 984671652 2068266854 -22086020 1605152554 -1914202144 1160114678 123054997 -1944463044 -105566911 -743205392 -1844333129 573237840 -213975405 -284401136 1844143397 1812268068 -1470327616 -892763508 -1193951921 1560441966 2072682946 -854301306 705780100 585199047
REM
CELL 1.54180   50.00000   50.00000   50.00000   90.00000   90.00000   90.00000
LATT -1
SFAC C  
C      1  0.5734830000000  0.5237280000000  0.5060230000000 1.0
C      1  0.4646350000000  0.4280850000000  0.5099250000000 1.0
C      1  0.5357260000000  0.5174190000000  0.4164390000000 1.0
C      1  0.5101770000000  0.4247320000000  0.5239260000000 1.0
C      1  0.5205440000000  0.5156190000000  0.5192880000000 1.0
C      1  0.4940750000000  0.4128780000000  0.4681740000000 1.0
C      1  0.5681440000000  0.5049010000000  0.5547780000000 1.0
C      1  0.4459550000000  0.5017030000000  0.4397610000000 1.0
C      1  0.4367500000000  0.4605840000000  0.5353090000000 1.0
C      1  0.4708950000000  0.5793800000000  0.5197470000000 1.0
C      1  0.4993050000000  0.5282650000000  0.4869350000000 1.0
C      1  0.4744760000000  0.5053290000000  0.5800500000000 1.0
C      1  0.5468470000000  0.4742110000000  0.4543240000000 1.0
C      1  0.5793350000000  0.4692520000000  0.5111570000000 1.0
C      1  0.5042910000000  0.4667970000000  0.5674630000000 1.0
C      1  0.5261900000000  0.4276080000000  0.4448370000000 1.0
C      1  0.5653020000000  0.4952610000000  0.5014100000000 1.0
C      1  0.4747430000000  0.5201520000000  0.4971360000000 1.0
C      1  0.5143800000000  0.5682330000000  0.5197100000000 1.0
C      1  0.5441080000000  0.4155340000000  0.4864330000000 1.0
C      1  0.4791230000000  0.5704600000000  0.5461420000000 1.0
C      1  0.4986070000000  0.4905650000000  0.5820570000000 1.0
C      1  0.5098120000000  0.5356360000000  0.5804330000000 1.0
C      1  0.5432030000000  0.4966190000000  0.5696010000000 1.0
C      1  0.4893740000000  0.5759820000000  0.4562660000000 1.0
C      1  0.5208670000000  0.5091760000000  0.5821080000000 1.0
C      1  0.4330920000000  0.5503860000000  0.5245010000000 1.0
C      1  0.4576460000000  0.4383890000000  0.4595650000000 1.0
C      1  0.5622650000000  0.4352540000000  0.4739550000000 1.0
C      1  0.5760230000000  0.4632670000000  0.5392920000000 1.0
C      1  0.4188950000000  0.5288520000000  0.5126550000000 1.0
C      1  0.4978110000000  0.4267150000000  0.4420000000000 1.0
C      1  0.5084310000000  0.4798160000000  0.4310160000000 1.0
C      1  0.4314370000000  0.4841470000000  0.4568050000000 1.0
C      1  0.5700400000000  0.4830220000000  0.4714310000000 1.0
C      1  0.4849100000000  0.5141150000000  0.4168650000000 1.0
C      1  0.5252740000000  0.5387050000000  0.4539850000000 1.0
C      1  0.4954310000000  0.5839450000000  0.5049360000000 1.0
C      1  0.5200070000000  0.5423690000000  0.5044900000000 1.0
C      1  0.5656960000000  0.5391160000000  0.4816410000000 1.0
C      1  0.4406230000000  0.4420960000000  0.5135310000000 1.0
C      1  0.4359620000000  0.5411720000000  0.4675550000000 1.0
C      1  0.5494340000000  0.4542070000000  0.5467330000000 1.0
C      1  0.4762080000000  0.4438940000000  0.4378850000000 1.0
C      1  0.4985660000000  0.5526270000000  0.4431680000000 1.0
C      1  0.5476210000000  0.5311680000000  0.4366200000000 1.0
C      1  0.5859370000000  0.4837490000000  0.5549120000000 1.0
C      1  0.4822680000000  0.4690250000000  0.4261760000000 1.0
C      1  0.4360300000000  0.4556710000000  0.4647420000000 1.0
C      1  0.4820220000000  0.4535380000000  0.5529270000000 1.0
C      1  0.4195190000000  0.5075280000000  0.5319000000000 1.0
C      1  0.4628900000000  0.5771400000000  0.4619720000000 1.0
C      1  0.4265010000000  0.4526810000000  0.4909590000000 1.0
C      1  0.5388280000000  0.5522170000000  0.4800900000000 1.0
C      1  0.5728580000000  0.5289510000000  0.5343780000000 1.0
C      1  0.5074890000000  0.4706660000000  0.4842880000000 1.0
C      1  0.4813570000000  0.5333230000000  0.5782620000000 1.0
C      1  0.5473570000000  0.4458450000000  0.4515590000000 1.0
C      1  0.4563440000000  0.4671720000000  0.5545990000000 1.0
C      1  0.4658970000000  0.5514260000000  0.5624600000000 1.0
C      1  0.5331520000000  0.4453110000000  0.5244790000000 1.0
C      1  0.4818530000000  0.4765380000000  0.4920550000000 1.0
C      1  0.5339160000000  0.4184470000000  0.5124060000000 1.0
C      1  0.5838330000000  0.5033410000000  0.4573360000000 1.0
C      1  0.5504060000000  0.5587470000000  0.5616130000000 1.0
C      1  0.5070720000000  0.5691030000000  0.5469350000000 1.0
C      1  0.4529350000000  0.4939980000000  0.5660370000000 1.0
C      1  0.4176430000000  0.4966090000000  0.4781670000000 1.0
C      1  0.5191840000000  0.4853190000000  0.4600740000000 1.0
C      1  0.4501820000000  0.5297060000000  0.4452280000000 1.0
C      1  0.5371980000000  0.4941290000000  0.5108420000000 1.0
C      1  0.5334120000000  0.4699670000000  0.5634210000000 1.0
C      1  0.4670580000000  0.4926330000000  0.4228130000000 1.0
C      1  0.5231830000000  0.5571140000000  0.5665120000000 1.0
C      1  0.4145490000000  0.4768920000000  0.4982250000000 1.0
C      1  0.4360500000000  0.5136540000000  0.5536320000000 1.0
C      1  0.5247430000000  0.4694320000000  0.5071140000000 1.0
C      1  0.4758930000000  0.4962730000000  0.5105010000000 1.0
C      1  0.5318780000000  0.5796190000000  0.4764510000000 1.0
C      1  0.4188930000000  0.4808040000000  0.5252920000000 1.0
C      1  0.5230730000000  0.4100160000000  0.4687040000000 1.0
C      1  0.5120700000000  0.5042900000000  0.4160390000000 1.0
C      1  0.5138390000000  0.5145790000000  0.4664880000000 1.0
C      1  0.5053260000000  0.5859640000000  0.4781310000000 1.0
C      1  0.4952420000000  0.5069900000000  0.5286010000000 1.0
C      1  0.4200110000000  0.5241870000000  0.4844510000000 1.0
C      1  0.4459630000000  0.5653720000000  0.4792170000000 1.0
C      1  0.4430280000000  0.5410280000000  0.5500660000000 1.0
C      1  0.4769790000000  0.5364110000000  0.4328890000000 1.0
C      1  0.4467730000000  0.5693010000000  0.5082290000000 1.0
C      1  0.4706050000000  0.4228490000000  0.4811000000000 1.0
C      1  0.5773150000000  0.4569310000000  0.4860890000000 1.0
C      1  0.5705340000000  0.5544140000000  0.5469080000000 1.0
C      1  0.4844900000000  0.4328310000000  0.5312760000000 1.0
C      1  0.5707030000000  0.5268940000000  0.4553970000000 1.0
END
