TITL C-92899-3756-12 -0.199050018405332 125000 -636.64499664237 0 0 92 (C1) n - 1
REM
REM in /rds/project/t2_vol4/rds-t2-cs072/BORA/CARBON/from-Arr/AIRSS/Generating-Clusters/GAP-ML-2020/Only-C1/SD-CG/HFTN-CG
REM
REM
REM
REM
REM
REM ./C.cell (11c1c37f851c82e70ff6c80c92926a4b)
REM AIRSS Version 0.9.1 bugfix July 2018 build 013d7b7c2542+ Fri, 06 Jul 2018 19:26:36 +0100
REM compiler GCC version 9.3.0
REM options -cpp -mtune=generic -march=x86-64 -g -O0
REM seed 361160423 1693592856 -766356396 -2002181370 1782602061 732496151 589193235 -804806892 -924897186 1887536868 1985039780 -2066577993 -1550204346 -1223502900 782118535 1811173940 1018695813 -1915406258 623901020 205646942 680927249 1086892716 1630178768 134570334 1533291273 379970399 -205998891 -2136077199 -874114344 -1564836473 -1460432620 1969458347 -277241655
REM
CELL 1.54180   50.00000   50.00000   50.00000   90.00000   90.00000   90.00000
LATT -1
SFAC C  
C      1  0.4312160000000  0.5223250000000  0.4879120000000 1.0
C      1  0.4838780000000  0.5201030000000  0.4197200000000 1.0
C      1  0.4224580000000  0.4649720000000  0.5217300000000 1.0
C      1  0.4837180000000  0.5050900000000  0.5387260000000 1.0
C      1  0.5428540000000  0.5041750000000  0.5741230000000 1.0
C      1  0.5712600000000  0.5447220000000  0.4957960000000 1.0
C      1  0.4190470000000  0.5091690000000  0.5353380000000 1.0
C      1  0.5630980000000  0.4743660000000  0.4482630000000 1.0
C      1  0.5574750000000  0.4868940000000  0.5355990000000 1.0
C      1  0.5149830000000  0.4373960000000  0.4774900000000 1.0
C      1  0.4791650000000  0.5834320000000  0.4610240000000 1.0
C      1  0.5233040000000  0.5646030000000  0.4578170000000 1.0
C      1  0.4420480000000  0.5269950000000  0.4389760000000 1.0
C      1  0.5098720000000  0.4807270000000  0.5080710000000 1.0
C      1  0.5176680000000  0.5102160000000  0.5859800000000 1.0
C      1  0.4682640000000  0.5016270000000  0.5140220000000 1.0
C      1  0.4256390000000  0.4684350000000  0.4756040000000 1.0
C      1  0.5247020000000  0.4560430000000  0.4214940000000 1.0
C      1  0.4756120000000  0.4663510000000  0.4480160000000 1.0
C      1  0.4915420000000  0.5878130000000  0.4872470000000 1.0
C      1  0.4841660000000  0.4484430000000  0.5706820000000 1.0
C      1  0.5627070000000  0.5242320000000  0.5577300000000 1.0
C      1  0.4810420000000  0.4825090000000  0.4985160000000 1.0
C      1  0.5500800000000  0.4745620000000  0.5766970000000 1.0
C      1  0.5062500000000  0.4829920000000  0.5367040000000 1.0
C      1  0.5337700000000  0.5129700000000  0.4240810000000 1.0
C      1  0.5491100000000  0.5090870000000  0.4940080000000 1.0
C      1  0.4544380000000  0.5528720000000  0.4382990000000 1.0
C      1  0.4532850000000  0.4815210000000  0.4359220000000 1.0
C      1  0.4311540000000  0.4855130000000  0.4544000000000 1.0
C      1  0.5522940000000  0.5554780000000  0.5154880000000 1.0
C      1  0.4828390000000  0.5383450000000  0.4937700000000 1.0
C      1  0.5736510000000  0.4708760000000  0.4762890000000 1.0
C      1  0.4267610000000  0.4826630000000  0.5441810000000 1.0
C      1  0.4966290000000  0.5339950000000  0.5395500000000 1.0
C      1  0.4993460000000  0.5029810000000  0.4650270000000 1.0
C      1  0.4288890000000  0.5279740000000  0.5522640000000 1.0
C      1  0.5271180000000  0.5657020000000  0.5075290000000 1.0
C      1  0.4997180000000  0.5541340000000  0.5166240000000 1.0
C      1  0.5253370000000  0.4647960000000  0.4826160000000 1.0
C      1  0.4428110000000  0.4468550000000  0.4829090000000 1.0
C      1  0.4975860000000  0.5676380000000  0.4437210000000 1.0
C      1  0.5765160000000  0.5150980000000  0.5058720000000 1.0
C      1  0.5267490000000  0.4373260000000  0.5584950000000 1.0
C      1  0.4532320000000  0.5762480000000  0.4537270000000 1.0
C      1  0.5207840000000  0.4839020000000  0.4584040000000 1.0
C      1  0.5729460000000  0.5108010000000  0.5352370000000 1.0
C      1  0.5004020000000  0.4678480000000  0.5832830000000 1.0
C      1  0.5482270000000  0.5396610000000  0.5394090000000 1.0
C      1  0.4596510000000  0.4534910000000  0.5581220000000 1.0
C      1  0.5471690000000  0.4362010000000  0.5118490000000 1.0
C      1  0.4541690000000  0.5296020000000  0.5622010000000 1.0
C      1  0.4993510000000  0.4307290000000  0.5542640000000 1.0
C      1  0.5527480000000  0.4559780000000  0.4905920000000 1.0
C      1  0.4779750000000  0.4862610000000  0.4706900000000 1.0
C      1  0.5508940000000  0.5571790000000  0.4448520000000 1.0
C      1  0.4658320000000  0.5730550000000  0.5349750000000 1.0
C      1  0.4873730000000  0.4286150000000  0.4791810000000 1.0
C      1  0.5652050000000  0.5441960000000  0.4673540000000 1.0
C      1  0.4818500000000  0.5789350000000  0.5143900000000 1.0
C      1  0.4398810000000  0.4445620000000  0.5128460000000 1.0
C      1  0.5066220000000  0.5029260000000  0.4202830000000 1.0
C      1  0.4583730000000  0.4376610000000  0.5335480000000 1.0
C      1  0.5622320000000  0.4644560000000  0.5521290000000 1.0
C      1  0.4150200000000  0.5074320000000  0.5062270000000 1.0
C      1  0.4587570000000  0.5078460000000  0.4256160000000 1.0
C      1  0.5436330000000  0.5386390000000  0.4253040000000 1.0
C      1  0.4953410000000  0.4180040000000  0.5055030000000 1.0
C      1  0.5453930000000  0.4982280000000  0.4474560000000 1.0
C      1  0.5484190000000  0.5198690000000  0.4675210000000 1.0
C      1  0.5484840000000  0.4562120000000  0.4322420000000 1.0
C      1  0.4836520000000  0.4242970000000  0.5309470000000 1.0
C      1  0.4659920000000  0.4416460000000  0.4660870000000 1.0
C      1  0.4820250000000  0.5478170000000  0.4291270000000 1.0
C      1  0.4583610000000  0.5247890000000  0.5002850000000 1.0
C      1  0.5304180000000  0.4971760000000  0.5461860000000 1.0
C      1  0.5270230000000  0.4584470000000  0.5783130000000 1.0
C      1  0.4690810000000  0.5023360000000  0.5652760000000 1.0
C      1  0.5243380000000  0.5233060000000  0.5341740000000 1.0
C      1  0.4707270000000  0.5501820000000  0.5504240000000 1.0
C      1  0.5226900000000  0.5096150000000  0.5055700000000 1.0
C      1  0.5235700000000  0.4238220000000  0.5016860000000 1.0
C      1  0.5229990000000  0.5348670000000  0.4665670000000 1.0
C      1  0.5049030000000  0.5228330000000  0.4843770000000 1.0
C      1  0.4140430000000  0.4801370000000  0.4993120000000 1.0
C      1  0.4286230000000  0.5138900000000  0.4602290000000 1.0
C      1  0.5048160000000  0.4740200000000  0.4331640000000 1.0
C      1  0.4939460000000  0.4959190000000  0.5835150000000 1.0
C      1  0.5854640000000  0.4929670000000  0.4876080000000 1.0
C      1  0.5188540000000  0.5792260000000  0.4837160000000 1.0
C      1  0.5496750000000  0.4410970000000  0.5406200000000 1.0
C      1  0.4487880000000  0.4790560000000  0.5612920000000 1.0
END
