TITL C-92095-734-3 -0.033690873984747 125000 -272.378474354939 0 0 42 (C1) n - 1
REM
REM in /rds/project/t2_vol4/rds-t2-cs072/BORA/CARBON/from-Arr/AIRSS/Generating-Clusters/GAP-ML-2020/Only-C1/SD-CG/HFTN-CG
REM
REM
REM
REM
REM
REM ./C.cell (11c1c37f851c82e70ff6c80c92926a4b)
REM AIRSS Version 0.9.1 bugfix July 2018 build 013d7b7c2542+ Fri, 06 Jul 2018 19:26:36 +0100
REM compiler GCC version 9.3.0
REM options -cpp -mtune=generic -march=x86-64 -g -O0
REM seed 2039705174 -1483458730 1542989292 1781418811 -1263082556 593190601 -681077466 -1196661724 1519327520 544928390 -535872159 910265907 823868714 1721785600 277270924 1332605339 649828469 434928464 510969696 37657856 552932797 1207265807 -786100075 1617830177 1133103721 1004749593 1873909431 410585367 -1851412432 1667066293 387884142 -1778942437 -1317978789
REM
CELL 1.54180   50.00000   50.00000   50.00000   90.00000   90.00000   90.00000
LATT -1
SFAC C  
C      1  0.4774440000000  0.4709810000000  0.4646520000000 1.0
C      1  0.5574420000000  0.5139240000000  0.4936640000000 1.0
C      1  0.5096850000000  0.5351820000000  0.5019290000000 1.0
C      1  0.4770210000000  0.5434090000000  0.5022340000000 1.0
C      1  0.5339870000000  0.5009190000000  0.4400570000000 1.0
C      1  0.4907400000000  0.4954720000000  0.5289460000000 1.0
C      1  0.5406190000000  0.4477790000000  0.4966370000000 1.0
C      1  0.4474880000000  0.4775780000000  0.5155300000000 1.0
C      1  0.4364040000000  0.4915040000000  0.4600260000000 1.0
C      1  0.5026350000000  0.5317090000000  0.4573010000000 1.0
C      1  0.4729770000000  0.5436670000000  0.5323430000000 1.0
C      1  0.4749960000000  0.4300820000000  0.5052030000000 1.0
C      1  0.5088290000000  0.4681870000000  0.4666100000000 1.0
C      1  0.5481250000000  0.4673480000000  0.5145270000000 1.0
C      1  0.4342340000000  0.4586390000000  0.5055890000000 1.0
C      1  0.4535540000000  0.4426110000000  0.4912940000000 1.0
C      1  0.4597720000000  0.4501490000000  0.4658460000000 1.0
C      1  0.5231560000000  0.5552750000000  0.4839170000000 1.0
C      1  0.5292220000000  0.5270530000000  0.4483830000000 1.0
C      1  0.5096170000000  0.5203800000000  0.5267520000000 1.0
C      1  0.4719990000000  0.5141760000000  0.4909230000000 1.0
C      1  0.5198530000000  0.5419440000000  0.5608100000000 1.0
C      1  0.4768880000000  0.5628890000000  0.4820180000000 1.0
C      1  0.5430170000000  0.5412430000000  0.4689430000000 1.0
C      1  0.4971660000000  0.4452130000000  0.5047500000000 1.0
C      1  0.5175860000000  0.4436530000000  0.4834230000000 1.0
C      1  0.5233210000000  0.4901110000000  0.5567190000000 1.0
C      1  0.4592940000000  0.5208630000000  0.5420350000000 1.0
C      1  0.4929060000000  0.4913930000000  0.5581960000000 1.0
C      1  0.4988590000000  0.5591370000000  0.4661040000000 1.0
C      1  0.4723360000000  0.5068050000000  0.5645440000000 1.0
C      1  0.5284070000000  0.4726040000000  0.5345220000000 1.0
C      1  0.5255390000000  0.4771060000000  0.4433390000000 1.0
C      1  0.5289590000000  0.5175390000000  0.5493750000000 1.0
C      1  0.4983000000000  0.5447650000000  0.5452090000000 1.0
C      1  0.4628800000000  0.5007680000000  0.5175390000000 1.0
C      1  0.5156230000000  0.4875900000000  0.4888850000000 1.0
C      1  0.5671280000000  0.5339360000000  0.4806140000000 1.0
C      1  0.5015930000000  0.5144120000000  0.4822880000000 1.0
C      1  0.4612690000000  0.4974490000000  0.4677840000000 1.0
C      1  0.5050110000000  0.4740870000000  0.5145900000000 1.0
C      1  0.5441180000000  0.4904680000000  0.4959490000000 1.0
END
