TITL C-92896-3852-5 33.1676499672736 125000 -178.263330782617 0 0 28 (C1) n - 1
REM
REM in /rds/project/t2_vol4/rds-t2-cs072/BORA/CARBON/from-Arr/AIRSS/Generating-Clusters/GAP-ML-2020/Only-C1/SD-CG/HFTN-CG
REM
REM
REM
REM
REM
REM ./C.cell (11c1c37f851c82e70ff6c80c92926a4b)
REM AIRSS Version 0.9.1 bugfix July 2018 build 013d7b7c2542+ Fri, 06 Jul 2018 19:26:36 +0100
REM compiler GCC version 9.3.0
REM options -cpp -mtune=generic -march=x86-64 -g -O0
REM seed -1269462728 1916546238 788340567 -811595716 686131071 987283266 -681363208 388248948 1116568891 268016162 1610492422 303345436 815955850 -1709307441 638133130 -699892633 1229611611 -1155047790 436094420 144125958 -214817358 1295741246 -1736802872 -2072849995 2081618132 1778237962 1944760523 -2122659734 830069961 -208670893 2105683985 -159763324 -1275255811
REM
CELL 1.54180   50.00000   50.00000   50.00000   90.00000   90.00000   90.00000
LATT -1
SFAC C  
C      1  0.4938410000000  0.4901240000000  0.5554180000000 1.0
C      1  0.5397890000000  0.5229830000000  0.5017050000000 1.0
C      1  0.4727240000000  0.4796790000000  0.4865350000000 1.0
C      1  0.5235100000000  0.4659740000000  0.5257120000000 1.0
C      1  0.4862190000000  0.5330900000000  0.5293840000000 1.0
C      1  0.5180870000000  0.4983650000000  0.4667630000000 1.0
C      1  0.5336150000000  0.4899940000000  0.5366900000000 1.0
C      1  0.4967910000000  0.5425560000000  0.5042540000000 1.0
C      1  0.4735070000000  0.4532790000000  0.4981290000000 1.0
C      1  0.5143520000000  0.5264250000000  0.4624220000000 1.0
C      1  0.5240950000000  0.5042780000000  0.5146280000000 1.0
C      1  0.5528650000000  0.5019810000000  0.4897310000000 1.0
C      1  0.4979550000000  0.5402000000000  0.4440040000000 1.0
C      1  0.5193210000000  0.5376660000000  0.4884050000000 1.0
C      1  0.5095560000000  0.4416540000000  0.4866220000000 1.0
C      1  0.5179600000000  0.5026040000000  0.5576630000000 1.0
C      1  0.4548000000000  0.5274260000000  0.4853390000000 1.0
C      1  0.4700470000000  0.5384020000000  0.5072680000000 1.0
C      1  0.4748100000000  0.5464240000000  0.4531930000000 1.0
C      1  0.4960030000000  0.4690290000000  0.5350770000000 1.0
C      1  0.4572560000000  0.5002160000000  0.4821830000000 1.0
C      1  0.4924530000000  0.5186430000000  0.5528970000000 1.0
C      1  0.5231480000000  0.4640880000000  0.4960000000000 1.0
C      1  0.4855250000000  0.4321740000000  0.4825900000000 1.0
C      1  0.4750580000000  0.4551140000000  0.5254520000000 1.0
C      1  0.5404220000000  0.4824810000000  0.4756870000000 1.0
C      1  0.5051020000000  0.4895890000000  0.4921130000000 1.0
C      1  0.4511870000000  0.5455620000000  0.4641350000000 1.0
END
