TITL C-92888-3862-10 -0.108041992926956 125000 -223.435051242915 0 0 34 (C1) n - 1
REM
REM in /rds/project/t2_vol4/rds-t2-cs072/BORA/CARBON/from-Arr/AIRSS/Generating-Clusters/GAP-ML-2020/Only-C1/SD-CG/HFTN-CG
REM
REM
REM
REM
REM
REM ./C.cell (11c1c37f851c82e70ff6c80c92926a4b)
REM AIRSS Version 0.9.1 bugfix July 2018 build 013d7b7c2542+ Fri, 06 Jul 2018 19:26:36 +0100
REM compiler GCC version 9.3.0
REM options -cpp -mtune=generic -march=x86-64 -g -O0
REM seed 2092116991 533520312 1796263423 -832526683 1580095076 -1644555624 -1283566329 -1456479774 -1216135860 976696386 -2070086334 -158716711 -1205851946 -741847824 -552015985 92758111 -62959569 684136821 1903217523 1268334855 270329762 -1393570701 364235079 -2114162678 -2092849436 -1339210696 891166351 753783172 -218771363 -1958822939 423679957 2132357425 -760519636
REM
CELL 1.54180   50.00000   50.00000   50.00000   90.00000   90.00000   90.00000
LATT -1
SFAC C  
C      1  0.4619710000000  0.4600000000000  0.4998840000000 1.0
C      1  0.4786870000000  0.4550930000000  0.4748720000000 1.0
C      1  0.5320980000000  0.5270770000000  0.4689490000000 1.0
C      1  0.5061710000000  0.4606730000000  0.4698770000000 1.0
C      1  0.5320320000000  0.5448160000000  0.4914390000000 1.0
C      1  0.4788450000000  0.4770960000000  0.5159460000000 1.0
C      1  0.4896290000000  0.5069140000000  0.4567540000000 1.0
C      1  0.4426770000000  0.5024400000000  0.4811540000000 1.0
C      1  0.5334840000000  0.4616430000000  0.5220300000000 1.0
C      1  0.5542800000000  0.4823530000000  0.5139040000000 1.0
C      1  0.5406680000000  0.5366300000000  0.5167700000000 1.0
C      1  0.5311310000000  0.4541350000000  0.4828970000000 1.0
C      1  0.4776320000000  0.4948260000000  0.5410090000000 1.0
C      1  0.4488350000000  0.5422160000000  0.5164360000000 1.0
C      1  0.5178140000000  0.5026370000000  0.5066080000000 1.0
C      1  0.4477300000000  0.5169780000000  0.5046280000000 1.0
C      1  0.5087320000000  0.4779740000000  0.5207130000000 1.0
C      1  0.5432780000000  0.5084390000000  0.5232460000000 1.0
C      1  0.5028820000000  0.5314780000000  0.4619820000000 1.0
C      1  0.5025630000000  0.5427180000000  0.4877910000000 1.0
C      1  0.4726770000000  0.5053980000000  0.5132490000000 1.0
C      1  0.5195570000000  0.5392890000000  0.5390600000000 1.0
C      1  0.5346120000000  0.4392560000000  0.5058040000000 1.0
C      1  0.5316890000000  0.4993790000000  0.4759580000000 1.0
C      1  0.4682530000000  0.5530770000000  0.5295950000000 1.0
C      1  0.5492070000000  0.4787630000000  0.4850670000000 1.0
C      1  0.4632230000000  0.4978660000000  0.4589640000000 1.0
C      1  0.4587070000000  0.4690510000000  0.4597750000000 1.0
C      1  0.4944410000000  0.5442020000000  0.5280920000000 1.0
C      1  0.5097310000000  0.4870960000000  0.4612870000000 1.0
C      1  0.4409750000000  0.4732670000000  0.4837520000000 1.0
C      1  0.4957820000000  0.5219960000000  0.5078220000000 1.0
C      1  0.5252090000000  0.5118870000000  0.5483380000000 1.0
C      1  0.5047970000000  0.4933380000000  0.5463480000000 1.0
END
