TITL C-92106-2038-3 -5.46931478990351 125000 -519.445590152487 0 0 75 (C1) n - 1
REM
REM in /rds/project/t2_vol4/rds-t2-cs072/BORA/CARBON/from-Arr/AIRSS/Generating-Clusters/GAP-ML-2020/Only-C1/SD-CG/HFTN-CG
REM
REM
REM
REM
REM
REM ./C.cell (11c1c37f851c82e70ff6c80c92926a4b)
REM AIRSS Version 0.9.1 bugfix July 2018 build 013d7b7c2542+ Fri, 06 Jul 2018 19:26:36 +0100
REM compiler GCC version 9.3.0
REM options -cpp -mtune=generic -march=x86-64 -g -O0
REM seed 141197974 -1960261723 1707476832 523978057 -1328667243 -1819023515 -653256268 -1956247220 481409756 669186697 -45888407 -1532830308 -100850377 -1769028358 -863881260 242917023 -1100527899 700464335 -428101854 1740772531 -1094099594 1134197142 819826307 -34105035 -1071303330 -1156716584 922558058 1408287930 640103739 -2089048305 747616980 1975067562 -138698023
REM
CELL 1.54180   50.00000   50.00000   50.00000   90.00000   90.00000   90.00000
LATT -1
SFAC C  
C      1  0.5442850000000  0.5454130000000  0.4547190000000 1.0
C      1  0.5489130000000  0.4401940000000  0.4926940000000 1.0
C      1  0.5579640000000  0.4817200000000  0.4652530000000 1.0
C      1  0.4729890000000  0.4402800000000  0.5316880000000 1.0
C      1  0.4775120000000  0.4362800000000  0.4761940000000 1.0
C      1  0.4170440000000  0.5078420000000  0.5281600000000 1.0
C      1  0.5545960000000  0.5585510000000  0.4991600000000 1.0
C      1  0.4998920000000  0.4282720000000  0.4934830000000 1.0
C      1  0.5637380000000  0.5458250000000  0.4756180000000 1.0
C      1  0.4506470000000  0.4468420000000  0.5133840000000 1.0
C      1  0.4981780000000  0.5013440000000  0.4286230000000 1.0
C      1  0.5455940000000  0.4770770000000  0.5572040000000 1.0
C      1  0.4716630000000  0.4633900000000  0.4360560000000 1.0
C      1  0.4875510000000  0.5534770000000  0.4554750000000 1.0
C      1  0.5099260000000  0.4480220000000  0.4395420000000 1.0
C      1  0.5253380000000  0.4273660000000  0.4816910000000 1.0
C      1  0.5217220000000  0.4605660000000  0.5567520000000 1.0
C      1  0.5475220000000  0.4952490000000  0.4906410000000 1.0
C      1  0.5757110000000  0.5019250000000  0.4984560000000 1.0
C      1  0.5085170000000  0.5261290000000  0.4889120000000 1.0
C      1  0.5780290000000  0.5209300000000  0.4760550000000 1.0
C      1  0.5190100000000  0.5189080000000  0.4362410000000 1.0
C      1  0.5323580000000  0.5193400000000  0.5037700000000 1.0
C      1  0.4469410000000  0.4767770000000  0.5485440000000 1.0
C      1  0.4478850000000  0.4796760000000  0.4740520000000 1.0
C      1  0.5202080000000  0.5182040000000  0.5709690000000 1.0
C      1  0.5423060000000  0.5064350000000  0.5566670000000 1.0
C      1  0.5141270000000  0.5391790000000  0.4582880000000 1.0
C      1  0.4938690000000  0.5009200000000  0.4841240000000 1.0
C      1  0.5269450000000  0.5545900000000  0.5370130000000 1.0
C      1  0.5311830000000  0.5741400000000  0.4956410000000 1.0
C      1  0.5622270000000  0.5192740000000  0.5395220000000 1.0
C      1  0.4568120000000  0.4844240000000  0.4462480000000 1.0
C      1  0.5221270000000  0.4424670000000  0.5347180000000 1.0
C      1  0.4558270000000  0.4516180000000  0.4861020000000 1.0
C      1  0.4534480000000  0.5297460000000  0.4770600000000 1.0
C      1  0.5310690000000  0.4398380000000  0.4553380000000 1.0
C      1  0.4251370000000  0.5203280000000  0.4844930000000 1.0
C      1  0.4581790000000  0.5323380000000  0.5402950000000 1.0
C      1  0.5013750000000  0.4790520000000  0.4998660000000 1.0
C      1  0.5536370000000  0.4544050000000  0.4665370000000 1.0
C      1  0.4873890000000  0.5322170000000  0.5383400000000 1.0
C      1  0.4163270000000  0.4831150000000  0.5123740000000 1.0
C      1  0.4717050000000  0.5090370000000  0.4381850000000 1.0
C      1  0.4645890000000  0.5034540000000  0.4866570000000 1.0
C      1  0.5489190000000  0.5408950000000  0.5224670000000 1.0
C      1  0.5109930000000  0.5408870000000  0.5554510000000 1.0
C      1  0.4733380000000  0.4636100000000  0.5492880000000 1.0
C      1  0.4212190000000  0.5552740000000  0.5187210000000 1.0
C      1  0.4917020000000  0.5440600000000  0.5097180000000 1.0
C      1  0.4658350000000  0.5520620000000  0.4960650000000 1.0
C      1  0.4172330000000  0.5300660000000  0.5097050000000 1.0
C      1  0.4329910000000  0.4643430000000  0.5265690000000 1.0
C      1  0.4984350000000  0.4323250000000  0.5216850000000 1.0
C      1  0.5740830000000  0.4971410000000  0.5261390000000 1.0
C      1  0.4222850000000  0.4910340000000  0.4858640000000 1.0
C      1  0.4668200000000  0.5337440000000  0.4514070000000 1.0
C      1  0.4478080000000  0.5519050000000  0.5211510000000 1.0
C      1  0.5627400000000  0.4713390000000  0.5353280000000 1.0
C      1  0.4984150000000  0.4725370000000  0.4282220000000 1.0
C      1  0.4828570000000  0.4405760000000  0.4491900000000 1.0
C      1  0.4967180000000  0.5038450000000  0.5383110000000 1.0
C      1  0.4606970000000  0.5003210000000  0.5152920000000 1.0
C      1  0.5292660000000  0.4791150000000  0.5085400000000 1.0
C      1  0.5677020000000  0.5051760000000  0.4522500000000 1.0
C      1  0.5099240000000  0.5668610000000  0.5162290000000 1.0
C      1  0.5061180000000  0.5821940000000  0.4908400000000 1.0
C      1  0.4971090000000  0.4699030000000  0.5668860000000 1.0
C      1  0.5003250000000  0.4978740000000  0.5670980000000 1.0
C      1  0.5477200000000  0.5210220000000  0.4388970000000 1.0
C      1  0.4822920000000  0.4840240000000  0.5237200000000 1.0
C      1  0.4824730000000  0.5701620000000  0.4779840000000 1.0
C      1  0.5447020000000  0.4533710000000  0.5178300000000 1.0
C      1  0.5243500000000  0.5018100000000  0.5272330000000 1.0
C      1  0.4429230000000  0.5063460000000  0.5411140000000 1.0
END
