TITL C-92097-9458-7 -0.056210241242318 125000 -204.59186188027 0 0 31 (C1) n - 1
REM
REM in /rds/project/t2_vol4/rds-t2-cs072/BORA/CARBON/from-Arr/AIRSS/Generating-Clusters/GAP-ML-2020/Only-C1/SD-CG/HFTN-CG
REM
REM
REM
REM
REM
REM ./C.cell (11c1c37f851c82e70ff6c80c92926a4b)
REM AIRSS Version 0.9.1 bugfix July 2018 build 013d7b7c2542+ Fri, 06 Jul 2018 19:26:36 +0100
REM compiler GCC version 9.3.0
REM options -cpp -mtune=generic -march=x86-64 -g -O0
REM seed 1758801048 -506818048 645885156 -1791589140 2079311637 -601174632 1046561349 -2086164901 2134142048 -148019313 -1702511978 -1688344289 -1844501820 503663539 -1028744133 482679797 138468317 -215071801 522560332 -1883355470 -1289546976 640237194 337448138 -1424412952 2088093089 337517356 692761309 -1146021583 -1247946244 620301451 -1778322431 -776031926 505246466
REM
CELL 1.54180   50.00000   50.00000   50.00000   90.00000   90.00000   90.00000
LATT -1
SFAC C  
C      1  0.5288360000000  0.4874120000000  0.5270560000000 1.0
C      1  0.4944890000000  0.5050010000000  0.4525800000000 1.0
C      1  0.5101320000000  0.5252190000000  0.4636640000000 1.0
C      1  0.4823540000000  0.5417850000000  0.5247040000000 1.0
C      1  0.5136890000000  0.4714530000000  0.5087970000000 1.0
C      1  0.5553930000000  0.5447100000000  0.5174480000000 1.0
C      1  0.5193550000000  0.5318760000000  0.5481030000000 1.0
C      1  0.5071450000000  0.4795450000000  0.4499310000000 1.0
C      1  0.4662880000000  0.4921590000000  0.5448500000000 1.0
C      1  0.5175250000000  0.5030960000000  0.5486460000000 1.0
C      1  0.5352960000000  0.4770540000000  0.4556120000000 1.0
C      1  0.4492080000000  0.4659230000000  0.4776140000000 1.0
C      1  0.5074430000000  0.4371570000000  0.4766440000000 1.0
C      1  0.4860040000000  0.4742370000000  0.5038880000000 1.0
C      1  0.5281640000000  0.5465080000000  0.5246590000000 1.0
C      1  0.4707520000000  0.5317870000000  0.4820010000000 1.0
C      1  0.5594010000000  0.5191550000000  0.5183020000000 1.0
C      1  0.5565270000000  0.4936200000000  0.5215790000000 1.0
C      1  0.5479550000000  0.4617630000000  0.4726380000000 1.0
C      1  0.4673810000000  0.5114190000000  0.4625560000000 1.0
C      1  0.5048060000000  0.5510460000000  0.5086570000000 1.0
C      1  0.4654530000000  0.5252990000000  0.5090020000000 1.0
C      1  0.5254630000000  0.4542200000000  0.4886520000000 1.0
C      1  0.4418520000000  0.4857690000000  0.4960900000000 1.0
C      1  0.4948550000000  0.4556500000000  0.4615530000000 1.0
C      1  0.4648950000000  0.4936690000000  0.5151470000000 1.0
C      1  0.4902630000000  0.5339720000000  0.5503870000000 1.0
C      1  0.4982800000000  0.5417510000000  0.4819750000000 1.0
C      1  0.4762630000000  0.4590970000000  0.4823660000000 1.0
C      1  0.4471220000000  0.4935120000000  0.4697940000000 1.0
C      1  0.4874090000000  0.5051350000000  0.5551040000000 1.0
END
