TITL C-92887-3743-4 -0.0156698121690128 125000 -273.015412069256 0 0 41 (C1) n - 1
REM
REM in /rds/project/t2_vol4/rds-t2-cs072/BORA/CARBON/from-Arr/AIRSS/Generating-Clusters/GAP-ML-2020/Only-C1/SD-CG/HFTN-CG
REM
REM
REM
REM
REM
REM ./C.cell (11c1c37f851c82e70ff6c80c92926a4b)
REM AIRSS Version 0.9.1 bugfix July 2018 build 013d7b7c2542+ Fri, 06 Jul 2018 19:26:36 +0100
REM compiler GCC version 9.3.0
REM options -cpp -mtune=generic -march=x86-64 -g -O0
REM seed -1857837832 1973847065 285443979 1760980530 -1979008435 2097557348 1344567814 -726786824 582264351 -1057404451 1738687524 -1163037119 2055358688 288309966 -1118115 460491647 -1951507795 -1310553731 2069156133 -643542463 1828074157 1997331004 -536601256 -527471638 926203569 -223685160 -1029672038 -615893912 1740500114 83094454 1596776590 -1396235098 2002710432
REM
CELL 1.54180   50.00000   50.00000   50.00000   90.00000   90.00000   90.00000
LATT -1
SFAC C  
C      1  0.5091050000000  0.5395670000000  0.4471900000000 1.0
C      1  0.4676480000000  0.4782390000000  0.4537090000000 1.0
C      1  0.4817470000000  0.4993420000000  0.4405670000000 1.0
C      1  0.5245190000000  0.4636130000000  0.5417570000000 1.0
C      1  0.5484950000000  0.5318970000000  0.4774170000000 1.0
C      1  0.5330980000000  0.4768170000000  0.4891390000000 1.0
C      1  0.4692470000000  0.4475980000000  0.5250270000000 1.0
C      1  0.4646390000000  0.4929680000000  0.5380320000000 1.0
C      1  0.4771360000000  0.5266950000000  0.4763520000000 1.0
C      1  0.4686300000000  0.5471130000000  0.4962130000000 1.0
C      1  0.4621970000000  0.4655460000000  0.5476860000000 1.0
C      1  0.5423600000000  0.4855830000000  0.5353470000000 1.0
C      1  0.5097430000000  0.4944630000000  0.4422540000000 1.0
C      1  0.5182820000000  0.5266990000000  0.5412540000000 1.0
C      1  0.4996370000000  0.5103750000000  0.5118690000000 1.0
C      1  0.5092060000000  0.4806140000000  0.5597340000000 1.0
C      1  0.4508010000000  0.5282950000000  0.5097920000000 1.0
C      1  0.5218050000000  0.4964100000000  0.4696970000000 1.0
C      1  0.5136640000000  0.4466800000000  0.5223880000000 1.0
C      1  0.5448230000000  0.5133320000000  0.4569840000000 1.0
C      1  0.4908140000000  0.4316700000000  0.5297900000000 1.0
C      1  0.5215010000000  0.5455730000000  0.4765450000000 1.0
C      1  0.4707690000000  0.4621690000000  0.4983790000000 1.0
C      1  0.5057980000000  0.5189370000000  0.4849360000000 1.0
C      1  0.5494730000000  0.5215010000000  0.5043590000000 1.0
C      1  0.4817390000000  0.5281130000000  0.4480260000000 1.0
C      1  0.5258730000000  0.5200570000000  0.4364900000000 1.0
C      1  0.4820290000000  0.4805680000000  0.5593780000000 1.0
C      1  0.5273100000000  0.5031040000000  0.5533230000000 1.0
C      1  0.4927370000000  0.4520250000000  0.4799860000000 1.0
C      1  0.5344050000000  0.5391410000000  0.5206350000000 1.0
C      1  0.4543500000000  0.4803290000000  0.4793880000000 1.0
C      1  0.4620040000000  0.5220980000000  0.5365450000000 1.0
C      1  0.4772770000000  0.4914710000000  0.5110570000000 1.0
C      1  0.5475030000000  0.4925970000000  0.5090370000000 1.0
C      1  0.5184320000000  0.4535090000000  0.4943880000000 1.0
C      1  0.4590350000000  0.5064250000000  0.4908960000000 1.0
C      1  0.4850240000000  0.4562370000000  0.4543560000000 1.0
C      1  0.4901770000000  0.5324000000000  0.5326860000000 1.0
C      1  0.4902860000000  0.5548260000000  0.5139660000000 1.0
C      1  0.5166830000000  0.5554060000000  0.5034230000000 1.0
END
