TITL C-92087-1745-7 57.4760480563317 125000 -772.830773174831 0 0 112 (C1) n - 1
REM
REM in /rds/project/t2_vol4/rds-t2-cs072/BORA/CARBON/from-Arr/AIRSS/Generating-Clusters/GAP-ML-2020/Only-C1/SD-CG/HFTN-CG
REM
REM
REM
REM
REM
REM ./C.cell (11c1c37f851c82e70ff6c80c92926a4b)
REM AIRSS Version 0.9.1 bugfix July 2018 build 013d7b7c2542+ Fri, 06 Jul 2018 19:26:36 +0100
REM compiler GCC version 9.3.0
REM options -cpp -mtune=generic -march=x86-64 -g -O0
REM seed 1730243331 -1083854869 453264151 16239435 506553334 -1934639983 -1175044444 -2014964388 -1417420694 807737021 -1171930473 391868650 -1796611002 926711099 -2032716018 -1446723912 4023933 -1366614464 -1001961413 -875629455 -2132814330 -2128974014 -1141939481 -1647725334 879664853 -1053186158 -2000703657 -1340045076 -1052773821 -1476832749 1715421369 1962782753 1775606989
REM
CELL 1.54180   50.00000   50.00000   50.00000   90.00000   90.00000   90.00000
LATT -1
SFAC C  
C      1  0.5688910000000  0.4689880000000  0.5147520000000 1.0
C      1  0.5418750000000  0.4472770000000  0.5524170000000 1.0
C      1  0.4399150000000  0.5463920000000  0.5422780000000 1.0
C      1  0.5095500000000  0.5313300000000  0.4588060000000 1.0
C      1  0.5300970000000  0.5199050000000  0.4987630000000 1.0
C      1  0.4256260000000  0.4797670000000  0.5211330000000 1.0
C      1  0.5409010000000  0.5628940000000  0.5406710000000 1.0
C      1  0.5614190000000  0.4868570000000  0.5586910000000 1.0
C      1  0.4691450000000  0.4225710000000  0.5513930000000 1.0
C      1  0.4689270000000  0.4201260000000  0.4984210000000 1.0
C      1  0.4455730000000  0.5671130000000  0.5215280000000 1.0
C      1  0.5243690000000  0.5759550000000  0.4532680000000 1.0
C      1  0.4891830000000  0.4875050000000  0.4540020000000 1.0
C      1  0.5830180000000  0.5199640000000  0.4967490000000 1.0
C      1  0.5434270000000  0.5611820000000  0.4721480000000 1.0
C      1  0.4453940000000  0.5097730000000  0.4284940000000 1.0
C      1  0.5382700000000  0.4664700000000  0.5107330000000 1.0
C      1  0.4921900000000  0.4232120000000  0.4778760000000 1.0
C      1  0.5484270000000  0.5767670000000  0.4971650000000 1.0
C      1  0.4766080000000  0.4694960000000  0.4730150000000 1.0
C      1  0.5019640000000  0.4741140000000  0.4281370000000 1.0
C      1  0.5283760000000  0.4419910000000  0.4562130000000 1.0
C      1  0.5086960000000  0.4060500000000  0.5573230000000 1.0
C      1  0.5609990000000  0.5627320000000  0.5186940000000 1.0
C      1  0.5208810000000  0.5437800000000  0.4834730000000 1.0
C      1  0.4645630000000  0.5321820000000  0.4385170000000 1.0
C      1  0.4985450000000  0.5459250000000  0.5264510000000 1.0
C      1  0.4950990000000  0.4573910000000  0.5210990000000 1.0
C      1  0.4762740000000  0.4111310000000  0.5248410000000 1.0
C      1  0.4195810000000  0.5404390000000  0.4882220000000 1.0
C      1  0.5097800000000  0.5522690000000  0.5866090000000 1.0
C      1  0.5411650000000  0.4124620000000  0.4925590000000 1.0
C      1  0.4769100000000  0.5842800000000  0.4711290000000 1.0
C      1  0.4763940000000  0.5129690000000  0.4899840000000 1.0
C      1  0.4997560000000  0.5847750000000  0.4559420000000 1.0
C      1  0.5548200000000  0.4800560000000  0.4336640000000 1.0
C      1  0.5785230000000  0.4975800000000  0.5156950000000 1.0
C      1  0.4989490000000  0.4867350000000  0.5240090000000 1.0
C      1  0.5664260000000  0.4240960000000  0.4913400000000 1.0
C      1  0.4249020000000  0.5319580000000  0.4615590000000 1.0
C      1  0.4553810000000  0.4670890000000  0.5735040000000 1.0
C      1  0.4511040000000  0.5701400000000  0.4708450000000 1.0
C      1  0.5219010000000  0.4175090000000  0.4720290000000 1.0
C      1  0.4889610000000  0.4753200000000  0.4026230000000 1.0
C      1  0.4144330000000  0.5205830000000  0.5070550000000 1.0
C      1  0.5733630000000  0.5172040000000  0.4676520000000 1.0
C      1  0.4289320000000  0.5045130000000  0.4516110000000 1.0
C      1  0.4489610000000  0.4645770000000  0.5112630000000 1.0
C      1  0.4912560000000  0.5693670000000  0.5934180000000 1.0
C      1  0.4474300000000  0.4410900000000  0.4930940000000 1.0
C      1  0.5747120000000  0.4896950000000  0.4537740000000 1.0
C      1  0.4278630000000  0.4971020000000  0.5438500000000 1.0
C      1  0.4820990000000  0.4701630000000  0.5840210000000 1.0
C      1  0.5266790000000  0.5053790000000  0.4570410000000 1.0
C      1  0.4598930000000  0.4489000000000  0.4591980000000 1.0
C      1  0.4310930000000  0.4844160000000  0.4737230000000 1.0
C      1  0.5262190000000  0.5187400000000  0.4133640000000 1.0
C      1  0.4238920000000  0.5237240000000  0.5341220000000 1.0
C      1  0.4756540000000  0.5339160000000  0.4105420000000 1.0
C      1  0.4546310000000  0.4461940000000  0.5544700000000 1.0
C      1  0.5060120000000  0.5609410000000  0.5016240000000 1.0
C      1  0.5255600000000  0.4439120000000  0.5273380000000 1.0
C      1  0.5654560000000  0.5075090000000  0.5388830000000 1.0
C      1  0.4821820000000  0.4327550000000  0.4519150000000 1.0
C      1  0.4855340000000  0.5813790000000  0.4980200000000 1.0
C      1  0.4784370000000  0.5632340000000  0.5680970000000 1.0
C      1  0.4160380000000  0.4936420000000  0.4985240000000 1.0
C      1  0.5179190000000  0.5044300000000  0.5811380000000 1.0
C      1  0.5226450000000  0.4618420000000  0.4836500000000 1.0
C      1  0.5190050000000  0.5526560000000  0.4380160000000 1.0
C      1  0.5219170000000  0.5317360000000  0.5727850000000 1.0
C      1  0.4770140000000  0.5259890000000  0.5161630000000 1.0
C      1  0.5266290000000  0.4160080000000  0.5170840000000 1.0
C      1  0.4591860000000  0.4861530000000  0.4889210000000 1.0
C      1  0.5119720000000  0.4869290000000  0.4734690000000 1.0
C      1  0.5378750000000  0.4848010000000  0.5768640000000 1.0
C      1  0.4898980000000  0.4971630000000  0.5820600000000 1.0
C      1  0.4903610000000  0.5715760000000  0.5421760000000 1.0
C      1  0.4351810000000  0.4526950000000  0.4701170000000 1.0
C      1  0.5786660000000  0.5441300000000  0.5091730000000 1.0
C      1  0.4926880000000  0.4245480000000  0.5685270000000 1.0
C      1  0.5048740000000  0.5023810000000  0.4968850000000 1.0
C      1  0.5199840000000  0.5818560000000  0.5374620000000 1.0
C      1  0.4815530000000  0.4985860000000  0.3931490000000 1.0
C      1  0.5264350000000  0.4893590000000  0.5269130000000 1.0
C      1  0.5015170000000  0.4497170000000  0.5800190000000 1.0
C      1  0.5285420000000  0.4579650000000  0.5750070000000 1.0
C      1  0.5257300000000  0.5375780000000  0.5436200000000 1.0
C      1  0.5740430000000  0.4628850000000  0.4656000000000 1.0
C      1  0.5289410000000  0.4937060000000  0.4284590000000 1.0
C      1  0.5420170000000  0.5391890000000  0.4300540000000 1.0
C      1  0.4569020000000  0.5111880000000  0.4028960000000 1.0
C      1  0.4686880000000  0.5112380000000  0.5644400000000 1.0
C      1  0.4786870000000  0.5055160000000  0.5354050000000 1.0
C      1  0.4827790000000  0.5182470000000  0.4591860000000 1.0
C      1  0.4594800000000  0.5414760000000  0.5627220000000 1.0
C      1  0.4703100000000  0.5809940000000  0.5223310000000 1.0
C      1  0.5005440000000  0.5221720000000  0.4005980000000 1.0
C      1  0.4669880000000  0.4572200000000  0.5313450000000 1.0
C      1  0.4361610000000  0.5631620000000  0.4947940000000 1.0
C      1  0.5048020000000  0.4026430000000  0.5295630000000 1.0
C      1  0.5644880000000  0.4632560000000  0.5447590000000 1.0
C      1  0.5387110000000  0.5164780000000  0.5278210000000 1.0
C      1  0.5757710000000  0.4501490000000  0.4915540000000 1.0
C      1  0.5228810000000  0.5834510000000  0.5096060000000 1.0
C      1  0.5537510000000  0.4540990000000  0.4463090000000 1.0
C      1  0.5580050000000  0.5401130000000  0.4547930000000 1.0
C      1  0.4444150000000  0.5499830000000  0.4515830000000 1.0
C      1  0.4456450000000  0.4923810000000  0.5651910000000 1.0
C      1  0.5044050000000  0.4466450000000  0.4403540000000 1.0
C      1  0.5471160000000  0.5082410000000  0.4770160000000 1.0
C      1  0.4957950000000  0.4520160000000  0.4910610000000 1.0
END
