TITL C-92903-3706-5 348.123607033784 125000 -613.126330610061 0 0 87 (C1) n - 1
REM
REM in /rds/project/t2_vol4/rds-t2-cs072/BORA/CARBON/from-Arr/AIRSS/Generating-Clusters/GAP-ML-2020/Only-C1/SD-CG/HFTN-CG
REM
REM
REM
REM
REM
REM ./C.cell (11c1c37f851c82e70ff6c80c92926a4b)
REM AIRSS Version 0.9.1 bugfix July 2018 build 013d7b7c2542+ Fri, 06 Jul 2018 19:26:36 +0100
REM compiler GCC version 9.3.0
REM options -cpp -mtune=generic -march=x86-64 -g -O0
REM seed -1532767234 -24284120 -904668641 -1075258106 889072007 -543910834 -1494742967 1514096179 235444420 -959183798 -846883404 544890846 1659315665 513375053 -139855248 -1202900931 -1703628515 785146682 -164358429 706759850 -1842243039 -321941606 -2038186115 -1827608328 777441454 -517661029 1087547441 143836101 -103272422 -757414187 -2125160372 201980811 -1011085058
REM
CELL 1.54180   50.00000   50.00000   50.00000   90.00000   90.00000   90.00000
LATT -1
SFAC C  
C      1  0.4321880000000  0.4733700000000  0.5117720000000 1.0
C      1  0.5441080000000  0.5081210000000  0.5065760000000 1.0
C      1  0.4318680000000  0.5331800000000  0.4828590000000 1.0
C      1  0.4343350000000  0.4924410000000  0.5568420000000 1.0
C      1  0.5724980000000  0.5113670000000  0.4910810000000 1.0
C      1  0.4658990000000  0.4339260000000  0.5251210000000 1.0
C      1  0.4163230000000  0.4924700000000  0.4982210000000 1.0
C      1  0.4577420000000  0.5296830000000  0.4274880000000 1.0
C      1  0.4450220000000  0.5175310000000  0.5538230000000 1.0
C      1  0.5274810000000  0.4860810000000  0.4916020000000 1.0
C      1  0.4638420000000  0.5405970000000  0.4522000000000 1.0
C      1  0.5144760000000  0.5221790000000  0.5813480000000 1.0
C      1  0.4745310000000  0.5627270000000  0.5301340000000 1.0
C      1  0.4585400000000  0.4719030000000  0.4969450000000 1.0
C      1  0.4851510000000  0.4810920000000  0.4640160000000 1.0
C      1  0.4735210000000  0.4877670000000  0.4184840000000 1.0
C      1  0.5052140000000  0.5667930000000  0.4487710000000 1.0
C      1  0.5407690000000  0.4622910000000  0.4460590000000 1.0
C      1  0.4218190000000  0.5193320000000  0.5071470000000 1.0
C      1  0.5108510000000  0.5522560000000  0.4262000000000 1.0
C      1  0.4911880000000  0.4217570000000  0.5310810000000 1.0
C      1  0.5695240000000  0.5420790000000  0.4886980000000 1.0
C      1  0.4807290000000  0.4531000000000  0.5641880000000 1.0
C      1  0.5130700000000  0.5464400000000  0.5646490000000 1.0
C      1  0.5085980000000  0.4983320000000  0.4707480000000 1.0
C      1  0.4152590000000  0.4920730000000  0.4689220000000 1.0
C      1  0.5773970000000  0.4673380000000  0.5081080000000 1.0
C      1  0.4441420000000  0.4874110000000  0.4279420000000 1.0
C      1  0.4726480000000  0.5237770000000  0.5614280000000 1.0
C      1  0.4581360000000  0.5191080000000  0.4757830000000 1.0
C      1  0.4961150000000  0.4745940000000  0.5752580000000 1.0
C      1  0.5263270000000  0.4415190000000  0.5567460000000 1.0
C      1  0.5448410000000  0.4833010000000  0.5746740000000 1.0
C      1  0.5142940000000  0.4693970000000  0.5084890000000 1.0
C      1  0.4478900000000  0.5546380000000  0.5218410000000 1.0
C      1  0.5446430000000  0.4381330000000  0.5343510000000 1.0
C      1  0.4759840000000  0.4940020000000  0.5123430000000 1.0
C      1  0.5237490000000  0.4784690000000  0.4299650000000 1.0
C      1  0.4775580000000  0.5637580000000  0.4583420000000 1.0
C      1  0.5508270000000  0.5252880000000  0.5589030000000 1.0
C      1  0.5030040000000  0.5222710000000  0.4859780000000 1.0
C      1  0.5246790000000  0.5070290000000  0.4391390000000 1.0
C      1  0.5135120000000  0.5034660000000  0.5405720000000 1.0
C      1  0.4804960000000  0.5153260000000  0.4169660000000 1.0
C      1  0.4779800000000  0.5181410000000  0.4975550000000 1.0
C      1  0.5072210000000  0.5254550000000  0.4240820000000 1.0
C      1  0.5242750000000  0.5662080000000  0.4696550000000 1.0
C      1  0.4888470000000  0.4560210000000  0.4489040000000 1.0
C      1  0.5000730000000  0.4856830000000  0.5238770000000 1.0
C      1  0.5357820000000  0.4257870000000  0.5094400000000 1.0
C      1  0.4439270000000  0.5585930000000  0.4938580000000 1.0
C      1  0.4861100000000  0.5480410000000  0.5528260000000 1.0
C      1  0.4951860000000  0.4700420000000  0.4256820000000 1.0
C      1  0.5288080000000  0.5578030000000  0.5132050000000 1.0
C      1  0.5658700000000  0.5013770000000  0.4639500000000 1.0
C      1  0.4350260000000  0.5137090000000  0.4329310000000 1.0
C      1  0.5627760000000  0.4731940000000  0.4607800000000 1.0
C      1  0.5400810000000  0.5108280000000  0.5805470000000 1.0
C      1  0.4193880000000  0.5181050000000  0.4582290000000 1.0
C      1  0.5314080000000  0.4391350000000  0.4613270000000 1.0
C      1  0.4939770000000  0.5047220000000  0.5703460000000 1.0
C      1  0.4341020000000  0.5313040000000  0.5304250000000 1.0
C      1  0.5403030000000  0.5510240000000  0.5549760000000 1.0
C      1  0.4585040000000  0.4876030000000  0.4709550000000 1.0
C      1  0.4675160000000  0.4424630000000  0.4981590000000 1.0
C      1  0.5238540000000  0.4650240000000  0.5737520000000 1.0
C      1  0.5672120000000  0.4558530000000  0.4837480000000 1.0
C      1  0.5285980000000  0.5316700000000  0.4979320000000 1.0
C      1  0.5477610000000  0.5192540000000  0.4528380000000 1.0
C      1  0.5440990000000  0.5422690000000  0.4719900000000 1.0
C      1  0.4865950000000  0.5743270000000  0.5052250000000 1.0
C      1  0.4909360000000  0.4288960000000  0.4867640000000 1.0
C      1  0.5442910000000  0.5051310000000  0.5362400000000 1.0
C      1  0.4995850000000  0.4328190000000  0.5548090000000 1.0
C      1  0.4368700000000  0.4706220000000  0.5407730000000 1.0
C      1  0.5579100000000  0.4819050000000  0.5488930000000 1.0
C      1  0.5030460000000  0.4359340000000  0.4622000000000 1.0
C      1  0.5680500000000  0.5585720000000  0.5105700000000 1.0
C      1  0.5139450000000  0.5739780000000  0.4956910000000 1.0
C      1  0.4677690000000  0.5709220000000  0.4840430000000 1.0
C      1  0.5076610000000  0.4198380000000  0.5083290000000 1.0
C      1  0.5474470000000  0.4352620000000  0.4848060000000 1.0
C      1  0.5882580000000  0.4924590000000  0.5043820000000 1.0
C      1  0.4361440000000  0.4776880000000  0.4537990000000 1.0
C      1  0.4576980000000  0.4515280000000  0.5462300000000 1.0
C      1  0.5639790000000  0.4594010000000  0.5327470000000 1.0
C      1  0.5503410000000  0.5636940000000  0.5307260000000 1.0
END
