TITL C-92885-3658-9 -0.011657812665713 125000 -716.742492460921 0 0 103 (C1) n - 1
REM
REM in /rds/project/t2_vol4/rds-t2-cs072/BORA/CARBON/from-Arr/AIRSS/Generating-Clusters/GAP-ML-2020/Only-C1/SD-CG/HFTN-CG
REM
REM
REM
REM
REM
REM ./C.cell (11c1c37f851c82e70ff6c80c92926a4b)
REM AIRSS Version 0.9.1 bugfix July 2018 build 013d7b7c2542+ Fri, 06 Jul 2018 19:26:36 +0100
REM compiler GCC version 9.3.0
REM options -cpp -mtune=generic -march=x86-64 -g -O0
REM seed 1362568944 338399429 -1955796014 1783106296 -1431729864 -229534369 -1677662613 1767048611 1745642621 538827251 2132700321 -1874910226 -615080042 -2025988485 757424000 -577539601 1858171851 1975525281 971693236 1235049935 1050057963 372071663 -1611205676 -990667711 1691662431 -750715877 596670078 1291326211 660011114 -1229314036 1622472434 -1496510949 1767056884
REM
CELL 1.54180   50.00000   50.00000   50.00000   90.00000   90.00000   90.00000
LATT -1
SFAC C  
C      1  0.5479490000000  0.5006610000000  0.5049190000000 1.0
C      1  0.4958300000000  0.5469820000000  0.4880070000000 1.0
C      1  0.5861860000000  0.4635710000000  0.5352670000000 1.0
C      1  0.5786300000000  0.5454580000000  0.4769840000000 1.0
C      1  0.5432440000000  0.5596180000000  0.4424290000000 1.0
C      1  0.5364260000000  0.4459950000000  0.5136300000000 1.0
C      1  0.5030340000000  0.4670480000000  0.5821620000000 1.0
C      1  0.4767880000000  0.4098650000000  0.5251820000000 1.0
C      1  0.4171930000000  0.4712540000000  0.4826300000000 1.0
C      1  0.4902770000000  0.4523960000000  0.4957470000000 1.0
C      1  0.4826020000000  0.4975680000000  0.4702780000000 1.0
C      1  0.4373350000000  0.5675940000000  0.4519640000000 1.0
C      1  0.5471540000000  0.4957060000000  0.5342050000000 1.0
C      1  0.4193970000000  0.4452440000000  0.4936630000000 1.0
C      1  0.5127910000000  0.4949850000000  0.4638190000000 1.0
C      1  0.5000340000000  0.4875770000000  0.5269060000000 1.0
C      1  0.5717850000000  0.5694910000000  0.4897730000000 1.0
C      1  0.4481800000000  0.5277270000000  0.5336470000000 1.0
C      1  0.5221870000000  0.4227960000000  0.5263970000000 1.0
C      1  0.5204840000000  0.4481380000000  0.5690850000000 1.0
C      1  0.4366870000000  0.5072340000000  0.5491710000000 1.0
C      1  0.5555660000000  0.5164600000000  0.4476240000000 1.0
C      1  0.5099440000000  0.4472460000000  0.4433440000000 1.0
C      1  0.5313540000000  0.5251880000000  0.5044630000000 1.0
C      1  0.4648760000000  0.5484670000000  0.5428750000000 1.0
C      1  0.4251170000000  0.5459280000000  0.4579150000000 1.0
C      1  0.4369120000000  0.5231100000000  0.4675230000000 1.0
C      1  0.5498840000000  0.5815230000000  0.5263700000000 1.0
C      1  0.4703550000000  0.5697920000000  0.5243390000000 1.0
C      1  0.5075360000000  0.4955700000000  0.5773050000000 1.0
C      1  0.4580640000000  0.5878460000000  0.5074810000000 1.0
C      1  0.4239730000000  0.4862730000000  0.5327520000000 1.0
C      1  0.4958210000000  0.5663660000000  0.5106800000000 1.0
C      1  0.5210960000000  0.5415460000000  0.4349480000000 1.0
C      1  0.5236510000000  0.4730410000000  0.4387500000000 1.0
C      1  0.5189440000000  0.4328220000000  0.4674430000000 1.0
C      1  0.4550930000000  0.5009490000000  0.5711530000000 1.0
C      1  0.5520370000000  0.4687690000000  0.4430660000000 1.0
C      1  0.4287550000000  0.4588620000000  0.5395670000000 1.0
C      1  0.4873120000000  0.4976740000000  0.4182730000000 1.0
C      1  0.4514170000000  0.4153750000000  0.5122630000000 1.0
C      1  0.4810750000000  0.5127490000000  0.5739830000000 1.0
C      1  0.4411930000000  0.4064960000000  0.4883490000000 1.0
C      1  0.5017780000000  0.4111830000000  0.5102060000000 1.0
C      1  0.4587380000000  0.5142300000000  0.5098650000000 1.0
C      1  0.5656350000000  0.5166260000000  0.5444470000000 1.0
C      1  0.4859030000000  0.5363560000000  0.5590500000000 1.0
C      1  0.4643450000000  0.4442890000000  0.4565910000000 1.0
C      1  0.4986810000000  0.4253620000000  0.4858400000000 1.0
C      1  0.4659100000000  0.4369470000000  0.5676070000000 1.0
C      1  0.4710620000000  0.4862400000000  0.5233350000000 1.0
C      1  0.5183440000000  0.5020780000000  0.5460780000000 1.0
C      1  0.5368150000000  0.5941810000000  0.5053350000000 1.0
C      1  0.5234610000000  0.5395820000000  0.4817810000000 1.0
C      1  0.5441980000000  0.4569540000000  0.5611970000000 1.0
C      1  0.4678330000000  0.5931170000000  0.4819670000000 1.0
C      1  0.5790680000000  0.4960460000000  0.4972520000000 1.0
C      1  0.5553540000000  0.5207410000000  0.5708400000000 1.0
C      1  0.5064680000000  0.5097850000000  0.5080500000000 1.0
C      1  0.5133470000000  0.5333190000000  0.5529760000000 1.0
C      1  0.5075100000000  0.5884190000000  0.4567550000000 1.0
C      1  0.4345910000000  0.5124110000000  0.4938910000000 1.0
C      1  0.4366740000000  0.4411560000000  0.4535950000000 1.0
C      1  0.4536070000000  0.4747140000000  0.5793890000000 1.0
C      1  0.4704350000000  0.4748740000000  0.4255900000000 1.0
C      1  0.4420410000000  0.4536550000000  0.5632840000000 1.0
C      1  0.5699470000000  0.5640190000000  0.5187730000000 1.0
C      1  0.4475110000000  0.4855880000000  0.4395390000000 1.0
C      1  0.5230210000000  0.4887660000000  0.4912920000000 1.0
C      1  0.5356850000000  0.5824700000000  0.4566670000000 1.0
C      1  0.4957860000000  0.6005650000000  0.4798890000000 1.0
C      1  0.5553350000000  0.4628500000000  0.5366390000000 1.0
C      1  0.4820960000000  0.4500070000000  0.4358780000000 1.0
C      1  0.4289110000000  0.4694460000000  0.4553090000000 1.0
C      1  0.4640840000000  0.4631980000000  0.5067630000000 1.0
C      1  0.4933200000000  0.5467590000000  0.4310510000000 1.0
C      1  0.5829760000000  0.5253180000000  0.4981470000000 1.0
C      1  0.5427860000000  0.4400560000000  0.4826280000000 1.0
C      1  0.4587010000000  0.5104440000000  0.4501640000000 1.0
C      1  0.5267380000000  0.5201620000000  0.4555500000000 1.0
C      1  0.4199890000000  0.4911060000000  0.5039740000000 1.0
C      1  0.4870530000000  0.5722120000000  0.4442030000000 1.0
C      1  0.5319170000000  0.5351290000000  0.5758920000000 1.0
C      1  0.4768110000000  0.5227550000000  0.4292070000000 1.0
C      1  0.5684580000000  0.4918400000000  0.4482320000000 1.0
C      1  0.4825270000000  0.4211150000000  0.5510800000000 1.0
C      1  0.5129370000000  0.4662520000000  0.5084180000000 1.0
C      1  0.5781600000000  0.4792600000000  0.4723240000000 1.0
C      1  0.5761970000000  0.5357530000000  0.5239120000000 1.0
C      1  0.4616180000000  0.5795550000000  0.4570590000000 1.0
C      1  0.4770620000000  0.4583560000000  0.5836170000000 1.0
C      1  0.5090590000000  0.5921300000000  0.5033960000000 1.0
C      1  0.5106930000000  0.4271550000000  0.5520800000000 1.0
C      1  0.4722640000000  0.4679790000000  0.4788120000000 1.0
C      1  0.4391390000000  0.4440360000000  0.5152960000000 1.0
C      1  0.4832440000000  0.5203440000000  0.4932870000000 1.0
C      1  0.4257330000000  0.4249110000000  0.4746320000000 1.0
C      1  0.5134000000000  0.4909420000000  0.4180130000000 1.0
C      1  0.5649920000000  0.5428190000000  0.4518530000000 1.0
C      1  0.5509840000000  0.5868890000000  0.4808910000000 1.0
C      1  0.5320350000000  0.5104590000000  0.5874500000000 1.0
C      1  0.5607860000000  0.4556310000000  0.4673190000000 1.0
C      1  0.5920750000000  0.4825040000000  0.5195160000000 1.0
END
