TITL C-92107-9581-9 -20.6574362040939 125000 -398.102717523558 0 0 59 (C1) n - 1
REM
REM in /rds/project/t2_vol4/rds-t2-cs072/BORA/CARBON/from-Arr/AIRSS/Generating-Clusters/GAP-ML-2020/Only-C1/SD-CG/HFTN-CG
REM
REM
REM
REM
REM
REM ./C.cell (11c1c37f851c82e70ff6c80c92926a4b)
REM AIRSS Version 0.9.1 bugfix July 2018 build 013d7b7c2542+ Fri, 06 Jul 2018 19:26:36 +0100
REM compiler GCC version 9.3.0
REM options -cpp -mtune=generic -march=x86-64 -g -O0
REM seed -1490678484 561531282 -1161642624 1615927957 349356103 -198571835 602915365 -550069906 -692947660 895795455 -716048310 -916467319 -112533480 162747027 1898433430 -1580359964 792308392 2146798850 2090143931 83233245 -1743492228 -450440087 -1567865139 636431138 1424013292 176490418 1507184392 1980661010 694000640 2029563834 886158626 501155399 2138795499
REM
CELL 1.54180   50.00000   50.00000   50.00000   90.00000   90.00000   90.00000
LATT -1
SFAC C  
C      1  0.4705830000000  0.4880810000000  0.5628960000000 1.0
C      1  0.4916290000000  0.4292810000000  0.5265910000000 1.0
C      1  0.5572110000000  0.5420290000000  0.4639310000000 1.0
C      1  0.4808050000000  0.5569350000000  0.4508180000000 1.0
C      1  0.4926970000000  0.5731560000000  0.4725330000000 1.0
C      1  0.5093680000000  0.5480220000000  0.5409730000000 1.0
C      1  0.4899350000000  0.5090620000000  0.5673110000000 1.0
C      1  0.4996850000000  0.5320430000000  0.4977320000000 1.0
C      1  0.5000040000000  0.4457010000000  0.4764090000000 1.0
C      1  0.5197050000000  0.5715220000000  0.4611950000000 1.0
C      1  0.5171360000000  0.4951760000000  0.4819720000000 1.0
C      1  0.5336210000000  0.4566320000000  0.5164460000000 1.0
C      1  0.4873640000000  0.4959850000000  0.4802910000000 1.0
C      1  0.5452700000000  0.5666960000000  0.4670230000000 1.0
C      1  0.5462750000000  0.5253560000000  0.5089090000000 1.0
C      1  0.5361080000000  0.5098960000000  0.5494340000000 1.0
C      1  0.5449900000000  0.5236620000000  0.4447120000000 1.0
C      1  0.4948060000000  0.4889390000000  0.5221240000000 1.0
C      1  0.5430400000000  0.5000390000000  0.5236530000000 1.0
C      1  0.4752260000000  0.4796970000000  0.4469880000000 1.0
C      1  0.5133460000000  0.4693830000000  0.5630970000000 1.0
C      1  0.5342300000000  0.5352690000000  0.5362810000000 1.0
C      1  0.4680490000000  0.5427230000000  0.5356570000000 1.0
C      1  0.5655430000000  0.5254800000000  0.4871840000000 1.0
C      1  0.4626390000000  0.4528980000000  0.4941830000000 1.0
C      1  0.4138230000000  0.4663510000000  0.4980480000000 1.0
C      1  0.5191220000000  0.4357960000000  0.5299950000000 1.0
C      1  0.4491470000000  0.4860450000000  0.5437910000000 1.0
C      1  0.4772680000000  0.4658140000000  0.4713650000000 1.0
C      1  0.5239110000000  0.5234480000000  0.4874800000000 1.0
C      1  0.4640200000000  0.5353220000000  0.4603130000000 1.0
C      1  0.4741190000000  0.4459220000000  0.5432720000000 1.0
C      1  0.5190860000000  0.5298950000000  0.4344990000000 1.0
C      1  0.4850940000000  0.4633920000000  0.5639340000000 1.0
C      1  0.4564160000000  0.5250520000000  0.5135540000000 1.0
C      1  0.5072150000000  0.5545770000000  0.4402350000000 1.0
C      1  0.5489350000000  0.4970180000000  0.4522820000000 1.0
C      1  0.4757220000000  0.5097230000000  0.4528010000000 1.0
C      1  0.4846790000000  0.4336800000000  0.4983340000000 1.0
C      1  0.4869540000000  0.5340810000000  0.5556190000000 1.0
C      1  0.4994750000000  0.5106800000000  0.4343680000000 1.0
C      1  0.5215800000000  0.4837930000000  0.5104130000000 1.0
C      1  0.4376240000000  0.5046790000000  0.5227040000000 1.0
C      1  0.5030770000000  0.4827650000000  0.4367220000000 1.0
C      1  0.5166070000000  0.4976720000000  0.5657950000000 1.0
C      1  0.5649330000000  0.4979750000000  0.4757580000000 1.0
C      1  0.4758760000000  0.4651780000000  0.5191700000000 1.0
C      1  0.4363660000000  0.4532300000000  0.5073170000000 1.0
C      1  0.5301890000000  0.4538350000000  0.5473270000000 1.0
C      1  0.4214350000000  0.4899970000000  0.5058830000000 1.0
C      1  0.5666510000000  0.4738860000000  0.4868360000000 1.0
C      1  0.4882660000000  0.5596440000000  0.5237490000000 1.0
C      1  0.4830190000000  0.5101230000000  0.5061660000000 1.0
C      1  0.5263370000000  0.4535090000000  0.4696870000000 1.0
C      1  0.4583760000000  0.5423140000000  0.4885240000000 1.0
C      1  0.5256260000000  0.4786370000000  0.4546050000000 1.0
C      1  0.5474720000000  0.4548040000000  0.4908270000000 1.0
C      1  0.4490220000000  0.4587530000000  0.5347070000000 1.0
C      1  0.4832930000000  0.5587420000000  0.4955770000000 1.0
END
