TITL C-92887-3743-3 0.0349424904734073 125000 -498.483443051731 0 0 73 (C1) n - 1
REM
REM in /rds/project/t2_vol4/rds-t2-cs072/BORA/CARBON/from-Arr/AIRSS/Generating-Clusters/GAP-ML-2020/Only-C1/SD-CG/HFTN-CG
REM
REM
REM
REM
REM
REM ./C.cell (11c1c37f851c82e70ff6c80c92926a4b)
REM AIRSS Version 0.9.1 bugfix July 2018 build 013d7b7c2542+ Fri, 06 Jul 2018 19:26:36 +0100
REM compiler GCC version 9.3.0
REM options -cpp -mtune=generic -march=x86-64 -g -O0
REM seed 877283331 -1931433401 -2040148816 606930226 684181595 -757075537 -1148894753 895512312 -1383591720 -1137025171 481930300 -655917847 -1446097089 -1833788130 673347217 1039755251 84220315 332321922 -1527659796 -795663111 -440030771 1056933728 -499034887 -863608988 1198123701 -681616115 -1586263901 -1690104450 1011206526 215813881 -449107166 -1912258817 -688578090
REM
CELL 1.54180   50.00000   50.00000   50.00000   90.00000   90.00000   90.00000
LATT -1
SFAC C  
C      1  0.5273040000000  0.5006370000000  0.4253640000000 1.0
C      1  0.4851150000000  0.4838860000000  0.4478080000000 1.0
C      1  0.5290410000000  0.5522100000000  0.4540630000000 1.0
C      1  0.5043750000000  0.4304590000000  0.5355670000000 1.0
C      1  0.5288710000000  0.4529960000000  0.5691330000000 1.0
C      1  0.4716520000000  0.4546820000000  0.4809280000000 1.0
C      1  0.4731490000000  0.4305860000000  0.4964130000000 1.0
C      1  0.5622400000000  0.5442700000000  0.5006570000000 1.0
C      1  0.5231750000000  0.5639250000000  0.4812160000000 1.0
C      1  0.4850150000000  0.5388770000000  0.5111010000000 1.0
C      1  0.4613950000000  0.5544580000000  0.4546600000000 1.0
C      1  0.4993690000000  0.5811020000000  0.5231180000000 1.0
C      1  0.5256990000000  0.5079010000000  0.5614640000000 1.0
C      1  0.4511680000000  0.4989070000000  0.5604240000000 1.0
C      1  0.4334740000000  0.4863050000000  0.5416290000000 1.0
C      1  0.4784290000000  0.4584930000000  0.5633860000000 1.0
C      1  0.5687380000000  0.5369630000000  0.4733450000000 1.0
C      1  0.4785820000000  0.4067430000000  0.4815350000000 1.0
C      1  0.5044870000000  0.4903360000000  0.5206930000000 1.0
C      1  0.5584730000000  0.4909490000000  0.4643350000000 1.0
C      1  0.5674600000000  0.4898950000000  0.5231170000000 1.0
C      1  0.4634500000000  0.5211060000000  0.5199410000000 1.0
C      1  0.5004320000000  0.5015000000000  0.4278910000000 1.0
C      1  0.4865580000000  0.5303320000000  0.5579450000000 1.0
C      1  0.4880280000000  0.4561300000000  0.4571190000000 1.0
C      1  0.4751070000000  0.4860260000000  0.5709670000000 1.0
C      1  0.4322690000000  0.5521910000000  0.5037180000000 1.0
C      1  0.4380740000000  0.4950180000000  0.4899810000000 1.0
C      1  0.4907530000000  0.4972960000000  0.4785010000000 1.0
C      1  0.4677800000000  0.4828160000000  0.4922440000000 1.0
C      1  0.4889200000000  0.5284080000000  0.4299030000000 1.0
C      1  0.5498890000000  0.4581480000000  0.5524430000000 1.0
C      1  0.5513700000000  0.5030660000000  0.5692620000000 1.0
C      1  0.4901930000000  0.5263550000000  0.4839580000000 1.0
C      1  0.4861950000000  0.5677490000000  0.4546590000000 1.0
C      1  0.5171170000000  0.5350990000000  0.4863040000000 1.0
C      1  0.4960930000000  0.5751970000000  0.4796070000000 1.0
C      1  0.5408440000000  0.5628750000000  0.5057320000000 1.0
C      1  0.5096350000000  0.4380370000000  0.4575590000000 1.0
C      1  0.4972250000000  0.5076110000000  0.5705940000000 1.0
C      1  0.5167320000000  0.4895190000000  0.4938640000000 1.0
C      1  0.5625300000000  0.5138800000000  0.5066090000000 1.0
C      1  0.4426140000000  0.5087880000000  0.4399820000000 1.0
C      1  0.5315320000000  0.5150440000000  0.5019310000000 1.0
C      1  0.5477490000000  0.5068620000000  0.4425200000000 1.0
C      1  0.5042850000000  0.5389850000000  0.5347950000000 1.0
C      1  0.4604310000000  0.5237580000000  0.5493930000000 1.0
C      1  0.5581340000000  0.4670980000000  0.5083820000000 1.0
C      1  0.5040140000000  0.5513910000000  0.4402760000000 1.0
C      1  0.4381950000000  0.4605790000000  0.5319560000000 1.0
C      1  0.4496930000000  0.5711010000000  0.5049580000000 1.0
C      1  0.4759160000000  0.4928370000000  0.5180980000000 1.0
C      1  0.5031220000000  0.4156280000000  0.4760220000000 1.0
C      1  0.4632990000000  0.5341960000000  0.4749750000000 1.0
C      1  0.4277660000000  0.4812330000000  0.5148220000000 1.0
C      1  0.5517810000000  0.5359790000000  0.4509040000000 1.0
C      1  0.4615230000000  0.5308200000000  0.4385700000000 1.0
C      1  0.5432020000000  0.4707790000000  0.4822160000000 1.0
C      1  0.4619350000000  0.4476300000000  0.5417670000000 1.0
C      1  0.4781810000000  0.4320650000000  0.5248850000000 1.0
C      1  0.5335300000000  0.4442730000000  0.4731180000000 1.0
C      1  0.5276870000000  0.4294520000000  0.5190040000000 1.0
C      1  0.5622420000000  0.4850220000000  0.5510500000000 1.0
C      1  0.4797120000000  0.5690380000000  0.5044360000000 1.0
C      1  0.5485910000000  0.4474170000000  0.5261940000000 1.0
C      1  0.4557580000000  0.4847700000000  0.4439830000000 1.0
C      1  0.5043910000000  0.4455420000000  0.5601900000000 1.0
C      1  0.5200980000000  0.5644720000000  0.5275990000000 1.0
C      1  0.4337240000000  0.4908030000000  0.4605950000000 1.0
C      1  0.5268740000000  0.4229730000000  0.4915750000000 1.0
C      1  0.4443360000000  0.5249110000000  0.4961000000000 1.0
C      1  0.5738620000000  0.5091380000000  0.4793370000000 1.0
C      1  0.5194190000000  0.5144800000000  0.5316070000000 1.0
END
