TITL C-92112-72-7 -0.0016404320979212 125000 -167.467628792917 0 0 26 (C1) n - 1
REM
REM in /rds/project/t2_vol4/rds-t2-cs072/BORA/CARBON/from-Arr/AIRSS/Generating-Clusters/GAP-ML-2020/Only-C1/SD-CG/HFTN-CG
REM
REM
REM
REM
REM
REM ./C.cell (11c1c37f851c82e70ff6c80c92926a4b)
REM AIRSS Version 0.9.1 bugfix July 2018 build 013d7b7c2542+ Fri, 06 Jul 2018 19:26:36 +0100
REM compiler GCC version 9.3.0
REM options -cpp -mtune=generic -march=x86-64 -g -O0
REM seed -1509287617 1306477505 1404339812 1586933785 841667493 17074264 868076373 1224880603 -741195186 2146710384 -224567893 -1994020235 -187792301 -960393689 1673772789 -642163346 1316692545 1649342755 2070971833 950051395 1737911527 -1537279619 -985937992 -1206117648 1908370982 1412474274 -1476444915 -1817333118 1105654782 -1782094134 -2137736306 1821414153 -594788577
REM
CELL 1.54180   50.00000   50.00000   50.00000   90.00000   90.00000   90.00000
LATT -1
SFAC C  
C      1  0.4652820000000  0.4883550000000  0.4528040000000 1.0
C      1  0.4946700000000  0.4474390000000  0.5097470000000 1.0
C      1  0.4998330000000  0.5500820000000  0.4924050000000 1.0
C      1  0.5153780000000  0.4934800000000  0.4413890000000 1.0
C      1  0.5364610000000  0.5169390000000  0.4938330000000 1.0
C      1  0.5316430000000  0.4894650000000  0.4861560000000 1.0
C      1  0.4552570000000  0.4708270000000  0.5168780000000 1.0
C      1  0.4559310000000  0.4910400000000  0.5377830000000 1.0
C      1  0.4746430000000  0.4630440000000  0.4974880000000 1.0
C      1  0.4745770000000  0.5121300000000  0.5431510000000 1.0
C      1  0.4804030000000  0.5053710000000  0.4397640000000 1.0
C      1  0.5431550000000  0.4889950000000  0.5310420000000 1.0
C      1  0.5025160000000  0.5109900000000  0.4261920000000 1.0
C      1  0.5180370000000  0.4810820000000  0.5428560000000 1.0
C      1  0.5149340000000  0.4597120000000  0.5213940000000 1.0
C      1  0.4821680000000  0.4764890000000  0.4728010000000 1.0
C      1  0.5234870000000  0.5273940000000  0.5415710000000 1.0
C      1  0.5267290000000  0.5458930000000  0.4538630000000 1.0
C      1  0.4327450000000  0.4772190000000  0.5318210000000 1.0
C      1  0.4713220000000  0.5372010000000  0.5311460000000 1.0
C      1  0.4839410000000  0.5497160000000  0.5123050000000 1.0
C      1  0.5227490000000  0.5400150000000  0.4803410000000 1.0
C      1  0.5120780000000  0.4825250000000  0.4663540000000 1.0
C      1  0.5411870000000  0.5165760000000  0.5228200000000 1.0
C      1  0.5381730000000  0.4720320000000  0.5084880000000 1.0
C      1  0.5027020000000  0.5059880000000  0.5456090000000 1.0
END
