TITL C-92109-9992-5 0.39405687973423 125000 -847.142986816866 0 0 120 (C1) n - 1
REM
REM in /rds/project/t2_vol4/rds-t2-cs072/BORA/CARBON/from-Arr/AIRSS/Generating-Clusters/GAP-ML-2020/Only-C1/SD-CG/HFTN-CG
REM
REM
REM
REM
REM
REM ./C.cell (11c1c37f851c82e70ff6c80c92926a4b)
REM AIRSS Version 0.9.1 bugfix July 2018 build 013d7b7c2542+ Fri, 06 Jul 2018 19:26:36 +0100
REM compiler GCC version 9.3.0
REM options -cpp -mtune=generic -march=x86-64 -g -O0
REM seed -509051425 1571539443 941032382 -518494751 1368888148 1679998389 -806817317 1309950397 -610633709 -1215735461 1202020812 -1757264768 -1478127154 187625187 1917814446 2018137644 1538279681 -1705114293 -1844788172 906391160 567007412 -1195199622 -1228713491 1508837148 1129397181 1119201978 1620330886 1968793713 -1569429217 1335979589 -1364313318 31559837 38075169
REM
CELL 1.54180   50.00000   50.00000   50.00000   90.00000   90.00000   90.00000
LATT -1
SFAC C  
C      1  0.4588230000000  0.4411420000000  0.5522050000000 1.0
C      1  0.5884540000000  0.5063350000000  0.4636790000000 1.0
C      1  0.4950490000000  0.3861560000000  0.5002540000000 1.0
C      1  0.4827350000000  0.4781490000000  0.4527250000000 1.0
C      1  0.4973730000000  0.5312580000000  0.5936960000000 1.0
C      1  0.4559220000000  0.5392100000000  0.5741370000000 1.0
C      1  0.5355780000000  0.5716000000000  0.5438570000000 1.0
C      1  0.5839380000000  0.4845350000000  0.5156480000000 1.0
C      1  0.5667810000000  0.5399680000000  0.5565980000000 1.0
C      1  0.4552060000000  0.5413330000000  0.4297580000000 1.0
C      1  0.5451210000000  0.5378400000000  0.5744860000000 1.0
C      1  0.4997890000000  0.5540970000000  0.5768950000000 1.0
C      1  0.5770770000000  0.5143360000000  0.5519440000000 1.0
C      1  0.4582130000000  0.4936930000000  0.5181660000000 1.0
C      1  0.5183270000000  0.4497340000000  0.5769900000000 1.0
C      1  0.5433250000000  0.4693530000000  0.5167110000000 1.0
C      1  0.5634570000000  0.4796720000000  0.4940930000000 1.0
C      1  0.5659880000000  0.5486980000000  0.4673600000000 1.0
C      1  0.4759160000000  0.5289340000000  0.4147860000000 1.0
C      1  0.4145660000000  0.4750050000000  0.5187630000000 1.0
C      1  0.4700570000000  0.5244060000000  0.5937210000000 1.0
C      1  0.5556940000000  0.4286810000000  0.4956780000000 1.0
C      1  0.5025390000000  0.5385480000000  0.4145390000000 1.0
C      1  0.5225030000000  0.5183210000000  0.4131170000000 1.0
C      1  0.5725050000000  0.4630080000000  0.5328690000000 1.0
C      1  0.5090660000000  0.4812070000000  0.5456060000000 1.0
C      1  0.4607110000000  0.5596540000000  0.4507760000000 1.0
C      1  0.4186210000000  0.5483530000000  0.4715030000000 1.0
C      1  0.4813060000000  0.5091130000000  0.5258840000000 1.0
C      1  0.4360940000000  0.5268810000000  0.5582520000000 1.0
C      1  0.4329910000000  0.4977520000000  0.5631020000000 1.0
C      1  0.4891290000000  0.4812940000000  0.4066210000000 1.0
C      1  0.5430880000000  0.4465490000000  0.5658370000000 1.0
C      1  0.4042320000000  0.5471440000000  0.4942800000000 1.0
C      1  0.4688520000000  0.4970230000000  0.5966650000000 1.0
C      1  0.5081270000000  0.5324490000000  0.4734320000000 1.0
C      1  0.5476470000000  0.5206080000000  0.4266290000000 1.0
C      1  0.4827280000000  0.4549470000000  0.4171150000000 1.0
C      1  0.5161590000000  0.4908120000000  0.4077590000000 1.0
C      1  0.4559070000000  0.5203710000000  0.4769150000000 1.0
C      1  0.4845630000000  0.4269080000000  0.4698000000000 1.0
C      1  0.4145410000000  0.4965180000000  0.4743140000000 1.0
C      1  0.4684580000000  0.5732570000000  0.5402980000000 1.0
C      1  0.5267350000000  0.4924150000000  0.5240860000000 1.0
C      1  0.4220960000000  0.4834230000000  0.5432630000000 1.0
C      1  0.5761130000000  0.4857500000000  0.4498220000000 1.0
C      1  0.5698270000000  0.4646520000000  0.4689050000000 1.0
C      1  0.4648480000000  0.4767920000000  0.4956560000000 1.0
C      1  0.5080950000000  0.4234950000000  0.4480360000000 1.0
C      1  0.4820510000000  0.4326760000000  0.5379320000000 1.0
C      1  0.4950940000000  0.4859940000000  0.5984760000000 1.0
C      1  0.5187870000000  0.5809030000000  0.5232440000000 1.0
C      1  0.4548130000000  0.5688350000000  0.4961590000000 1.0
C      1  0.5038570000000  0.4475120000000  0.4830270000000 1.0
C      1  0.5580230000000  0.4385540000000  0.4685240000000 1.0
C      1  0.5003660000000  0.4546170000000  0.5306880000000 1.0
C      1  0.5875520000000  0.5104240000000  0.5252680000000 1.0
C      1  0.4407270000000  0.5664360000000  0.4699480000000 1.0
C      1  0.4692980000000  0.5013720000000  0.4105070000000 1.0
C      1  0.5001580000000  0.5062340000000  0.4776160000000 1.0
C      1  0.5617330000000  0.5608120000000  0.5378760000000 1.0
C      1  0.4615300000000  0.4563340000000  0.4384350000000 1.0
C      1  0.5528350000000  0.5447960000000  0.4423360000000 1.0
C      1  0.5044630000000  0.4389450000000  0.4239970000000 1.0
C      1  0.5869470000000  0.5326940000000  0.5066990000000 1.0
C      1  0.4350290000000  0.5214330000000  0.4342160000000 1.0
C      1  0.4380600000000  0.4733690000000  0.4369830000000 1.0
C      1  0.5342710000000  0.5663670000000  0.4386030000000 1.0
C      1  0.5230900000000  0.4916210000000  0.4705840000000 1.0
C      1  0.5616670000000  0.4953070000000  0.5684320000000 1.0
C      1  0.4417970000000  0.4562500000000  0.4813260000000 1.0
C      1  0.4261820000000  0.5214240000000  0.4617810000000 1.0
C      1  0.5257710000000  0.5686100000000  0.4971080000000 1.0
C      1  0.5094550000000  0.4682300000000  0.4621370000000 1.0
C      1  0.4879460000000  0.5353610000000  0.5140670000000 1.0
C      1  0.5352490000000  0.5162170000000  0.5102250000000 1.0
C      1  0.5382200000000  0.4750810000000  0.4168530000000 1.0
C      1  0.5553370000000  0.5641320000000  0.4896040000000 1.0
C      1  0.5101360000000  0.5630730000000  0.4261300000000 1.0
C      1  0.5021900000000  0.5773240000000  0.4775730000000 1.0
C      1  0.4915520000000  0.4650620000000  0.5037420000000 1.0
C      1  0.4907210000000  0.5006630000000  0.5509750000000 1.0
C      1  0.4278510000000  0.4509660000000  0.5082040000000 1.0
C      1  0.5144190000000  0.5078140000000  0.5953550000000 1.0
C      1  0.5455770000000  0.4306080000000  0.5416010000000 1.0
C      1  0.4785110000000  0.4080470000000  0.4929540000000 1.0
C      1  0.4308110000000  0.5396650000000  0.5327480000000 1.0
C      1  0.4435030000000  0.4971050000000  0.4225650000000 1.0
C      1  0.5410760000000  0.5109760000000  0.5834250000000 1.0
C      1  0.5327300000000  0.4477720000000  0.4240600000000 1.0
C      1  0.4737870000000  0.5598990000000  0.5648570000000 1.0
C      1  0.4112170000000  0.4989060000000  0.5022990000000 1.0
C      1  0.5715440000000  0.5566720000000  0.5120550000000 1.0
C      1  0.5030930000000  0.4928630000000  0.5060810000000 1.0
C      1  0.4691460000000  0.5422870000000  0.4909890000000 1.0
C      1  0.4869080000000  0.5529460000000  0.4682900000000 1.0
C      1  0.5580390000000  0.4934370000000  0.4281970000000 1.0
C      1  0.4461700000000  0.5635480000000  0.5249430000000 1.0
C      1  0.4590960000000  0.4396170000000  0.4618480000000 1.0
C      1  0.4441930000000  0.4354610000000  0.5260680000000 1.0
C      1  0.4513460000000  0.4826920000000  0.5802060000000 1.0
C      1  0.5634770000000  0.4675330000000  0.5612130000000 1.0
C      1  0.5121900000000  0.5798600000000  0.4496070000000 1.0
C      1  0.5259440000000  0.4271880000000  0.4992240000000 1.0
C      1  0.5154400000000  0.4010350000000  0.5052210000000 1.0
C      1  0.4138720000000  0.5277280000000  0.5120590000000 1.0
C      1  0.5674530000000  0.4350820000000  0.5224480000000 1.0
C      1  0.5261140000000  0.5579720000000  0.5674630000000 1.0
C      1  0.4943110000000  0.4599460000000  0.5860400000000 1.0
C      1  0.4802680000000  0.5859230000000  0.4964620000000 1.0
C      1  0.4725850000000  0.4968650000000  0.4729540000000 1.0
C      1  0.5456060000000  0.5017580000000  0.4860980000000 1.0
C      1  0.4654070000000  0.4580860000000  0.5739670000000 1.0
C      1  0.4669500000000  0.4214700000000  0.5153190000000 1.0
C      1  0.5163770000000  0.5378060000000  0.5018000000000 1.0
C      1  0.5852430000000  0.5290710000000  0.4779600000000 1.0
C      1  0.5266260000000  0.4437440000000  0.5234340000000 1.0
C      1  0.5376900000000  0.4314160000000  0.4480160000000 1.0
C      1  0.4259370000000  0.4733240000000  0.4628130000000 1.0
C      1  0.4897160000000  0.5848730000000  0.5228550000000 1.0
END
