TITL C-92896-3852-1 -529.609292724973 125000 -831.632109277225 0 0 117 (C1) n - 1
REM
REM in /rds/project/t2_vol4/rds-t2-cs072/BORA/CARBON/from-Arr/AIRSS/Generating-Clusters/GAP-ML-2020/Only-C1/SD-CG/HFTN-CG
REM
REM
REM
REM
REM
REM ./C.cell (11c1c37f851c82e70ff6c80c92926a4b)
REM AIRSS Version 0.9.1 bugfix July 2018 build 013d7b7c2542+ Fri, 06 Jul 2018 19:26:36 +0100
REM compiler GCC version 9.3.0
REM options -cpp -mtune=generic -march=x86-64 -g -O0
REM seed 1658367438 2098258953 -114867591 -596854810 1155771756 2076343188 713788586 -525047413 353687580 -1616122214 1646912183 336238044 774431168 89957070 -630324517 1428227467 48292914 118768461 550627360 -1907557898 528338724 1663657555 1468864069 -1577163431 -210468108 -487588258 1884938297 -444099831 -1653709529 -311168874 -377228385 -847446107 -2092898853
REM
CELL 1.54180   50.00000   50.00000   50.00000   90.00000   90.00000   90.00000
LATT -1
SFAC C  
C      1  0.4971020000000  0.5672980000000  0.5521180000000 1.0
C      1  0.4906770000000  0.4331600000000  0.4290550000000 1.0
C      1  0.5677960000000  0.4605600000000  0.5514720000000 1.0
C      1  0.4460760000000  0.5321220000000  0.4930860000000 1.0
C      1  0.5484730000000  0.4281630000000  0.5259590000000 1.0
C      1  0.4404030000000  0.5230990000000  0.4444180000000 1.0
C      1  0.4957710000000  0.5288000000000  0.4884590000000 1.0
C      1  0.5665050000000  0.4833620000000  0.4729110000000 1.0
C      1  0.4809790000000  0.5085000000000  0.5406850000000 1.0
C      1  0.4009920000000  0.5453310000000  0.4945530000000 1.0
C      1  0.4536850000000  0.5697630000000  0.4673020000000 1.0
C      1  0.5550450000000  0.4798700000000  0.4212810000000 1.0
C      1  0.5385500000000  0.4409930000000  0.4250380000000 1.0
C      1  0.5440620000000  0.4236910000000  0.4797800000000 1.0
C      1  0.4223820000000  0.4763740000000  0.5180390000000 1.0
C      1  0.5292860000000  0.4727740000000  0.5871640000000 1.0
C      1  0.4124070000000  0.4758990000000  0.4920440000000 1.0
C      1  0.4202930000000  0.5037170000000  0.5266750000000 1.0
C      1  0.4703380000000  0.5972800000000  0.5282520000000 1.0
C      1  0.4105760000000  0.5546970000000  0.4728450000000 1.0
C      1  0.5361050000000  0.5428890000000  0.5678890000000 1.0
C      1  0.4757120000000  0.4617220000000  0.5183880000000 1.0
C      1  0.4627710000000  0.5223930000000  0.4261860000000 1.0
C      1  0.5489460000000  0.4931810000000  0.5800550000000 1.0
C      1  0.4263270000000  0.4995780000000  0.4546890000000 1.0
C      1  0.5686240000000  0.4877310000000  0.5607890000000 1.0
C      1  0.5420040000000  0.5530540000000  0.4324260000000 1.0
C      1  0.5035390000000  0.5228620000000  0.5332090000000 1.0
C      1  0.5855510000000  0.4939170000000  0.4922190000000 1.0
C      1  0.5151260000000  0.5132800000000  0.5093860000000 1.0
C      1  0.4192530000000  0.5207840000000  0.5018090000000 1.0
C      1  0.4997760000000  0.4556210000000  0.4673790000000 1.0
C      1  0.5705530000000  0.4404300000000  0.5110830000000 1.0
C      1  0.5717430000000  0.4574190000000  0.4618780000000 1.0
C      1  0.5370030000000  0.5174450000000  0.4720050000000 1.0
C      1  0.5094800000000  0.5241340000000  0.4130780000000 1.0
C      1  0.4758720000000  0.4279800000000  0.5513260000000 1.0
C      1  0.5376960000000  0.5280180000000  0.4206840000000 1.0
C      1  0.5399160000000  0.5270360000000  0.5010000000000 1.0
C      1  0.5185650000000  0.4838590000000  0.5010560000000 1.0
C      1  0.4623770000000  0.4985290000000  0.5932240000000 1.0
C      1  0.5720350000000  0.5319360000000  0.5305190000000 1.0
C      1  0.4820820000000  0.4789520000000  0.5997880000000 1.0
C      1  0.5342470000000  0.5557430000000  0.5209210000000 1.0
C      1  0.4408510000000  0.4401110000000  0.4924810000000 1.0
C      1  0.5199000000000  0.5713430000000  0.4354450000000 1.0
C      1  0.4497090000000  0.4423000000000  0.5506870000000 1.0
C      1  0.4793640000000  0.5760670000000  0.4592450000000 1.0
C      1  0.4436970000000  0.4543400000000  0.5209150000000 1.0
C      1  0.4496490000000  0.4566710000000  0.5754060000000 1.0
C      1  0.4874290000000  0.4539690000000  0.4104470000000 1.0
C      1  0.5552570000000  0.5644640000000  0.4572250000000 1.0
C      1  0.4758880000000  0.4538180000000  0.5876940000000 1.0
C      1  0.5127220000000  0.5150330000000  0.5977020000000 1.0
C      1  0.5671840000000  0.4388000000000  0.4827740000000 1.0
C      1  0.5054350000000  0.5535320000000  0.5278420000000 1.0
C      1  0.4885310000000  0.5558160000000  0.5028220000000 1.0
C      1  0.4627720000000  0.4272530000000  0.4796470000000 1.0
C      1  0.4935210000000  0.5824840000000  0.4855790000000 1.0
C      1  0.4861170000000  0.4808550000000  0.5396390000000 1.0
C      1  0.4135400000000  0.5009960000000  0.4799350000000 1.0
C      1  0.4559320000000  0.5538840000000  0.5395000000000 1.0
C      1  0.5630240000000  0.5616940000000  0.4847440000000 1.0
C      1  0.5223510000000  0.5865440000000  0.4835170000000 1.0
C      1  0.5725380000000  0.5373980000000  0.4995030000000 1.0
C      1  0.4403040000000  0.4839010000000  0.5825440000000 1.0
C      1  0.4939240000000  0.4377700000000  0.5722490000000 1.0
C      1  0.4560830000000  0.5281340000000  0.5545160000000 1.0
C      1  0.5281250000000  0.4715380000000  0.5233170000000 1.0
C      1  0.4504210000000  0.5786660000000  0.4948400000000 1.0
C      1  0.4717300000000  0.5973340000000  0.5018060000000 1.0
C      1  0.4651070000000  0.4699790000000  0.4178960000000 1.0
C      1  0.5817810000000  0.4604070000000  0.5268310000000 1.0
C      1  0.4812160000000  0.4168000000000  0.4995760000000 1.0
C      1  0.5464130000000  0.4409620000000  0.5521690000000 1.0
C      1  0.4382690000000  0.5453200000000  0.4646170000000 1.0
C      1  0.4525000000000  0.4576020000000  0.4398420000000 1.0
C      1  0.5327740000000  0.5832920000000  0.4578130000000 1.0
C      1  0.4294430000000  0.5128170000000  0.5524680000000 1.0
C      1  0.5423890000000  0.5744790000000  0.5002010000000 1.0
C      1  0.5091720000000  0.5536450000000  0.5731730000000 1.0
C      1  0.4677720000000  0.5248280000000  0.5830210000000 1.0
C      1  0.5122280000000  0.5295550000000  0.4649180000000 1.0
C      1  0.5839360000000  0.5191400000000  0.4807760000000 1.0
C      1  0.4711320000000  0.4977750000000  0.4135940000000 1.0
C      1  0.5611870000000  0.4552840000000  0.4364460000000 1.0
C      1  0.5085070000000  0.4870360000000  0.6002500000000 1.0
C      1  0.4722830000000  0.4398190000000  0.4533800000000 1.0
C      1  0.4573090000000  0.5543220000000  0.5096350000000 1.0
C      1  0.5215190000000  0.4509650000000  0.5669720000000 1.0
C      1  0.4312320000000  0.4700400000000  0.4525370000000 1.0
C      1  0.5650610000000  0.5110970000000  0.4578540000000 1.0
C      1  0.4728480000000  0.4893920000000  0.4814720000000 1.0
C      1  0.4710680000000  0.5779980000000  0.5472530000000 1.0
C      1  0.4924320000000  0.5649790000000  0.4364220000000 1.0
C      1  0.5795200000000  0.5051520000000  0.5392640000000 1.0
C      1  0.5884340000000  0.4870550000000  0.5190980000000 1.0
C      1  0.5507720000000  0.5466960000000  0.5430800000000 1.0
C      1  0.5172340000000  0.4264670000000  0.4366940000000 1.0
C      1  0.5127470000000  0.4726030000000  0.5456680000000 1.0
C      1  0.5081930000000  0.4723020000000  0.4023180000000 1.0
C      1  0.4940300000000  0.5344790000000  0.5891870000000 1.0
C      1  0.5180620000000  0.4267660000000  0.4663650000000 1.0
C      1  0.5562330000000  0.5070310000000  0.4294960000000 1.0
C      1  0.4822390000000  0.4307910000000  0.5242040000000 1.0
C      1  0.4241160000000  0.4561620000000  0.4764260000000 1.0
C      1  0.5326280000000  0.4158910000000  0.5051730000000 1.0
C      1  0.5337720000000  0.4870820000000  0.4752030000000 1.0
C      1  0.4910730000000  0.4710000000000  0.4926190000000 1.0
C      1  0.4866540000000  0.5398050000000  0.4237760000000 1.0
C      1  0.5074870000000  0.4133870000000  0.4912080000000 1.0
C      1  0.5173030000000  0.4746940000000  0.4550080000000 1.0
C      1  0.4982500000000  0.4993060000000  0.4051110000000 1.0
C      1  0.5339010000000  0.4647310000000  0.4086580000000 1.0
C      1  0.5376800000000  0.5192050000000  0.5847440000000 1.0
C      1  0.4190990000000  0.4988950000000  0.5739770000000 1.0
C      1  0.4702990000000  0.5143030000000  0.4894570000000 1.0
END
