TITL C-92902-3664-2 0.0580787814046818 125000 -778.137366721771 0 0 112 (C1) n - 1
REM
REM in /rds/project/t2_vol4/rds-t2-cs072/BORA/CARBON/from-Arr/AIRSS/Generating-Clusters/GAP-ML-2020/Only-C1/SD-CG/HFTN-CG
REM
REM
REM
REM
REM
REM ./C.cell (11c1c37f851c82e70ff6c80c92926a4b)
REM AIRSS Version 0.9.1 bugfix July 2018 build 013d7b7c2542+ Fri, 06 Jul 2018 19:26:36 +0100
REM compiler GCC version 9.3.0
REM options -cpp -mtune=generic -march=x86-64 -g -O0
REM seed -2029993865 -361044412 1401234258 -899810740 -990706767 -1033463543 -1305256784 -824590195 84918101 -1159727402 25074050 -1205678397 580097249 360139084 1075384316 231680239 -560679374 256920609 -582887609 10476897 788483272 -2118928977 -1988702170 -818552607 -1332666085 2142450322 488930847 1667834796 663857813 468621961 -352617480 646836717 -1152987449
REM
CELL 1.54180   50.00000   50.00000   50.00000   90.00000   90.00000   90.00000
LATT -1
SFAC C  
C      1  0.5280360000000  0.4365700000000  0.4889000000000 1.0
C      1  0.4628520000000  0.5851820000000  0.5490310000000 1.0
C      1  0.5477210000000  0.5849320000000  0.5335440000000 1.0
C      1  0.5055010000000  0.6106930000000  0.5236140000000 1.0
C      1  0.5175920000000  0.5300930000000  0.4939670000000 1.0
C      1  0.4910540000000  0.4160520000000  0.4685300000000 1.0
C      1  0.5686170000000  0.4846600000000  0.4732660000000 1.0
C      1  0.5060240000000  0.5664720000000  0.5351190000000 1.0
C      1  0.4713440000000  0.5351850000000  0.4210280000000 1.0
C      1  0.5646500000000  0.4182960000000  0.5342210000000 1.0
C      1  0.4779430000000  0.5132820000000  0.5128550000000 1.0
C      1  0.5583190000000  0.5322210000000  0.5358390000000 1.0
C      1  0.4634790000000  0.5601150000000  0.5591510000000 1.0
C      1  0.4227850000000  0.5252880000000  0.5032410000000 1.0
C      1  0.4530020000000  0.4625700000000  0.4636580000000 1.0
C      1  0.5355350000000  0.4725320000000  0.5735340000000 1.0
C      1  0.5079990000000  0.5044870000000  0.5083850000000 1.0
C      1  0.4593670000000  0.4757850000000  0.5743930000000 1.0
C      1  0.4993280000000  0.5348350000000  0.5727410000000 1.0
C      1  0.5276660000000  0.5831750000000  0.4920280000000 1.0
C      1  0.5506520000000  0.5471160000000  0.4369250000000 1.0
C      1  0.4605560000000  0.4943360000000  0.4982470000000 1.0
C      1  0.4276310000000  0.4846550000000  0.5329050000000 1.0
C      1  0.4540400000000  0.4746770000000  0.5195330000000 1.0
C      1  0.5644610000000  0.5229270000000  0.4443720000000 1.0
C      1  0.5244170000000  0.4022860000000  0.5493580000000 1.0
C      1  0.5204170000000  0.5805530000000  0.4462650000000 1.0
C      1  0.4768600000000  0.5199030000000  0.5811560000000 1.0
C      1  0.5675150000000  0.5548740000000  0.4966060000000 1.0
C      1  0.4469440000000  0.4367630000000  0.4768300000000 1.0
C      1  0.4421740000000  0.5514550000000  0.4656710000000 1.0
C      1  0.4731130000000  0.4290860000000  0.5128510000000 1.0
C      1  0.4409320000000  0.5237930000000  0.4590540000000 1.0
C      1  0.5246080000000  0.4630440000000  0.4752750000000 1.0
C      1  0.5232970000000  0.4462310000000  0.5166490000000 1.0
C      1  0.5530070000000  0.5725480000000  0.4792730000000 1.0
C      1  0.4811730000000  0.4918140000000  0.5839140000000 1.0
C      1  0.4899380000000  0.5517370000000  0.5531470000000 1.0
C      1  0.4671210000000  0.4508030000000  0.5592580000000 1.0
C      1  0.5275400000000  0.5333820000000  0.5721320000000 1.0
C      1  0.4884470000000  0.5066790000000  0.4592540000000 1.0
C      1  0.4876740000000  0.4284460000000  0.5594880000000 1.0
C      1  0.5150240000000  0.4538710000000  0.4223080000000 1.0
C      1  0.5378390000000  0.5604570000000  0.5753130000000 1.0
C      1  0.4605410000000  0.5146550000000  0.4404700000000 1.0
C      1  0.5039800000000  0.4997110000000  0.4033830000000 1.0
C      1  0.4335510000000  0.5178980000000  0.5572220000000 1.0
C      1  0.5004760000000  0.4749610000000  0.4910100000000 1.0
C      1  0.4958420000000  0.5314970000000  0.4759410000000 1.0
C      1  0.5304490000000  0.6009060000000  0.5162190000000 1.0
C      1  0.4339990000000  0.5062080000000  0.4818710000000 1.0
C      1  0.5753200000000  0.5152780000000  0.5222850000000 1.0
C      1  0.5407510000000  0.5154490000000  0.5523870000000 1.0
C      1  0.5658020000000  0.4666980000000  0.5339600000000 1.0
C      1  0.5227110000000  0.5563580000000  0.5107410000000 1.0
C      1  0.4135170000000  0.4637200000000  0.4933930000000 1.0
C      1  0.5524590000000  0.5036610000000  0.4274170000000 1.0
C      1  0.5537070000000  0.4771750000000  0.4374780000000 1.0
C      1  0.4978180000000  0.4714970000000  0.4074340000000 1.0
C      1  0.5768220000000  0.4910640000000  0.5404470000000 1.0
C      1  0.5078180000000  0.4824330000000  0.5752550000000 1.0
C      1  0.4571590000000  0.5586560000000  0.5030910000000 1.0
C      1  0.4231120000000  0.5149680000000  0.5297810000000 1.0
C      1  0.4711740000000  0.4692300000000  0.4177080000000 1.0
C      1  0.4945820000000  0.4550170000000  0.5141440000000 1.0
C      1  0.5756490000000  0.4689970000000  0.4505490000000 1.0
C      1  0.4373060000000  0.4888790000000  0.5614480000000 1.0
C      1  0.5080360000000  0.4275690000000  0.4243130000000 1.0
C      1  0.5123640000000  0.4975390000000  0.4444180000000 1.0
C      1  0.4714710000000  0.5829750000000  0.5009400000000 1.0
C      1  0.4069310000000  0.4718900000000  0.5186080000000 1.0
C      1  0.5269030000000  0.5422060000000  0.4222590000000 1.0
C      1  0.5309200000000  0.5760090000000  0.5542060000000 1.0
C      1  0.5521260000000  0.5571730000000  0.5216890000000 1.0
C      1  0.4874870000000  0.4291340000000  0.4427610000000 1.0
C      1  0.5771390000000  0.5275460000000  0.4947050000000 1.0
C      1  0.4796890000000  0.4695710000000  0.5361380000000 1.0
C      1  0.4468230000000  0.4421800000000  0.5195330000000 1.0
C      1  0.5161470000000  0.4117620000000  0.4834950000000 1.0
C      1  0.5615100000000  0.4417950000000  0.5483010000000 1.0
C      1  0.4764180000000  0.5367090000000  0.4973090000000 1.0
C      1  0.4792260000000  0.5594920000000  0.4314610000000 1.0
C      1  0.5224950000000  0.4951730000000  0.5314390000000 1.0
C      1  0.5255690000000  0.4706530000000  0.4456380000000 1.0
C      1  0.4320870000000  0.5511080000000  0.4931690000000 1.0
C      1  0.4663230000000  0.4513990000000  0.4394230000000 1.0
C      1  0.5473660000000  0.4744160000000  0.4890510000000 1.0
C      1  0.5000470000000  0.4867140000000  0.5481870000000 1.0
C      1  0.4536800000000  0.5341150000000  0.5692100000000 1.0
C      1  0.5167180000000  0.4253850000000  0.5645190000000 1.0
C      1  0.5472070000000  0.5706550000000  0.4518840000000 1.0
C      1  0.4430860000000  0.4398930000000  0.5472160000000 1.0
C      1  0.5409890000000  0.4710120000000  0.5179660000000 1.0
C      1  0.4650140000000  0.5684020000000  0.4552540000000 1.0
C      1  0.4789360000000  0.5138510000000  0.4032310000000 1.0
C      1  0.5248710000000  0.5127390000000  0.4198720000000 1.0
C      1  0.5738220000000  0.5131400000000  0.4704500000000 1.0
C      1  0.4801220000000  0.5850290000000  0.4738710000000 1.0
C      1  0.5383610000000  0.4451680000000  0.5669220000000 1.0
C      1  0.4768760000000  0.4834560000000  0.4761790000000 1.0
C      1  0.5217310000000  0.3969450000000  0.5072670000000 1.0
C      1  0.4829190000000  0.4123350000000  0.5353200000000 1.0
C      1  0.4269760000000  0.4783620000000  0.4730890000000 1.0
C      1  0.5563240000000  0.4919620000000  0.5623780000000 1.0
C      1  0.4850200000000  0.5897520000000  0.5260280000000 1.0
C      1  0.4605180000000  0.4953770000000  0.4169320000000 1.0
C      1  0.5080400000000  0.5890420000000  0.4699470000000 1.0
C      1  0.5040250000000  0.3941160000000  0.5305390000000 1.0
C      1  0.4692480000000  0.4209780000000  0.4850510000000 1.0
C      1  0.5075930000000  0.5633600000000  0.4281030000000 1.0
C      1  0.4283680000000  0.4401180000000  0.4976800000000 1.0
C      1  0.5437440000000  0.4030170000000  0.5275870000000 1.0
END
