TITL C-92888-3862-3 -133.825127238669 125000 -606.753144630043 0 0 88 (C1) n - 1
REM
REM in /rds/project/t2_vol4/rds-t2-cs072/BORA/CARBON/from-Arr/AIRSS/Generating-Clusters/GAP-ML-2020/Only-C1/SD-CG/HFTN-CG
REM
REM
REM
REM
REM
REM ./C.cell (11c1c37f851c82e70ff6c80c92926a4b)
REM AIRSS Version 0.9.1 bugfix July 2018 build 013d7b7c2542+ Fri, 06 Jul 2018 19:26:36 +0100
REM compiler GCC version 9.3.0
REM options -cpp -mtune=generic -march=x86-64 -g -O0
REM seed 1590131117 95736836 -1028769030 1257376928 -834609948 880432223 1326703748 827083513 1886140219 1673821115 -1135002449 -353713600 592493574 -1731447666 1617541061 -496211604 -1745028811 2118513792 922544259 -513463454 -248626865 -2062680158 -1198654855 -1538561189 -961111098 199918038 -944531092 -1876101023 171959536 2029663276 362415663 1667151568 1458118905
REM
CELL 1.54180   50.00000   50.00000   50.00000   90.00000   90.00000   90.00000
LATT -1
SFAC C  
C      1  0.4741960000000  0.5128950000000  0.4924220000000 1.0
C      1  0.4454380000000  0.5372350000000  0.4513850000000 1.0
C      1  0.5006290000000  0.4485450000000  0.5582910000000 1.0
C      1  0.4905220000000  0.4834090000000  0.4298280000000 1.0
C      1  0.5426920000000  0.4899580000000  0.5015360000000 1.0
C      1  0.4558980000000  0.5151260000000  0.4362620000000 1.0
C      1  0.4900210000000  0.4258200000000  0.4523150000000 1.0
C      1  0.5739400000000  0.5058940000000  0.4656230000000 1.0
C      1  0.5196170000000  0.4434710000000  0.5379240000000 1.0
C      1  0.5821670000000  0.5253110000000  0.5133830000000 1.0
C      1  0.4275290000000  0.4620500000000  0.4792990000000 1.0
C      1  0.4262380000000  0.5341100000000  0.4734110000000 1.0
C      1  0.5455480000000  0.4875250000000  0.4334690000000 1.0
C      1  0.5621500000000  0.5390250000000  0.5299800000000 1.0
C      1  0.5136270000000  0.5255940000000  0.4964560000000 1.0
C      1  0.4542070000000  0.4467530000000  0.5299100000000 1.0
C      1  0.5126450000000  0.5088820000000  0.5802770000000 1.0
C      1  0.4764480000000  0.5812330000000  0.5058170000000 1.0
C      1  0.4986080000000  0.5751110000000  0.4719690000000 1.0
C      1  0.5587840000000  0.4275400000000  0.5173260000000 1.0
C      1  0.5601890000000  0.5119280000000  0.4395300000000 1.0
C      1  0.4294640000000  0.4619020000000  0.5294590000000 1.0
C      1  0.4662870000000  0.4694160000000  0.4363190000000 1.0
C      1  0.5021270000000  0.5271420000000  0.4483190000000 1.0
C      1  0.4900570000000  0.4387790000000  0.4962250000000 1.0
C      1  0.5302860000000  0.5364140000000  0.4485630000000 1.0
C      1  0.5373580000000  0.4515450000000  0.4479590000000 1.0
C      1  0.4839790000000  0.5113970000000  0.4300890000000 1.0
C      1  0.5034770000000  0.4973590000000  0.5362480000000 1.0
C      1  0.4912020000000  0.4885710000000  0.5822620000000 1.0
C      1  0.5283200000000  0.5745500000000  0.5158050000000 1.0
C      1  0.4639060000000  0.5580540000000  0.4562800000000 1.0
C      1  0.5586570000000  0.4369480000000  0.4917230000000 1.0
C      1  0.5248350000000  0.5083030000000  0.5184730000000 1.0
C      1  0.5496580000000  0.4920790000000  0.5550200000000 1.0
C      1  0.5260780000000  0.4673480000000  0.4907630000000 1.0
C      1  0.4726020000000  0.5038760000000  0.5418120000000 1.0
C      1  0.4177470000000  0.4694640000000  0.5048910000000 1.0
C      1  0.5164830000000  0.5704420000000  0.5395810000000 1.0
C      1  0.4746070000000  0.5534590000000  0.5478650000000 1.0
C      1  0.4278240000000  0.5519130000000  0.4943240000000 1.0
C      1  0.4953060000000  0.4800330000000  0.5161330000000 1.0
C      1  0.4675680000000  0.4828940000000  0.5642980000000 1.0
C      1  0.4250640000000  0.4852810000000  0.5461200000000 1.0
C      1  0.4264840000000  0.4854350000000  0.4621320000000 1.0
C      1  0.4479520000000  0.4428680000000  0.4784030000000 1.0
C      1  0.5604870000000  0.4705260000000  0.5396120000000 1.0
C      1  0.4339910000000  0.5321360000000  0.5362400000000 1.0
C      1  0.4872780000000  0.4580940000000  0.4734880000000 1.0
C      1  0.4621690000000  0.5691950000000  0.5272910000000 1.0
C      1  0.5185390000000  0.4757380000000  0.4412150000000 1.0
C      1  0.4181380000000  0.5085420000000  0.5302080000000 1.0
C      1  0.4617670000000  0.4369530000000  0.5032280000000 1.0
C      1  0.4162280000000  0.5074000000000  0.4777930000000 1.0
C      1  0.5715060000000  0.4793150000000  0.5135300000000 1.0
C      1  0.4454520000000  0.4886500000000  0.4409680000000 1.0
C      1  0.5087680000000  0.4541990000000  0.5122260000000 1.0
C      1  0.4992870000000  0.5072920000000  0.4743890000000 1.0
C      1  0.5608520000000  0.4665370000000  0.4450400000000 1.0
C      1  0.4678160000000  0.4461770000000  0.4549170000000 1.0
C      1  0.4923390000000  0.5542030000000  0.4531140000000 1.0
C      1  0.5754740000000  0.4608350000000  0.4899170000000 1.0
C      1  0.4111590000000  0.4975250000000  0.5045510000000 1.0
C      1  0.5486820000000  0.5071610000000  0.4791730000000 1.0
C      1  0.5797780000000  0.5290220000000  0.4852060000000 1.0
C      1  0.4874130000000  0.5356650000000  0.5034790000000 1.0
C      1  0.4398940000000  0.4882050000000  0.5679710000000 1.0
C      1  0.5480620000000  0.4443020000000  0.5373340000000 1.0
C      1  0.5078470000000  0.4786690000000  0.4696720000000 1.0
C      1  0.5901450000000  0.5000800000000  0.5161630000000 1.0
C      1  0.4723220000000  0.4537200000000  0.5518850000000 1.0
C      1  0.5334720000000  0.4403550000000  0.4742700000000 1.0
C      1  0.5424500000000  0.5203140000000  0.5433230000000 1.0
C      1  0.5528860000000  0.5599830000000  0.5118430000000 1.0
C      1  0.5317390000000  0.4865100000000  0.5756040000000 1.0
C      1  0.5364700000000  0.5342890000000  0.4770810000000 1.0
C      1  0.5029890000000  0.5528820000000  0.5546400000000 1.0
C      1  0.4687250000000  0.5766120000000  0.4779380000000 1.0
C      1  0.4593720000000  0.5293790000000  0.5500280000000 1.0
C      1  0.5768060000000  0.4758440000000  0.4661960000000 1.0
C      1  0.5520490000000  0.5364990000000  0.4322780000000 1.0
C      1  0.5201180000000  0.5303140000000  0.5631960000000 1.0
C      1  0.5065070000000  0.4272390000000  0.4746420000000 1.0
C      1  0.4697600000000  0.4938480000000  0.5123210000000 1.0
C      1  0.5052720000000  0.5812110000000  0.4992500000000 1.0
C      1  0.4374380000000  0.5550790000000  0.5193000000000 1.0
C      1  0.5599120000000  0.5495230000000  0.4861410000000 1.0
C      1  0.5102200000000  0.4670920000000  0.5778630000000 1.0
END
