TITL C-92106-2038-8 -0.144591237394576 125000 -417.319767783188 0 0 61 (C1) n - 1
REM
REM in /rds/project/t2_vol4/rds-t2-cs072/BORA/CARBON/from-Arr/AIRSS/Generating-Clusters/GAP-ML-2020/Only-C1/SD-CG/HFTN-CG
REM
REM
REM
REM
REM
REM ./C.cell (11c1c37f851c82e70ff6c80c92926a4b)
REM AIRSS Version 0.9.1 bugfix July 2018 build 013d7b7c2542+ Fri, 06 Jul 2018 19:26:36 +0100
REM compiler GCC version 9.3.0
REM options -cpp -mtune=generic -march=x86-64 -g -O0
REM seed 1545598178 -1755766804 1280154854 1110778081 -1262478809 -1582950096 -1876065737 140302799 236913293 1472586320 1173633275 576770658 1674466267 -1024866755 509661970 1975114530 -385024269 1614314883 638424048 -2118793409 -1953376415 -507309468 1883998899 -591539603 1984482228 -638411601 1472739487 -1481741714 -751734494 1051134701 920530300 -955097030 867391563
REM
CELL 1.54180   50.00000   50.00000   50.00000   90.00000   90.00000   90.00000
LATT -1
SFAC C  
C      1  0.5569980000000  0.4620690000000  0.5016900000000 1.0
C      1  0.5133640000000  0.4563230000000  0.4440420000000 1.0
C      1  0.4353360000000  0.4714700000000  0.4963180000000 1.0
C      1  0.4933210000000  0.5689240000000  0.5337040000000 1.0
C      1  0.4686980000000  0.4462010000000  0.4313720000000 1.0
C      1  0.4420270000000  0.5394130000000  0.4592800000000 1.0
C      1  0.5323800000000  0.5419620000000  0.4692920000000 1.0
C      1  0.5175000000000  0.4910360000000  0.5065880000000 1.0
C      1  0.4391900000000  0.5395820000000  0.5152460000000 1.0
C      1  0.4478580000000  0.4641480000000  0.5202430000000 1.0
C      1  0.4943720000000  0.4341960000000  0.5140560000000 1.0
C      1  0.4717730000000  0.5331540000000  0.5552130000000 1.0
C      1  0.4772500000000  0.4865800000000  0.4839400000000 1.0
C      1  0.4731610000000  0.5059540000000  0.4609310000000 1.0
C      1  0.4741200000000  0.5746770000000  0.5135970000000 1.0
C      1  0.5681960000000  0.4887070000000  0.5079820000000 1.0
C      1  0.4678310000000  0.5049260000000  0.5047240000000 1.0
C      1  0.5081390000000  0.5127970000000  0.5189290000000 1.0
C      1  0.5290250000000  0.4735070000000  0.5641780000000 1.0
C      1  0.5362860000000  0.5192170000000  0.4526430000000 1.0
C      1  0.4613690000000  0.5539220000000  0.4738590000000 1.0
C      1  0.5510510000000  0.4685590000000  0.5459730000000 1.0
C      1  0.4790440000000  0.4622060000000  0.5492270000000 1.0
C      1  0.5396780000000  0.5181360000000  0.5602750000000 1.0
C      1  0.4982230000000  0.4297540000000  0.4854810000000 1.0
C      1  0.5678010000000  0.4900620000000  0.5365640000000 1.0
C      1  0.4875540000000  0.4661260000000  0.4335720000000 1.0
C      1  0.5661410000000  0.5136180000000  0.5504910000000 1.0
C      1  0.4490490000000  0.5330910000000  0.5407620000000 1.0
C      1  0.5313820000000  0.4973490000000  0.5777200000000 1.0
C      1  0.5525790000000  0.4763290000000  0.4574130000000 1.0
C      1  0.4816350000000  0.4154880000000  0.4685270000000 1.0
C      1  0.4401990000000  0.5132010000000  0.5029560000000 1.0
C      1  0.4707790000000  0.4255910000000  0.4475000000000 1.0
C      1  0.5160500000000  0.5707330000000  0.5133230000000 1.0
C      1  0.5215870000000  0.5319660000000  0.5404390000000 1.0
C      1  0.5055040000000  0.5498760000000  0.4659000000000 1.0
C      1  0.4863470000000  0.5269000000000  0.5054050000000 1.0
C      1  0.4843790000000  0.5313110000000  0.4758520000000 1.0
C      1  0.4428280000000  0.5116850000000  0.4627750000000 1.0
C      1  0.5629380000000  0.5119900000000  0.4910520000000 1.0
C      1  0.4569410000000  0.5085990000000  0.5534800000000 1.0
C      1  0.5341270000000  0.5492710000000  0.5174170000000 1.0
C      1  0.4965620000000  0.5464280000000  0.5497360000000 1.0
C      1  0.5179470000000  0.5013900000000  0.4381790000000 1.0
C      1  0.5472360000000  0.5372050000000  0.4944390000000 1.0
C      1  0.4872530000000  0.5706240000000  0.4685500000000 1.0
C      1  0.5463120000000  0.4566460000000  0.4767250000000 1.0
C      1  0.5156700000000  0.4513590000000  0.4738090000000 1.0
C      1  0.4707830000000  0.4464740000000  0.5258780000000 1.0
C      1  0.4888250000000  0.4951580000000  0.4376980000000 1.0
C      1  0.4575300000000  0.4812960000000  0.5465110000000 1.0
C      1  0.5435720000000  0.4518190000000  0.5249960000000 1.0
C      1  0.5574680000000  0.5033240000000  0.4645470000000 1.0
C      1  0.5317940000000  0.4767760000000  0.4383210000000 1.0
C      1  0.5070310000000  0.4580160000000  0.5530370000000 1.0
C      1  0.4283530000000  0.4954890000000  0.4837110000000 1.0
C      1  0.5167020000000  0.4428030000000  0.5304630000000 1.0
C      1  0.5035250000000  0.4774610000000  0.4881760000000 1.0
C      1  0.4962890000000  0.5770340000000  0.4937090000000 1.0
C      1  0.4531400000000  0.5600900000000  0.5015850000000 1.0
END
