TITL C-92891-3693-10 -0.0858827019581073 125000 -523.207333449958 0 0 76 (C1) n - 1
REM
REM in /rds/project/t2_vol4/rds-t2-cs072/BORA/CARBON/from-Arr/AIRSS/Generating-Clusters/GAP-ML-2020/Only-C1/SD-CG/HFTN-CG
REM
REM
REM
REM
REM
REM ./C.cell (11c1c37f851c82e70ff6c80c92926a4b)
REM AIRSS Version 0.9.1 bugfix July 2018 build 013d7b7c2542+ Fri, 06 Jul 2018 19:26:36 +0100
REM compiler GCC version 9.3.0
REM options -cpp -mtune=generic -march=x86-64 -g -O0
REM seed -2009133195 -624163433 25515008 -702140221 2015526234 -1164868412 -2035633729 -1126541484 207735933 -1284150862 -1107528352 -1948253140 1209043817 -1225266739 -1342846367 -113639586 -1139384733 380599346 -2017223003 -655673657 1674940220 1381542346 1904787247 1093260409 636245598 -939400779 -433671036 1864933520 1709815525 -598100107 -386208536 1476045691 -108727602
REM
CELL 1.54180   50.00000   50.00000   50.00000   90.00000   90.00000   90.00000
LATT -1
SFAC C  
C      1  0.4960520000000  0.5015710000000  0.4221160000000 1.0
C      1  0.4982680000000  0.4438940000000  0.4772690000000 1.0
C      1  0.5672510000000  0.4826070000000  0.4672410000000 1.0
C      1  0.4376240000000  0.4872830000000  0.5252590000000 1.0
C      1  0.4798790000000  0.4900290000000  0.5161360000000 1.0
C      1  0.5241410000000  0.5645150000000  0.5198010000000 1.0
C      1  0.5394580000000  0.5564700000000  0.4776550000000 1.0
C      1  0.4721090000000  0.5024830000000  0.4409240000000 1.0
C      1  0.4851370000000  0.5359800000000  0.5260950000000 1.0
C      1  0.4538460000000  0.4516310000000  0.4847010000000 1.0
C      1  0.4506110000000  0.5250950000000  0.4773800000000 1.0
C      1  0.5591680000000  0.5452790000000  0.4964500000000 1.0
C      1  0.4748270000000  0.4572900000000  0.4652850000000 1.0
C      1  0.4264730000000  0.4870810000000  0.4989350000000 1.0
C      1  0.4407250000000  0.5107450000000  0.5409190000000 1.0
C      1  0.4656840000000  0.5291930000000  0.4521960000000 1.0
C      1  0.5132650000000  0.4873860000000  0.4654110000000 1.0
C      1  0.5079780000000  0.4509440000000  0.5313220000000 1.0
C      1  0.5305420000000  0.5386300000000  0.4572900000000 1.0
C      1  0.4908190000000  0.5581750000000  0.4823910000000 1.0
C      1  0.5146210000000  0.4695360000000  0.4880220000000 1.0
C      1  0.5319870000000  0.5286760000000  0.5644340000000 1.0
C      1  0.4757740000000  0.4690780000000  0.5579040000000 1.0
C      1  0.5758440000000  0.4772220000000  0.5160640000000 1.0
C      1  0.5078870000000  0.4730500000000  0.4225150000000 1.0
C      1  0.4682540000000  0.4564470000000  0.4359660000000 1.0
C      1  0.5501560000000  0.4693800000000  0.5478920000000 1.0
C      1  0.5180300000000  0.5676890000000  0.4920520000000 1.0
C      1  0.5567530000000  0.4561910000000  0.5218840000000 1.0
C      1  0.5716700000000  0.5212820000000  0.4870930000000 1.0
C      1  0.5502640000000  0.5523880000000  0.5235720000000 1.0
C      1  0.5795470000000  0.4926590000000  0.4923080000000 1.0
C      1  0.4624450000000  0.5363170000000  0.5658010000000 1.0
C      1  0.5743830000000  0.5155220000000  0.5474860000000 1.0
C      1  0.4614180000000  0.4689780000000  0.5297670000000 1.0
C      1  0.4862310000000  0.5483230000000  0.4542790000000 1.0
C      1  0.5705630000000  0.4898670000000  0.5419210000000 1.0
C      1  0.5528280000000  0.4611940000000  0.4575130000000 1.0
C      1  0.5101200000000  0.5467140000000  0.5634860000000 1.0
C      1  0.5038300000000  0.5567270000000  0.5376760000000 1.0
C      1  0.5097250000000  0.5431690000000  0.4384210000000 1.0
C      1  0.4712240000000  0.4908700000000  0.5750950000000 1.0
C      1  0.4566550000000  0.5397870000000  0.5364570000000 1.0
C      1  0.4512490000000  0.5096120000000  0.5667360000000 1.0
C      1  0.5069010000000  0.4766680000000  0.5135030000000 1.0
C      1  0.5200720000000  0.4384400000000  0.4600980000000 1.0
C      1  0.4919500000000  0.5302870000000  0.4974160000000 1.0
C      1  0.5027460000000  0.4600820000000  0.5569130000000 1.0
C      1  0.5446680000000  0.4393430000000  0.4749320000000 1.0
C      1  0.4835180000000  0.4891180000000  0.4662090000000 1.0
C      1  0.4660590000000  0.5689780000000  0.4941480000000 1.0
C      1  0.4914610000000  0.4329990000000  0.5033290000000 1.0
C      1  0.4251960000000  0.5091820000000  0.4787330000000 1.0
C      1  0.4494090000000  0.5601820000000  0.5165880000000 1.0
C      1  0.4308220000000  0.4659480000000  0.4804820000000 1.0
C      1  0.5187850000000  0.5020850000000  0.5212650000000 1.0
C      1  0.4922760000000  0.5094260000000  0.5355800000000 1.0
C      1  0.5172570000000  0.4304420000000  0.5161200000000 1.0
C      1  0.4878900000000  0.5344770000000  0.5764410000000 1.0
C      1  0.4515870000000  0.4805750000000  0.4354450000000 1.0
C      1  0.5427490000000  0.4375820000000  0.5041350000000 1.0
C      1  0.5288480000000  0.5120780000000  0.4705200000000 1.0
C      1  0.5264700000000  0.4761470000000  0.5633100000000 1.0
C      1  0.4132780000000  0.4995830000000  0.4555940000000 1.0
C      1  0.4753670000000  0.5063060000000  0.4900250000000 1.0
C      1  0.4880830000000  0.4532860000000  0.4173300000000 1.0
C      1  0.4655260000000  0.4458580000000  0.5099450000000 1.0
C      1  0.4295340000000  0.4781040000000  0.4525580000000 1.0
C      1  0.5189590000000  0.5190210000000  0.4984660000000 1.0
C      1  0.5244300000000  0.4661060000000  0.4451950000000 1.0
C      1  0.5573850000000  0.5095520000000  0.4652330000000 1.0
C      1  0.4460840000000  0.5511480000000  0.4903450000000 1.0
C      1  0.4945690000000  0.5073790000000  0.5831750000000 1.0
C      1  0.5066020000000  0.5255210000000  0.4165390000000 1.0
C      1  0.5216900000000  0.5022620000000  0.5742010000000 1.0
C      1  0.5545160000000  0.5348770000000  0.5471050000000 1.0
END
