TITL C-92087-1745-9 -200.898930337595 125000 -519.432328681375 0 0 74 (C1) n - 1
REM
REM in /rds/project/t2_vol4/rds-t2-cs072/BORA/CARBON/from-Arr/AIRSS/Generating-Clusters/GAP-ML-2020/Only-C1/SD-CG/HFTN-CG
REM
REM
REM
REM
REM
REM ./C.cell (11c1c37f851c82e70ff6c80c92926a4b)
REM AIRSS Version 0.9.1 bugfix July 2018 build 013d7b7c2542+ Fri, 06 Jul 2018 19:26:36 +0100
REM compiler GCC version 9.3.0
REM options -cpp -mtune=generic -march=x86-64 -g -O0
REM seed -1034161335 985455796 -894986972 1177343619 2049842249 1034233405 -1249002817 -691579313 1080871089 101818008 1434516228 809263024 839561782 2101667214 -945070898 -1299432358 915956684 1102454545 -1145816709 849428313 1675688004 1078050044 -598174887 -1868716747 -1495285412 -1134162585 -927190384 1529802982 51883770 -1014890904 -2015431940 -2005949814 -1094258897
REM
CELL 1.54180   50.00000   50.00000   50.00000   90.00000   90.00000   90.00000
LATT -1
SFAC C  
C      1  0.4574960000000  0.4901950000000  0.4490150000000 1.0
C      1  0.4716850000000  0.5627010000000  0.5429980000000 1.0
C      1  0.5063550000000  0.4428270000000  0.5515030000000 1.0
C      1  0.5699490000000  0.4461220000000  0.4726520000000 1.0
C      1  0.5706130000000  0.4714830000000  0.4832270000000 1.0
C      1  0.4849460000000  0.5658950000000  0.4963390000000 1.0
C      1  0.5580450000000  0.5195740000000  0.5298130000000 1.0
C      1  0.4822450000000  0.4778370000000  0.4408170000000 1.0
C      1  0.5274660000000  0.4265070000000  0.5116490000000 1.0
C      1  0.4554660000000  0.5403240000000  0.4634020000000 1.0
C      1  0.5644010000000  0.5397250000000  0.4595430000000 1.0
C      1  0.4825060000000  0.5131070000000  0.5040130000000 1.0
C      1  0.5265030000000  0.4813410000000  0.4968940000000 1.0
C      1  0.5242350000000  0.4670770000000  0.4681360000000 1.0
C      1  0.4152570000000  0.4961340000000  0.5005370000000 1.0
C      1  0.5326250000000  0.5654440000000  0.4848580000000 1.0
C      1  0.5048640000000  0.4757960000000  0.5167620000000 1.0
C      1  0.5542550000000  0.4724920000000  0.5093640000000 1.0
C      1  0.4767040000000  0.5598900000000  0.4688620000000 1.0
C      1  0.4673330000000  0.4941970000000  0.5652980000000 1.0
C      1  0.4998930000000  0.5423600000000  0.4291750000000 1.0
C      1  0.4383300000000  0.5322250000000  0.4852690000000 1.0
C      1  0.5324230000000  0.4544490000000  0.5482820000000 1.0
C      1  0.5565250000000  0.5481140000000  0.4861290000000 1.0
C      1  0.5165820000000  0.5483970000000  0.5308430000000 1.0
C      1  0.5106150000000  0.4943500000000  0.5404720000000 1.0
C      1  0.5266500000000  0.5310040000000  0.4288550000000 1.0
C      1  0.5251370000000  0.5119460000000  0.4965720000000 1.0
C      1  0.5038410000000  0.4250120000000  0.5281740000000 1.0
C      1  0.4993130000000  0.5609670000000  0.5515010000000 1.0
C      1  0.4758910000000  0.4322310000000  0.5257290000000 1.0
C      1  0.4278150000000  0.4729090000000  0.4898620000000 1.0
C      1  0.4484280000000  0.4741420000000  0.4704360000000 1.0
C      1  0.5080150000000  0.4116570000000  0.4667000000000 1.0
C      1  0.4595270000000  0.5194090000000  0.4437740000000 1.0
C      1  0.4136720000000  0.5197440000000  0.4859200000000 1.0
C      1  0.5075480000000  0.5187950000000  0.5227580000000 1.0
C      1  0.4773320000000  0.4486710000000  0.5502640000000 1.0
C      1  0.5390110000000  0.4856900000000  0.4496220000000 1.0
C      1  0.5430880000000  0.4423710000000  0.4712100000000 1.0
C      1  0.5287230000000  0.4213620000000  0.4837120000000 1.0
C      1  0.5416380000000  0.5364550000000  0.5463070000000 1.0
C      1  0.5579360000000  0.4912580000000  0.5329180000000 1.0
C      1  0.4938480000000  0.4271930000000  0.4526900000000 1.0
C      1  0.4611570000000  0.4427820000000  0.5039580000000 1.0
C      1  0.4812630000000  0.4839690000000  0.5044440000000 1.0
C      1  0.5246220000000  0.5662790000000  0.4580700000000 1.0
C      1  0.5525490000000  0.5260850000000  0.5030200000000 1.0
C      1  0.5250160000000  0.5019590000000  0.4313570000000 1.0
C      1  0.4373950000000  0.4562150000000  0.5115210000000 1.0
C      1  0.5770860000000  0.5157450000000  0.4552140000000 1.0
C      1  0.4398720000000  0.5188230000000  0.5340730000000 1.0
C      1  0.4973390000000  0.4962830000000  0.4264570000000 1.0
C      1  0.4657490000000  0.5434080000000  0.5639640000000 1.0
C      1  0.4585260000000  0.4694280000000  0.5547280000000 1.0
C      1  0.5077000000000  0.5207180000000  0.5774860000000 1.0
C      1  0.4941680000000  0.4581180000000  0.4601500000000 1.0
C      1  0.5339950000000  0.5260050000000  0.5696860000000 1.0
C      1  0.5129370000000  0.5644800000000  0.5052800000000 1.0
C      1  0.4726940000000  0.4627210000000  0.4830660000000 1.0
C      1  0.4251820000000  0.4960480000000  0.5279160000000 1.0
C      1  0.4953420000000  0.4974680000000  0.5659860000000 1.0
C      1  0.4361670000000  0.4703870000000  0.5359020000000 1.0
C      1  0.4820300000000  0.5212250000000  0.4270030000000 1.0
C      1  0.4543660000000  0.5316650000000  0.5105670000000 1.0
C      1  0.5011830000000  0.5184140000000  0.4812350000000 1.0
C      1  0.5646190000000  0.4916210000000  0.4611100000000 1.0
C      1  0.5440460000000  0.4468680000000  0.5233040000000 1.0
C      1  0.4928330000000  0.5436480000000  0.5738070000000 1.0
C      1  0.4660870000000  0.5581560000000  0.5162240000000 1.0
C      1  0.4533820000000  0.5188750000000  0.5585690000000 1.0
C      1  0.4976760000000  0.5617860000000  0.4497740000000 1.0
C      1  0.5372870000000  0.4823190000000  0.5503110000000 1.0
C      1  0.5430030000000  0.5491230000000  0.4429620000000 1.0
END
