TITL C-93410-4922-10 312.182724634648 125000 -475.297259601278 0 0 69 (C1) n - 1
REM
REM in /rds/project/t2_vol4/rds-t2-cs072/BORA/CARBON/from-Arr/AIRSS/Generating-Clusters/GAP-ML-2020/Only-C1/SD-CG/HFTN-CG
REM
REM
REM
REM
REM
REM ./C.cell (11c1c37f851c82e70ff6c80c92926a4b)
REM AIRSS Version 0.9.1 bugfix July 2018 build 013d7b7c2542+ Fri, 06 Jul 2018 19:26:36 +0100
REM compiler GCC version 9.3.0
REM options -cpp -mtune=generic -march=x86-64 -g -O0
REM seed 2045244132 -1570297877 1955445961 -952327370 -854209311 457179835 -1599567250 76445199 252451550 1519402409 -1171553619 197992016 -403022161 1301037314 -739551595 -331923518 1641968797 2028570207 -1703343411 -1208826555 1938398977 339701543 1086795747 -1365862631 -987031720 2047343323 -1760381505 1902992614 1270251917 -709373135 1734554070 1345727634 156663543
REM
CELL 1.54180   50.00000   50.00000   50.00000   90.00000   90.00000   90.00000
LATT -1
SFAC C  
C      1  0.4736330000000  0.5069640000000  0.4325290000000 1.0
C      1  0.5211720000000  0.4763590000000  0.5629820000000 1.0
C      1  0.4287400000000  0.5157790000000  0.5084370000000 1.0
C      1  0.5268340000000  0.5189710000000  0.4503710000000 1.0
C      1  0.4496350000000  0.4865020000000  0.5488210000000 1.0
C      1  0.5579520000000  0.4720590000000  0.4626050000000 1.0
C      1  0.4323300000000  0.5108290000000  0.4607050000000 1.0
C      1  0.4372640000000  0.5372800000000  0.4670200000000 1.0
C      1  0.4755520000000  0.4965310000000  0.5531490000000 1.0
C      1  0.4678140000000  0.4517030000000  0.4496750000000 1.0
C      1  0.5126280000000  0.5080370000000  0.4786360000000 1.0
C      1  0.5628700000000  0.5186620000000  0.5346140000000 1.0
C      1  0.4855810000000  0.4966930000000  0.4831470000000 1.0
C      1  0.4399760000000  0.5116040000000  0.5350060000000 1.0
C      1  0.4933110000000  0.5644860000000  0.5337900000000 1.0
C      1  0.5563980000000  0.5391480000000  0.4849550000000 1.0
C      1  0.5023800000000  0.5568450000000  0.4773080000000 1.0
C      1  0.5178190000000  0.5008160000000  0.5225760000000 1.0
C      1  0.4587430000000  0.4583410000000  0.5449820000000 1.0
C      1  0.5288630000000  0.4325220000000  0.5469400000000 1.0
C      1  0.4949930000000  0.4882340000000  0.4287060000000 1.0
C      1  0.5665380000000  0.4619940000000  0.4886790000000 1.0
C      1  0.4586290000000  0.4532680000000  0.4963010000000 1.0
C      1  0.5109420000000  0.5440840000000  0.5447060000000 1.0
C      1  0.5483240000000  0.5621500000000  0.4965820000000 1.0
C      1  0.4730690000000  0.5621250000000  0.4792350000000 1.0
C      1  0.4485080000000  0.4962490000000  0.4419590000000 1.0
C      1  0.5578650000000  0.4484330000000  0.5120150000000 1.0
C      1  0.5539920000000  0.5219380000000  0.4630380000000 1.0
C      1  0.5112660000000  0.4479630000000  0.5629920000000 1.0
C      1  0.5261600000000  0.4754010000000  0.5347840000000 1.0
C      1  0.5225770000000  0.5311520000000  0.5209600000000 1.0
C      1  0.4802800000000  0.5185790000000  0.5026000000000 1.0
C      1  0.4345010000000  0.5412430000000  0.4957500000000 1.0
C      1  0.5132900000000  0.4357390000000  0.5034100000000 1.0
C      1  0.4765570000000  0.5225030000000  0.5639260000000 1.0
C      1  0.4537280000000  0.4438050000000  0.5228780000000 1.0
C      1  0.5552910000000  0.4701930000000  0.5299180000000 1.0
C      1  0.4270690000000  0.4963880000000  0.4853280000000 1.0
C      1  0.4467750000000  0.4698990000000  0.4524770000000 1.0
C      1  0.4806670000000  0.5341010000000  0.4412480000000 1.0
C      1  0.5481580000000  0.5145020000000  0.5572390000000 1.0
C      1  0.5045140000000  0.5262840000000  0.5659610000000 1.0
C      1  0.4572710000000  0.5337830000000  0.5453360000000 1.0
C      1  0.5703210000000  0.4935230000000  0.5218800000000 1.0
C      1  0.5683080000000  0.4985200000000  0.4687480000000 1.0
C      1  0.4659600000000  0.5560580000000  0.5296470000000 1.0
C      1  0.5772220000000  0.4891840000000  0.4951080000000 1.0
C      1  0.5028200000000  0.4577710000000  0.5199400000000 1.0
C      1  0.5250050000000  0.5051870000000  0.5696420000000 1.0
C      1  0.5031320000000  0.4363790000000  0.4761010000000 1.0
C      1  0.5505120000000  0.5373320000000  0.5140480000000 1.0
C      1  0.4880300000000  0.4988070000000  0.5240230000000 1.0
C      1  0.5225010000000  0.4942180000000  0.4348090000000 1.0
C      1  0.4613770000000  0.5485850000000  0.4574520000000 1.0
C      1  0.4557250000000  0.5585960000000  0.5030370000000 1.0
C      1  0.5135460000000  0.4502590000000  0.4514550000000 1.0
C      1  0.4835450000000  0.4753670000000  0.5049070000000 1.0
C      1  0.4380310000000  0.4700310000000  0.4795680000000 1.0
C      1  0.5218370000000  0.5735830000000  0.4942290000000 1.0
C      1  0.5358820000000  0.4289090000000  0.5200640000000 1.0
C      1  0.4909040000000  0.4608560000000  0.4366700000000 1.0
C      1  0.4872770000000  0.4489580000000  0.5445490000000 1.0
C      1  0.4744770000000  0.4391120000000  0.4744850000000 1.0
C      1  0.5053470000000  0.5331240000000  0.4958010000000 1.0
C      1  0.5287320000000  0.4937420000000  0.4960600000000 1.0
C      1  0.5346950000000  0.4698410000000  0.4469130000000 1.0
C      1  0.5065990000000  0.5414800000000  0.4499110000000 1.0
C      1  0.5077540000000  0.5804340000000  0.5166770000000 1.0
END
