TITL C-93028-4671-3 21.8274653971168 125000 -295.474669564003 0 0 44 (C1) n - 1
REM
REM in /rds/project/t2_vol4/rds-t2-cs072/BORA/CARBON/from-Arr/AIRSS/Generating-Clusters/GAP-ML-2020/Only-C1/SD-CG/HFTN-CG
REM
REM
REM
REM
REM
REM ./C.cell (11c1c37f851c82e70ff6c80c92926a4b)
REM AIRSS Version 0.9.1 bugfix July 2018 build 013d7b7c2542+ Fri, 06 Jul 2018 19:26:36 +0100
REM compiler GCC version 9.3.0
REM options -cpp -mtune=generic -march=x86-64 -g -O0
REM seed 1190737408 -1940139912 -97478881 -445405406 -12471663 -671882313 -581206673 797269957 1545233474 -2116337503 1592506251 580449129 -287614283 899687603 1826466133 -1676414248 780171813 -807480103 -1436339567 258803103 -1962163955 -654004350 -682053143 1951662126 -2111554976 -414919764 -1757278201 206962284 1601307993 -127935958 -2009294204 680506675 1738583461
REM
CELL 1.54180   50.00000   50.00000   50.00000   90.00000   90.00000   90.00000
LATT -1
SFAC C  
C      1  0.5742660000000  0.4834310000000  0.4945160000000 1.0
C      1  0.4574040000000  0.5429160000000  0.5367160000000 1.0
C      1  0.4949670000000  0.4832930000000  0.5083620000000 1.0
C      1  0.4454150000000  0.5265890000000  0.4961800000000 1.0
C      1  0.4784240000000  0.4650940000000  0.4611200000000 1.0
C      1  0.5321870000000  0.4822630000000  0.5437420000000 1.0
C      1  0.5586750000000  0.4595980000000  0.4994810000000 1.0
C      1  0.4374360000000  0.4819740000000  0.4830420000000 1.0
C      1  0.4603680000000  0.4973620000000  0.5505470000000 1.0
C      1  0.5589270000000  0.5050870000000  0.5046350000000 1.0
C      1  0.5086420000000  0.5526110000000  0.4875390000000 1.0
C      1  0.5368980000000  0.4652190000000  0.4809680000000 1.0
C      1  0.4692530000000  0.5643000000000  0.5228440000000 1.0
C      1  0.5594060000000  0.4432960000000  0.5216970000000 1.0
C      1  0.4560000000000  0.4600080000000  0.4780730000000 1.0
C      1  0.5062180000000  0.4977760000000  0.4367690000000 1.0
C      1  0.5119930000000  0.5399920000000  0.4611320000000 1.0
C      1  0.4394050000000  0.4984620000000  0.5313480000000 1.0
C      1  0.5009440000000  0.5175660000000  0.5439010000000 1.0
C      1  0.5454890000000  0.4594080000000  0.5366870000000 1.0
C      1  0.4794250000000  0.4629620000000  0.5241970000000 1.0
C      1  0.4888750000000  0.4752010000000  0.4381230000000 1.0
C      1  0.5468360000000  0.5251920000000  0.4880700000000 1.0
C      1  0.5244450000000  0.5263900000000  0.5283260000000 1.0
C      1  0.4374400000000  0.5263320000000  0.5223750000000 1.0
C      1  0.5062440000000  0.4895220000000  0.5535440000000 1.0
C      1  0.5753590000000  0.4819790000000  0.4657640000000 1.0
C      1  0.4799310000000  0.4765690000000  0.5497400000000 1.0
C      1  0.4923700000000  0.5223030000000  0.4489080000000 1.0
C      1  0.4572780000000  0.4566670000000  0.5086730000000 1.0
C      1  0.5496500000000  0.4786460000000  0.4579660000000 1.0
C      1  0.4767670000000  0.5115680000000  0.4710500000000 1.0
C      1  0.4465050000000  0.5074210000000  0.4757120000000 1.0
C      1  0.4730020000000  0.5242040000000  0.5511560000000 1.0
C      1  0.4834570000000  0.5561990000000  0.5012620000000 1.0
C      1  0.5331680000000  0.4997790000000  0.4462120000000 1.0
C      1  0.5285040000000  0.5404920000000  0.5037350000000 1.0
C      1  0.4909930000000  0.4857780000000  0.4789670000000 1.0
C      1  0.5355140000000  0.5235150000000  0.4620350000000 1.0
C      1  0.4881830000000  0.5102500000000  0.5172990000000 1.0
C      1  0.4368860000000  0.4772720000000  0.5125190000000 1.0
C      1  0.5170830000000  0.4822820000000  0.4898460000000 1.0
C      1  0.5431470000000  0.5051100000000  0.5284600000000 1.0
C      1  0.4766210000000  0.5281210000000  0.4967630000000 1.0
END
