TITL C-93410-4922-8 182.454629244886 125000 -767.885633509098 0 0 109 (C1) n - 1
REM
REM in /rds/project/t2_vol4/rds-t2-cs072/BORA/CARBON/from-Arr/AIRSS/Generating-Clusters/GAP-ML-2020/Only-C1/SD-CG/HFTN-CG
REM
REM
REM
REM
REM
REM ./C.cell (11c1c37f851c82e70ff6c80c92926a4b)
REM AIRSS Version 0.9.1 bugfix July 2018 build 013d7b7c2542+ Fri, 06 Jul 2018 19:26:36 +0100
REM compiler GCC version 9.3.0
REM options -cpp -mtune=generic -march=x86-64 -g -O0
REM seed -565201878 -1089256688 -1383436794 1635319727 -1283584494 -1432996305 -825959919 -1169194832 101596893 1531691573 -201632837 -1286046251 1493112597 1704101385 1374261748 -120451132 749779163 887103283 -733486201 -901715551 1852236510 -1620517141 2133949168 -1891609547 1743671135 -149281187 1885235717 1444583612 1012227206 1046776208 -2137985302 -1635508770 -1997751094
REM
CELL 1.54180   50.00000   50.00000   50.00000   90.00000   90.00000   90.00000
LATT -1
SFAC C  
C      1  0.4830340000000  0.5863660000000  0.4748390000000 1.0
C      1  0.4338230000000  0.5258900000000  0.5629970000000 1.0
C      1  0.5785660000000  0.4724080000000  0.4990310000000 1.0
C      1  0.4673270000000  0.5078250000000  0.4209710000000 1.0
C      1  0.4826510000000  0.4816850000000  0.5328900000000 1.0
C      1  0.4412220000000  0.5234550000000  0.4606510000000 1.0
C      1  0.4136790000000  0.5177360000000  0.5025980000000 1.0
C      1  0.5816740000000  0.5156620000000  0.5212970000000 1.0
C      1  0.5260880000000  0.4408060000000  0.4581470000000 1.0
C      1  0.4504930000000  0.5651140000000  0.5428110000000 1.0
C      1  0.5138640000000  0.5209550000000  0.4292250000000 1.0
C      1  0.4228170000000  0.5535760000000  0.5374450000000 1.0
C      1  0.5237920000000  0.5120030000000  0.5813570000000 1.0
C      1  0.5693970000000  0.4689800000000  0.4499720000000 1.0
C      1  0.4582870000000  0.5458950000000  0.5637270000000 1.0
C      1  0.5383650000000  0.4257910000000  0.5406990000000 1.0
C      1  0.4230820000000  0.4693560000000  0.5111090000000 1.0
C      1  0.5262900000000  0.4706740000000  0.4230390000000 1.0
C      1  0.4993950000000  0.5656170000000  0.4565250000000 1.0
C      1  0.5295520000000  0.4098500000000  0.4969000000000 1.0
C      1  0.4690280000000  0.4249780000000  0.5049170000000 1.0
C      1  0.5495020000000  0.4795350000000  0.5007410000000 1.0
C      1  0.5726900000000  0.5558730000000  0.4951100000000 1.0
C      1  0.5072790000000  0.4707410000000  0.5888680000000 1.0
C      1  0.5246120000000  0.5254900000000  0.4994640000000 1.0
C      1  0.5326460000000  0.4421540000000  0.5632080000000 1.0
C      1  0.4663910000000  0.5247510000000  0.5184790000000 1.0
C      1  0.4938460000000  0.5350210000000  0.5246800000000 1.0
C      1  0.5310380000000  0.4979920000000  0.4199950000000 1.0
C      1  0.4597910000000  0.5026360000000  0.4724760000000 1.0
C      1  0.4519380000000  0.4329170000000  0.5275900000000 1.0
C      1  0.4710920000000  0.4378580000000  0.4776720000000 1.0
C      1  0.4601350000000  0.5959230000000  0.4647100000000 1.0
C      1  0.4601710000000  0.5729480000000  0.5167450000000 1.0
C      1  0.4463570000000  0.4508800000000  0.4660670000000 1.0
C      1  0.5007350000000  0.5152070000000  0.4595750000000 1.0
C      1  0.4558710000000  0.5474220000000  0.4714000000000 1.0
C      1  0.4870870000000  0.5296020000000  0.4201830000000 1.0
C      1  0.4986880000000  0.4612730000000  0.4246340000000 1.0
C      1  0.5183910000000  0.4129530000000  0.5228610000000 1.0
C      1  0.5344480000000  0.4854110000000  0.4766480000000 1.0
C      1  0.4949170000000  0.5143420000000  0.5825370000000 1.0
C      1  0.4756060000000  0.4795670000000  0.4311160000000 1.0
C      1  0.4354720000000  0.4990540000000  0.5473470000000 1.0
C      1  0.4639200000000  0.4667850000000  0.5732400000000 1.0
C      1  0.4248620000000  0.4641260000000  0.4817070000000 1.0
C      1  0.5520450000000  0.5731770000000  0.5052090000000 1.0
C      1  0.5266390000000  0.4651170000000  0.5109840000000 1.0
C      1  0.5163530000000  0.4159540000000  0.4729040000000 1.0
C      1  0.5745380000000  0.5022080000000  0.5457850000000 1.0
C      1  0.5032010000000  0.5471000000000  0.4993540000000 1.0
C      1  0.4116830000000  0.5422580000000  0.5596580000000 1.0
C      1  0.4347500000000  0.4546740000000  0.5332130000000 1.0
C      1  0.4495110000000  0.4654330000000  0.4409090000000 1.0
C      1  0.5416570000000  0.5309350000000  0.5691080000000 1.0
C      1  0.4899990000000  0.4169670000000  0.5238140000000 1.0
C      1  0.4685230000000  0.5055060000000  0.4977660000000 1.0
C      1  0.5164510000000  0.5123360000000  0.5234990000000 1.0
C      1  0.4485340000000  0.5506230000000  0.5010430000000 1.0
C      1  0.4850160000000  0.5392490000000  0.5707490000000 1.0
C      1  0.4162760000000  0.5119150000000  0.4748790000000 1.0
C      1  0.5226360000000  0.5099050000000  0.4774370000000 1.0
C      1  0.5615670000000  0.4323250000000  0.5249530000000 1.0
C      1  0.4826070000000  0.4899060000000  0.4593860000000 1.0
C      1  0.5169800000000  0.4613180000000  0.4815480000000 1.0
C      1  0.5568650000000  0.4207980000000  0.4990390000000 1.0
C      1  0.4834170000000  0.5564300000000  0.4292800000000 1.0
C      1  0.4509700000000  0.5726440000000  0.4538370000000 1.0
C      1  0.5755080000000  0.4571470000000  0.5263310000000 1.0
C      1  0.5686970000000  0.4740600000000  0.5481880000000 1.0
C      1  0.5447120000000  0.4565310000000  0.4399010000000 1.0
C      1  0.5313370000000  0.5823420000000  0.4881030000000 1.0
C      1  0.5703980000000  0.4314940000000  0.4786550000000 1.0
C      1  0.5096840000000  0.4843070000000  0.5257480000000 1.0
C      1  0.5494070000000  0.5527340000000  0.4530850000000 1.0
C      1  0.4732280000000  0.4267400000000  0.5457470000000 1.0
C      1  0.5314470000000  0.4843940000000  0.5829180000000 1.0
C      1  0.5510810000000  0.5589010000000  0.5313420000000 1.0
C      1  0.5794130000000  0.4564190000000  0.4738980000000 1.0
C      1  0.4790940000000  0.4422580000000  0.5683560000000 1.0
C      1  0.5078700000000  0.5766420000000  0.5032670000000 1.0
C      1  0.5066950000000  0.4456240000000  0.5763980000000 1.0
C      1  0.4416120000000  0.5105870000000  0.4334330000000 1.0
C      1  0.4886570000000  0.4671300000000  0.4804260000000 1.0
C      1  0.4402840000000  0.4709570000000  0.5567090000000 1.0
C      1  0.5024160000000  0.5493310000000  0.5495940000000 1.0
C      1  0.4221930000000  0.5438250000000  0.5111370000000 1.0
C      1  0.4186800000000  0.4959750000000  0.5208360000000 1.0
C      1  0.5012450000000  0.4388390000000  0.4409280000000 1.0
C      1  0.5801920000000  0.5145480000000  0.4706300000000 1.0
C      1  0.5730790000000  0.4977250000000  0.4475420000000 1.0
C      1  0.5554770000000  0.5101120000000  0.4288560000000 1.0
C      1  0.5317190000000  0.5515930000000  0.5513280000000 1.0
C      1  0.5481740000000  0.4664720000000  0.5668880000000 1.0
C      1  0.4585760000000  0.5665280000000  0.4278600000000 1.0
C      1  0.4884160000000  0.5423260000000  0.4725840000000 1.0
C      1  0.4840040000000  0.4861750000000  0.5849150000000 1.0
C      1  0.4901760000000  0.4224170000000  0.4614460000000 1.0
C      1  0.5849910000000  0.5016350000000  0.4964050000000 1.0
C      1  0.4633160000000  0.5043500000000  0.5397130000000 1.0
C      1  0.4299090000000  0.4851940000000  0.4396600000000 1.0
C      1  0.5660330000000  0.5197100000000  0.5649730000000 1.0
C      1  0.4817750000000  0.5863800000000  0.5033380000000 1.0
C      1  0.4153290000000  0.4854190000000  0.4646710000000 1.0
C      1  0.5413060000000  0.5348270000000  0.4331460000000 1.0
C      1  0.5284890000000  0.5703750000000  0.4617820000000 1.0
C      1  0.5713220000000  0.5423340000000  0.4705100000000 1.0
C      1  0.5738710000000  0.5425850000000  0.5211040000000 1.0
C      1  0.4800570000000  0.4812020000000  0.5050900000000 1.0
END
