TITL C-93403-5022-8 29.2632474647658 125000 -322.854998201792 0 0 47 (C1) n - 1
REM
REM in /rds/project/t2_vol4/rds-t2-cs072/BORA/CARBON/from-Arr/AIRSS/Generating-Clusters/GAP-ML-2020/Only-C1/SD-CG/HFTN-CG
REM
REM
REM
REM
REM
REM ./C.cell (11c1c37f851c82e70ff6c80c92926a4b)
REM AIRSS Version 0.9.1 bugfix July 2018 build 013d7b7c2542+ Fri, 06 Jul 2018 19:26:36 +0100
REM compiler GCC version 9.3.0
REM options -cpp -mtune=generic -march=x86-64 -g -O0
REM seed -1812463471 -1962360986 1202892466 -1509133672 805853099 1726480322 390168270 -685170744 1063814043 257420662 1558313280 206367643 1855629987 -1893894135 403229369 -55762445 -124715911 549749113 -20123401 -531446965 187862135 -666273371 -1216656331 1844018871 -2071924564 -1922556162 2113230204 1735228802 1350938413 -1082231656 -1265728700 -1970826540 1434044108
REM
CELL 1.54180   50.00000   50.00000   50.00000   90.00000   90.00000   90.00000
LATT -1
SFAC C  
C      1  0.4956660000000  0.4649700000000  0.5465280000000 1.0
C      1  0.5062700000000  0.4493310000000  0.5258360000000 1.0
C      1  0.5078760000000  0.5445940000000  0.4611790000000 1.0
C      1  0.4640700000000  0.5267290000000  0.4635290000000 1.0
C      1  0.4836020000000  0.4426480000000  0.5088280000000 1.0
C      1  0.5314360000000  0.5345680000000  0.4741430000000 1.0
C      1  0.5163450000000  0.5202280000000  0.4964360000000 1.0
C      1  0.4806170000000  0.5552870000000  0.5263960000000 1.0
C      1  0.4895860000000  0.5254350000000  0.4486230000000 1.0
C      1  0.5236690000000  0.5446260000000  0.5120480000000 1.0
C      1  0.5378950000000  0.4565150000000  0.4900980000000 1.0
C      1  0.4847140000000  0.5584970000000  0.5531400000000 1.0
C      1  0.5450440000000  0.5144710000000  0.5430280000000 1.0
C      1  0.5226740000000  0.4521210000000  0.4675290000000 1.0
C      1  0.4425660000000  0.4976320000000  0.4982920000000 1.0
C      1  0.4608780000000  0.5401690000000  0.5113920000000 1.0
C      1  0.5592130000000  0.5008680000000  0.5209190000000 1.0
C      1  0.4891190000000  0.4870140000000  0.5000080000000 1.0
C      1  0.4963230000000  0.4545110000000  0.4603110000000 1.0
C      1  0.5480440000000  0.4752320000000  0.5326300000000 1.0
C      1  0.5537230000000  0.5168320000000  0.4717960000000 1.0
C      1  0.4899950000000  0.5094350000000  0.5549480000000 1.0
C      1  0.4686660000000  0.4722470000000  0.5410860000000 1.0
C      1  0.5446630000000  0.4694250000000  0.4659120000000 1.0
C      1  0.4926570000000  0.5091620000000  0.4839930000000 1.0
C      1  0.5451020000000  0.4954580000000  0.4535630000000 1.0
C      1  0.4995320000000  0.5005870000000  0.4373420000000 1.0
C      1  0.5012100000000  0.5354830000000  0.5522650000000 1.0
C      1  0.5354440000000  0.4899840000000  0.5539350000000 1.0
C      1  0.4519830000000  0.5140190000000  0.5196400000000 1.0
C      1  0.4920820000000  0.5578240000000  0.4809270000000 1.0
C      1  0.5336050000000  0.4562670000000  0.5178700000000 1.0
C      1  0.4663490000000  0.5468900000000  0.4836900000000 1.0
C      1  0.4446600000000  0.4691230000000  0.5008270000000 1.0
C      1  0.5661890000000  0.5091440000000  0.4968690000000 1.0
C      1  0.5081290000000  0.4873050000000  0.5577510000000 1.0
C      1  0.4657990000000  0.5006560000000  0.5415520000000 1.0
C      1  0.4601880000000  0.4564700000000  0.5203140000000 1.0
C      1  0.4487470000000  0.5041140000000  0.4702240000000 1.0
C      1  0.4590680000000  0.4805090000000  0.4586180000000 1.0
C      1  0.5125770000000  0.4959060000000  0.5132810000000 1.0
C      1  0.4547650000000  0.4592420000000  0.4766470000000 1.0
C      1  0.5266330000000  0.4988190000000  0.4334400000000 1.0
C      1  0.4843550000000  0.4774280000000  0.4465540000000 1.0
C      1  0.4782690000000  0.4443380000000  0.4804290000000 1.0
C      1  0.5276480000000  0.5353830000000  0.5390450000000 1.0
C      1  0.5023560000000  0.5625030000000  0.5065860000000 1.0
END
