TITL C-93017-5300-10 -0.132543992845825 125000 -285.958726644048 0 0 43 (C1) n - 1
REM
REM in /rds/project/t2_vol4/rds-t2-cs072/BORA/CARBON/from-Arr/AIRSS/Generating-Clusters/GAP-ML-2020/Only-C1/SD-CG/HFTN-CG
REM
REM
REM
REM
REM
REM ./C.cell (11c1c37f851c82e70ff6c80c92926a4b)
REM AIRSS Version 0.9.1 bugfix July 2018 build 013d7b7c2542+ Fri, 06 Jul 2018 19:26:36 +0100
REM compiler GCC version 9.3.0
REM options -cpp -mtune=generic -march=x86-64 -g -O0
REM seed -1825932408 -1751281347 -1247195794 -659147506 1231732578 228547142 572613232 -375397434 -1990072278 -1079779265 -1972082217 -2038230689 -76136969 1316834319 1498500902 1426101238 356269288 762331837 -1066023954 1433028889 739553595 -1467456955 -373682665 1320788553 1902861856 244752128 -1618078748 1488239406 163631332 -437856046 -1654869285 -1486843414 -1101616419
REM
CELL 1.54180   50.00000   50.00000   50.00000   90.00000   90.00000   90.00000
LATT -1
SFAC C  
C      1  0.5442230000000  0.5072140000000  0.4816880000000 1.0
C      1  0.4906990000000  0.4943550000000  0.5497060000000 1.0
C      1  0.5327320000000  0.5156380000000  0.5695060000000 1.0
C      1  0.5206760000000  0.4942570000000  0.5549530000000 1.0
C      1  0.4742500000000  0.4743650000000  0.5617760000000 1.0
C      1  0.5580620000000  0.4815510000000  0.4918160000000 1.0
C      1  0.4941040000000  0.5139290000000  0.4993740000000 1.0
C      1  0.4776300000000  0.4954570000000  0.4839190000000 1.0
C      1  0.5440850000000  0.5299250000000  0.5010790000000 1.0
C      1  0.4874520000000  0.5429920000000  0.5387090000000 1.0
C      1  0.4533410000000  0.5108150000000  0.5174390000000 1.0
C      1  0.4724440000000  0.5534690000000  0.5050140000000 1.0
C      1  0.4879790000000  0.4679230000000  0.4769590000000 1.0
C      1  0.5602120000000  0.4923150000000  0.5278260000000 1.0
C      1  0.5310780000000  0.4949930000000  0.4566610000000 1.0
C      1  0.5171510000000  0.4737640000000  0.4747490000000 1.0
C      1  0.4431860000000  0.4810110000000  0.4754210000000 1.0
C      1  0.5269200000000  0.4573560000000  0.5200780000000 1.0
C      1  0.5380550000000  0.4773430000000  0.5386620000000 1.0
C      1  0.5005970000000  0.4492260000000  0.5219290000000 1.0
C      1  0.5776360000000  0.4809260000000  0.5093430000000 1.0
C      1  0.5365440000000  0.5308840000000  0.5472500000000 1.0
C      1  0.4522170000000  0.4849430000000  0.5029300000000 1.0
C      1  0.5203880000000  0.5057080000000  0.4342060000000 1.0
C      1  0.4610750000000  0.4683830000000  0.4342630000000 1.0
C      1  0.4513780000000  0.5334790000000  0.4994240000000 1.0
C      1  0.4829990000000  0.4501520000000  0.4992580000000 1.0
C      1  0.4618900000000  0.4628040000000  0.4602820000000 1.0
C      1  0.5104360000000  0.5165390000000  0.4105820000000 1.0
C      1  0.4442610000000  0.5296960000000  0.4736280000000 1.0
C      1  0.5166030000000  0.5484500000000  0.5345420000000 1.0
C      1  0.5220490000000  0.5476260000000  0.5064710000000 1.0
C      1  0.4610290000000  0.4606320000000  0.5153190000000 1.0
C      1  0.5371440000000  0.4609160000000  0.4921400000000 1.0
C      1  0.5540590000000  0.5210080000000  0.5261960000000 1.0
C      1  0.4722410000000  0.5642010000000  0.5300320000000 1.0
C      1  0.4808160000000  0.5143250000000  0.5293780000000 1.0
C      1  0.4969460000000  0.5429000000000  0.4932780000000 1.0
C      1  0.4534630000000  0.5060850000000  0.4619550000000 1.0
C      1  0.4661260000000  0.4970500000000  0.4349440000000 1.0
C      1  0.4895420000000  0.5060080000000  0.4237980000000 1.0
C      1  0.4784980000000  0.4609410000000  0.5387180000000 1.0
C      1  0.5177840000000  0.4984460000000  0.4947940000000 1.0
END
