TITL C-93026-7668-5 -18.9667864602222 125000 -50.3877723450165 0 0 8 (D2h) n - 1
REM
REM in /rds/project/t2_vol4/rds-t2-cs072/BORA/CARBON/from-Arr/AIRSS/Generating-Clusters/GAP-ML-2020/Only-C1/SD-CG/HFTN-CG
REM
REM
REM
REM
REM
REM ./C.cell (11c1c37f851c82e70ff6c80c92926a4b)
REM AIRSS Version 0.9.1 bugfix July 2018 build 013d7b7c2542+ Fri, 06 Jul 2018 19:26:36 +0100
REM compiler GCC version 9.3.0
REM options -cpp -mtune=generic -march=x86-64 -g -O0
REM seed 2075444569 -509090556 524997687 1915996310 -1522920411 -698065338 -1528423463 965585413 -1598933952 -1090207254 -57353396 -26935633 950242832 -385682830 1203384414 27467118 -964913106 1588541824 239804724 -1300235590 86128282 -1136750791 1201229816 -832542812 623723793 868988224 487568254 -1989335802 -1725521826 -1059123431 945258481 1110548848 409178226
REM
CELL 1.54180   50.00000   50.00000   50.00000   90.00000   90.00000   90.00000
LATT -1
SFAC C  
C      1  0.4959550000000  0.4901260000000  0.4936620000000 1.0
C      1  0.4874180000000  0.4692820000000  0.4802840000000 1.0
C      1  0.5040450000000  0.5098740000000  0.5063380000000 1.0
C      1  0.4764200000000  0.4577060000000  0.4582660000000 1.0
C      1  0.5125820000000  0.5307180000000  0.5197160000000 1.0
C      1  0.5235800000000  0.5422940000000  0.5417340000000 1.0
C      1  0.5172530000000  0.5573930000000  0.5222490000000 1.0
C      1  0.4827470000000  0.4426070000000  0.4777510000000 1.0
END
