TITL C-93027-7368-2 -0.0802172639373106 125000 -806.963832691282 0 0 116 (C1) n - 1
REM
REM in /rds/project/t2_vol4/rds-t2-cs072/BORA/CARBON/from-Arr/AIRSS/Generating-Clusters/GAP-ML-2020/Only-C1/SD-CG/HFTN-CG
REM
REM
REM
REM
REM
REM ./C.cell (11c1c37f851c82e70ff6c80c92926a4b)
REM AIRSS Version 0.9.1 bugfix July 2018 build 013d7b7c2542+ Fri, 06 Jul 2018 19:26:36 +0100
REM compiler GCC version 9.3.0
REM options -cpp -mtune=generic -march=x86-64 -g -O0
REM seed 1945679855 893901779 2022029743 -722940725 -1310516882 -322830623 -1055988062 611333385 -1096129598 -1014022729 1014034073 1381838527 1752567391 870361503 1232807485 998193233 -727148972 -38457591 -385558031 271064605 -1597787080 -486021749 -299150867 -560411887 1651339246 1839214482 29071791 -1805078265 563761449 1592907018 -540839722 388149619 956860195
REM
CELL 1.54180   50.00000   50.00000   50.00000   90.00000   90.00000   90.00000
LATT -1
SFAC C  
C      1  0.5025450000000  0.5194600000000  0.5499410000000 1.0
C      1  0.5277450000000  0.5483740000000  0.5764150000000 1.0
C      1  0.5701020000000  0.5357180000000  0.5616540000000 1.0
C      1  0.5047180000000  0.5600270000000  0.4575320000000 1.0
C      1  0.5657240000000  0.4596750000000  0.4618460000000 1.0
C      1  0.4834330000000  0.5824720000000  0.4523880000000 1.0
C      1  0.4628340000000  0.5102150000000  0.5785650000000 1.0
C      1  0.5127500000000  0.4673010000000  0.4691130000000 1.0
C      1  0.5859150000000  0.5278310000000  0.5397140000000 1.0
C      1  0.5346130000000  0.4871060000000  0.5108910000000 1.0
C      1  0.5828600000000  0.4791660000000  0.5533050000000 1.0
C      1  0.4288220000000  0.4175320000000  0.4751110000000 1.0
C      1  0.4900820000000  0.4999700000000  0.5101560000000 1.0
C      1  0.5781030000000  0.4565040000000  0.5354110000000 1.0
C      1  0.4442470000000  0.5549540000000  0.4589560000000 1.0
C      1  0.4245670000000  0.5226640000000  0.4873270000000 1.0
C      1  0.5440410000000  0.5185990000000  0.4292530000000 1.0
C      1  0.4820660000000  0.5459510000000  0.5213200000000 1.0
C      1  0.4442140000000  0.5077920000000  0.4140730000000 1.0
C      1  0.5102590000000  0.5483880000000  0.5106930000000 1.0
C      1  0.5475510000000  0.5440290000000  0.4418440000000 1.0
C      1  0.5184480000000  0.5733460000000  0.5247660000000 1.0
C      1  0.5164150000000  0.4140690000000  0.5122930000000 1.0
C      1  0.4262190000000  0.5504490000000  0.5042710000000 1.0
C      1  0.4572490000000  0.4181050000000  0.4732460000000 1.0
C      1  0.5651200000000  0.5412780000000  0.4640470000000 1.0
C      1  0.4517360000000  0.5550830000000  0.5538520000000 1.0
C      1  0.5630690000000  0.5016720000000  0.4426570000000 1.0
C      1  0.5215160000000  0.4124950000000  0.4410270000000 1.0
C      1  0.5810360000000  0.5375050000000  0.5130680000000 1.0
C      1  0.4806030000000  0.5609110000000  0.5501790000000 1.0
C      1  0.5391630000000  0.4622730000000  0.4248450000000 1.0
C      1  0.5178290000000  0.4782690000000  0.4152610000000 1.0
C      1  0.5950710000000  0.4924520000000  0.5104140000000 1.0
C      1  0.4679850000000  0.4198640000000  0.5217560000000 1.0
C      1  0.4920200000000  0.4526390000000  0.5075210000000 1.0
C      1  0.4331950000000  0.4798140000000  0.4501500000000 1.0
C      1  0.4726990000000  0.5119010000000  0.4045250000000 1.0
C      1  0.4307110000000  0.4772370000000  0.5557780000000 1.0
C      1  0.4304900000000  0.5299750000000  0.4593280000000 1.0
C      1  0.5609410000000  0.5586900000000  0.5089520000000 1.0
C      1  0.5660950000000  0.4863000000000  0.5750270000000 1.0
C      1  0.4439080000000  0.4412380000000  0.5176070000000 1.0
C      1  0.4972380000000  0.4282030000000  0.5293210000000 1.0
C      1  0.5403170000000  0.5010920000000  0.4860200000000 1.0
C      1  0.4329520000000  0.4719680000000  0.4785630000000 1.0
C      1  0.5431930000000  0.4248110000000  0.5151400000000 1.0
C      1  0.4275250000000  0.4609980000000  0.5319730000000 1.0
C      1  0.4883240000000  0.5214150000000  0.5870720000000 1.0
C      1  0.4459650000000  0.5650630000000  0.4876930000000 1.0
C      1  0.4661020000000  0.5611810000000  0.4408020000000 1.0
C      1  0.5670800000000  0.5131660000000  0.4716720000000 1.0
C      1  0.4726440000000  0.4505510000000  0.4319460000000 1.0
C      1  0.4457420000000  0.5302590000000  0.5680730000000 1.0
C      1  0.4802690000000  0.5179170000000  0.5306010000000 1.0
C      1  0.4275470000000  0.5224470000000  0.5454610000000 1.0
C      1  0.4561250000000  0.4837610000000  0.5657540000000 1.0
C      1  0.4590540000000  0.5917000000000  0.4957850000000 1.0
C      1  0.4128200000000  0.4827940000000  0.5196710000000 1.0
C      1  0.4643440000000  0.4624520000000  0.5183760000000 1.0
C      1  0.4465290000000  0.4639190000000  0.4297330000000 1.0
C      1  0.5863980000000  0.5148920000000  0.4945730000000 1.0
C      1  0.4961390000000  0.5129670000000  0.4754980000000 1.0
C      1  0.4955890000000  0.5241650000000  0.4164150000000 1.0
C      1  0.4908080000000  0.4667770000000  0.4140670000000 1.0
C      1  0.4930350000000  0.5852040000000  0.5357960000000 1.0
C      1  0.4784090000000  0.4332560000000  0.4571590000000 1.0
C      1  0.5346050000000  0.4366810000000  0.4392270000000 1.0
C      1  0.5233950000000  0.5265580000000  0.5287200000000 1.0
C      1  0.4729670000000  0.5004840000000  0.4871040000000 1.0
C      1  0.4811440000000  0.6110540000000  0.4501900000000 1.0
C      1  0.4740700000000  0.5940440000000  0.5185480000000 1.0
C      1  0.5536900000000  0.5609010000000  0.4812650000000 1.0
C      1  0.5179230000000  0.4952510000000  0.4705490000000 1.0
C      1  0.5132120000000  0.5088340000000  0.5976930000000 1.0
C      1  0.4520880000000  0.5193570000000  0.4973470000000 1.0
C      1  0.4897850000000  0.5459400000000  0.4333550000000 1.0
C      1  0.4314120000000  0.4411380000000  0.4893840000000 1.0
C      1  0.5937550000000  0.5004310000000  0.5377330000000 1.0
C      1  0.5374550000000  0.5024510000000  0.5335350000000 1.0
C      1  0.5371560000000  0.4466840000000  0.5600200000000 1.0
C      1  0.4511580000000  0.5142860000000  0.5264540000000 1.0
C      1  0.5341630000000  0.5639510000000  0.4585290000000 1.0
C      1  0.4635560000000  0.4738860000000  0.4869440000000 1.0
C      1  0.5551220000000  0.4385780000000  0.5387390000000 1.0
C      1  0.5879420000000  0.4641280000000  0.5091140000000 1.0
C      1  0.4327060000000  0.5077590000000  0.4412270000000 1.0
C      1  0.5010090000000  0.4714910000000  0.5465910000000 1.0
C      1  0.4310560000000  0.5483950000000  0.5323120000000 1.0
C      1  0.4727360000000  0.4089860000000  0.4960600000000 1.0
C      1  0.4174760000000  0.4927050000000  0.4940040000000 1.0
C      1  0.5382310000000  0.4470700000000  0.4676190000000 1.0
C      1  0.4680250000000  0.5453290000000  0.4945220000000 1.0
C      1  0.5002120000000  0.4071290000000  0.4886830000000 1.0
C      1  0.5200670000000  0.5076670000000  0.4173730000000 1.0
C      1  0.5436760000000  0.4684660000000  0.5791010000000 1.0
C      1  0.5766360000000  0.4504730000000  0.4865960000000 1.0
C      1  0.5211270000000  0.4849590000000  0.5851440000000 1.0
C      1  0.4132870000000  0.4980280000000  0.5454830000000 1.0
C      1  0.5359030000000  0.5251790000000  0.5909040000000 1.0
C      1  0.5159450000000  0.4935010000000  0.5572870000000 1.0
C      1  0.5067110000000  0.4765620000000  0.5160320000000 1.0
C      1  0.4706690000000  0.6020700000000  0.4724190000000 1.0
C      1  0.4869600000000  0.4556540000000  0.4779150000000 1.0
C      1  0.5496900000000  0.5558610000000  0.5584350000000 1.0
C      1  0.4987520000000  0.5433640000000  0.5682580000000 1.0
C      1  0.4723470000000  0.4707620000000  0.5466370000000 1.0
C      1  0.4963470000000  0.5424640000000  0.4817090000000 1.0
C      1  0.5452000000000  0.5682840000000  0.5324030000000 1.0
C      1  0.5537330000000  0.4335180000000  0.4910070000000 1.0
C      1  0.5606690000000  0.5149690000000  0.5796170000000 1.0
C      1  0.5010790000000  0.4125990000000  0.4600280000000 1.0
C      1  0.5095500000000  0.4439440000000  0.5516590000000 1.0
C      1  0.4740660000000  0.4834880000000  0.3983360000000 1.0
C      1  0.5619110000000  0.4743720000000  0.4383140000000 1.0
C      1  0.4467690000000  0.4800700000000  0.4066340000000 1.0
END
