TITL C-93036-7706-6 -519.558044987167 125000 -442.156374837733 0 0 65 (C1) n - 1
REM
REM in /rds/project/t2_vol4/rds-t2-cs072/BORA/CARBON/from-Arr/AIRSS/Generating-Clusters/GAP-ML-2020/Only-C1/SD-CG/HFTN-CG
REM
REM
REM
REM
REM
REM ./C.cell (11c1c37f851c82e70ff6c80c92926a4b)
REM AIRSS Version 0.9.1 bugfix July 2018 build 013d7b7c2542+ Fri, 06 Jul 2018 19:26:36 +0100
REM compiler GCC version 9.3.0
REM options -cpp -mtune=generic -march=x86-64 -g -O0
REM seed 1544733799 1026192297 -967542891 -1177127853 -1323370949 857888068 -1169277004 -223183884 241654758 1743581408 -223596753 440580905 -93349227 -1811829181 -1641384912 610224909 -1736304777 1261957876 -1835354908 -1639065164 -1459814535 -1275897458 2106456425 -1573162104 -2143879167 807851697 -1485206783 -1327813906 1819541443 1697245428 -1364385331 1113020038 2062158186
REM
CELL 1.54180   50.00000   50.00000   50.00000   90.00000   90.00000   90.00000
LATT -1
SFAC C  
C      1  0.4375530000000  0.5308560000000  0.4573230000000 1.0
C      1  0.4509940000000  0.4545820000000  0.4838360000000 1.0
C      1  0.4718970000000  0.4389320000000  0.4699330000000 1.0
C      1  0.5057710000000  0.4820070000000  0.5595260000000 1.0
C      1  0.5239740000000  0.5021080000000  0.5668930000000 1.0
C      1  0.5371150000000  0.4770720000000  0.4453590000000 1.0
C      1  0.5636970000000  0.4575050000000  0.4796160000000 1.0
C      1  0.5168830000000  0.4958620000000  0.4324340000000 1.0
C      1  0.5151180000000  0.4849770000000  0.4801470000000 1.0
C      1  0.4401350000000  0.4775170000000  0.4697040000000 1.0
C      1  0.4949490000000  0.4136920000000  0.5088930000000 1.0
C      1  0.5444440000000  0.4552710000000  0.5255230000000 1.0
C      1  0.4615840000000  0.4583300000000  0.5417040000000 1.0
C      1  0.4855920000000  0.5335160000000  0.5647020000000 1.0
C      1  0.4330000000000  0.5253030000000  0.4836040000000 1.0
C      1  0.5010940000000  0.4259940000000  0.5319410000000 1.0
C      1  0.4872660000000  0.4862620000000  0.4836290000000 1.0
C      1  0.4827080000000  0.5137200000000  0.4823000000000 1.0
C      1  0.4577490000000  0.5171690000000  0.4454180000000 1.0
C      1  0.5222600000000  0.4393230000000  0.4800170000000 1.0
C      1  0.4805160000000  0.5563070000000  0.4664850000000 1.0
C      1  0.5582930000000  0.5018580000000  0.5055160000000 1.0
C      1  0.4632370000000  0.5605950000000  0.4897850000000 1.0
C      1  0.4898890000000  0.5680850000000  0.5311090000000 1.0
C      1  0.5661060000000  0.5025750000000  0.4763780000000 1.0
C      1  0.4715610000000  0.4701280000000  0.4330610000000 1.0
C      1  0.5563270000000  0.5275740000000  0.4675200000000 1.0
C      1  0.5373880000000  0.5882040000000  0.5271950000000 1.0
C      1  0.4548370000000  0.4635640000000  0.5125750000000 1.0
C      1  0.4941480000000  0.5266090000000  0.5041510000000 1.0
C      1  0.5115930000000  0.5234490000000  0.4419510000000 1.0
C      1  0.5452300000000  0.4468250000000  0.4968790000000 1.0
C      1  0.5091170000000  0.5105840000000  0.5202230000000 1.0
C      1  0.5535880000000  0.4830760000000  0.5295420000000 1.0
C      1  0.4731790000000  0.5472450000000  0.5442640000000 1.0
C      1  0.4851110000000  0.5730040000000  0.5039460000000 1.0
C      1  0.5284620000000  0.5578570000000  0.4761460000000 1.0
C      1  0.5191590000000  0.5695780000000  0.5388750000000 1.0
C      1  0.4663570000000  0.4879530000000  0.5481470000000 1.0
C      1  0.4458510000000  0.5427420000000  0.5028960000000 1.0
C      1  0.5515350000000  0.5454100000000  0.4903840000000 1.0
C      1  0.5582330000000  0.5300480000000  0.5140820000000 1.0
C      1  0.5030110000000  0.5686430000000  0.4806430000000 1.0
C      1  0.5073260000000  0.4546850000000  0.5609050000000 1.0
C      1  0.4842980000000  0.5289430000000  0.4541430000000 1.0
C      1  0.4519980000000  0.5337820000000  0.5296470000000 1.0
C      1  0.5470690000000  0.5025020000000  0.5500110000000 1.0
C      1  0.5252340000000  0.4410990000000  0.5414620000000 1.0
C      1  0.5279300000000  0.4956000000000  0.5032010000000 1.0
C      1  0.4836690000000  0.4426350000000  0.5484810000000 1.0
C      1  0.4963580000000  0.4273250000000  0.4846460000000 1.0
C      1  0.5124200000000  0.5289260000000  0.5673570000000 1.0
C      1  0.4526180000000  0.4879820000000  0.4461050000000 1.0
C      1  0.4390290000000  0.4884440000000  0.5141140000000 1.0
C      1  0.4840130000000  0.4733860000000  0.5095890000000 1.0
C      1  0.5324970000000  0.5381820000000  0.4541490000000 1.0
C      1  0.4945000000000  0.4827510000000  0.4235280000000 1.0
C      1  0.4479560000000  0.5056640000000  0.5347060000000 1.0
C      1  0.4925890000000  0.4892490000000  0.5331640000000 1.0
C      1  0.5301270000000  0.5464190000000  0.5533020000000 1.0
C      1  0.5607210000000  0.4787930000000  0.4618340000000 1.0
C      1  0.4710610000000  0.4435220000000  0.4429520000000 1.0
C      1  0.5205510000000  0.4612340000000  0.4621730000000 1.0
C      1  0.4311690000000  0.4971880000000  0.4889600000000 1.0
C      1  0.5503580000000  0.5297770000000  0.5413170000000 1.0
END
