TITL C-93403-5022-4 0.133668013204386 125000 -673.892970131028 0 0 95 (C1) n - 1
REM
REM in /rds/project/t2_vol4/rds-t2-cs072/BORA/CARBON/from-Arr/AIRSS/Generating-Clusters/GAP-ML-2020/Only-C1/SD-CG/HFTN-CG
REM
REM
REM
REM
REM
REM ./C.cell (11c1c37f851c82e70ff6c80c92926a4b)
REM AIRSS Version 0.9.1 bugfix July 2018 build 013d7b7c2542+ Fri, 06 Jul 2018 19:26:36 +0100
REM compiler GCC version 9.3.0
REM options -cpp -mtune=generic -march=x86-64 -g -O0
REM seed -719566530 2018097231 433974528 -288505274 -1841893053 -1465882182 2060356343 -1671043078 -1891704340 1960374768 -1943403698 -639435824 -1316890176 1172741305 1322499174 765735206 86969533 457639075 1187283520 -353488005 598064161 -889189661 -1476473161 -89680092 -634872845 1930273632 -1456618125 1261362155 208466324 71759230 994089365 1090452418 974433336
REM
CELL 1.54180   50.00000   50.00000   50.00000   90.00000   90.00000   90.00000
LATT -1
SFAC C  
C      1  0.4622540000000  0.5341140000000  0.4383550000000 1.0
C      1  0.4412310000000  0.4500780000000  0.4595420000000 1.0
C      1  0.5282990000000  0.5620530000000  0.4597400000000 1.0
C      1  0.4831400000000  0.5542250000000  0.4437720000000 1.0
C      1  0.4781390000000  0.4638050000000  0.4193130000000 1.0
C      1  0.4730500000000  0.5063060000000  0.5811450000000 1.0
C      1  0.5709130000000  0.4501730000000  0.4896480000000 1.0
C      1  0.5258310000000  0.4440500000000  0.4652860000000 1.0
C      1  0.5106840000000  0.5491320000000  0.4385010000000 1.0
C      1  0.4626920000000  0.4311630000000  0.4535110000000 1.0
C      1  0.4809620000000  0.5823410000000  0.5112290000000 1.0
C      1  0.5245760000000  0.5036880000000  0.4865920000000 1.0
C      1  0.4936370000000  0.5268560000000  0.5846190000000 1.0
C      1  0.5514030000000  0.5539890000000  0.4713400000000 1.0
C      1  0.5682300000000  0.5339800000000  0.5149660000000 1.0
C      1  0.4410900000000  0.5286540000000  0.4569960000000 1.0
C      1  0.4863100000000  0.4154890000000  0.4983210000000 1.0
C      1  0.5088750000000  0.5363990000000  0.5193510000000 1.0
C      1  0.4318980000000  0.4551800000000  0.5094520000000 1.0
C      1  0.4683680000000  0.5600960000000  0.5578150000000 1.0
C      1  0.5428480000000  0.5249180000000  0.5774720000000 1.0
C      1  0.5355190000000  0.4285330000000  0.5126240000000 1.0
C      1  0.5204820000000  0.4858430000000  0.5083240000000 1.0
C      1  0.5101920000000  0.5774580000000  0.4762450000000 1.0
C      1  0.5062860000000  0.4678250000000  0.5697210000000 1.0
C      1  0.4827900000000  0.4397210000000  0.4345120000000 1.0
C      1  0.4860150000000  0.4992950000000  0.5393610000000 1.0
C      1  0.5871850000000  0.4890570000000  0.5093260000000 1.0
C      1  0.4463020000000  0.5449760000000  0.5671450000000 1.0
C      1  0.5178260000000  0.5608380000000  0.5562680000000 1.0
C      1  0.4510540000000  0.4469840000000  0.5306620000000 1.0
C      1  0.4253700000000  0.5354980000000  0.5494060000000 1.0
C      1  0.5430000000000  0.5469220000000  0.5597430000000 1.0
C      1  0.4827330000000  0.4173900000000  0.4703970000000 1.0
C      1  0.5104480000000  0.4160090000000  0.5141930000000 1.0
C      1  0.4283600000000  0.5084660000000  0.5589970000000 1.0
C      1  0.5781420000000  0.5145240000000  0.4682440000000 1.0
C      1  0.5645130000000  0.5050110000000  0.4438920000000 1.0
C      1  0.4295820000000  0.4453400000000  0.4842770000000 1.0
C      1  0.5458230000000  0.4364390000000  0.4869410000000 1.0
C      1  0.4955400000000  0.4845820000000  0.4624360000000 1.0
C      1  0.4485410000000  0.5176180000000  0.5778040000000 1.0
C      1  0.5893160000000  0.4925780000000  0.4818390000000 1.0
C      1  0.5500880000000  0.4974820000000  0.5722580000000 1.0
C      1  0.5656810000000  0.4757260000000  0.4417070000000 1.0
C      1  0.5845460000000  0.4661390000000  0.4698110000000 1.0
C      1  0.4841930000000  0.5739120000000  0.4651050000000 1.0
C      1  0.5098670000000  0.5160010000000  0.5396090000000 1.0
C      1  0.5894220000000  0.4616110000000  0.4429330000000 1.0
C      1  0.4874710000000  0.4605130000000  0.5022710000000 1.0
C      1  0.4236150000000  0.5019430000000  0.4938880000000 1.0
C      1  0.4396260000000  0.5000790000000  0.4669530000000 1.0
C      1  0.5509410000000  0.5495220000000  0.5315840000000 1.0
C      1  0.4240580000000  0.4822870000000  0.5152080000000 1.0
C      1  0.4936760000000  0.5526130000000  0.5691480000000 1.0
C      1  0.4999460000000  0.4603740000000  0.4768720000000 1.0
C      1  0.4379660000000  0.5677130000000  0.5186550000000 1.0
C      1  0.4791120000000  0.5110940000000  0.4967890000000 1.0
C      1  0.5573530000000  0.4911980000000  0.5446940000000 1.0
C      1  0.4961320000000  0.5081680000000  0.4142520000000 1.0
C      1  0.4309040000000  0.5451150000000  0.4776660000000 1.0
C      1  0.4728500000000  0.5001440000000  0.4723110000000 1.0
C      1  0.5013330000000  0.4796320000000  0.4125080000000 1.0
C      1  0.5377470000000  0.5113730000000  0.4376910000000 1.0
C      1  0.5232090000000  0.5617820000000  0.5254050000000 1.0
C      1  0.5245900000000  0.4686630000000  0.4197460000000 1.0
C      1  0.4407120000000  0.4772280000000  0.4478530000000 1.0
C      1  0.5619010000000  0.4620020000000  0.5372590000000 1.0
C      1  0.4792400000000  0.4815680000000  0.5632870000000 1.0
C      1  0.5680880000000  0.5370300000000  0.4848290000000 1.0
C      1  0.5174120000000  0.5256120000000  0.4243350000000 1.0
C      1  0.4981820000000  0.4295110000000  0.5373040000000 1.0
C      1  0.5403670000000  0.4432490000000  0.5375250000000 1.0
C      1  0.4666990000000  0.5796590000000  0.4862310000000 1.0
C      1  0.4758930000000  0.4364540000000  0.5192830000000 1.0
C      1  0.4583760000000  0.4833670000000  0.4266410000000 1.0
C      1  0.5365470000000  0.4656540000000  0.4453380000000 1.0
C      1  0.5094700000000  0.5805080000000  0.5056020000000 1.0
C      1  0.4532940000000  0.4677570000000  0.5506770000000 1.0
C      1  0.5181160000000  0.5143480000000  0.5888120000000 1.0
C      1  0.5759220000000  0.5079140000000  0.5264380000000 1.0
C      1  0.5237740000000  0.4936640000000  0.4588710000000 1.0
C      1  0.4628740000000  0.5733760000000  0.5323090000000 1.0
C      1  0.5243580000000  0.4865060000000  0.5818420000000 1.0
C      1  0.4326810000000  0.4862780000000  0.5432540000000 1.0
C      1  0.4695740000000  0.5105240000000  0.4233330000000 1.0
C      1  0.4884760000000  0.4871950000000  0.5132380000000 1.0
C      1  0.4199090000000  0.5292460000000  0.4990670000000 1.0
C      1  0.5043390000000  0.5249290000000  0.4941360000000 1.0
C      1  0.4412280000000  0.5689480000000  0.4902740000000 1.0
C      1  0.5295800000000  0.4966030000000  0.5328200000000 1.0
C      1  0.5156600000000  0.4457250000000  0.5529470000000 1.0
C      1  0.5041260000000  0.4274320000000  0.4519060000000 1.0
C      1  0.4216980000000  0.5448550000000  0.5238520000000 1.0
C      1  0.5777330000000  0.4621830000000  0.5143460000000 1.0
END
