TITL C-93015-6524-9 56.5140335125762 125000 -798.853786594932 0 0 113 (C1) n - 1
REM
REM in /rds/project/t2_vol4/rds-t2-cs072/BORA/CARBON/from-Arr/AIRSS/Generating-Clusters/GAP-ML-2020/Only-C1/SD-CG/HFTN-CG
REM
REM
REM
REM
REM
REM ./C.cell (11c1c37f851c82e70ff6c80c92926a4b)
REM AIRSS Version 0.9.1 bugfix July 2018 build 013d7b7c2542+ Fri, 06 Jul 2018 19:26:36 +0100
REM compiler GCC version 9.3.0
REM options -cpp -mtune=generic -march=x86-64 -g -O0
REM seed 823260222 343096390 496025523 -641901029 188897301 1838281545 -1356845620 -989339246 -67637579 -675791058 385598753 -1700387691 -269897224 1709537713 2103667515 1822389345 -1194265356 -1631744563 23614084 -393130568 289552008 -610839326 2064630846 1245563267 362213064 -1837419738 1780079243 1792913180 -275289509 274637318 1651330313 -484383273 -1289148043
REM
CELL 1.54180   50.00000   50.00000   50.00000   90.00000   90.00000   90.00000
LATT -1
SFAC C  
C      1  0.4780000000000  0.5412200000000  0.4597520000000 1.0
C      1  0.5342110000000  0.5505210000000  0.4248310000000 1.0
C      1  0.5399990000000  0.4306320000000  0.5819790000000 1.0
C      1  0.5055380000000  0.5108230000000  0.4107810000000 1.0
C      1  0.5628150000000  0.4774020000000  0.5588820000000 1.0
C      1  0.4788800000000  0.5757040000000  0.5032790000000 1.0
C      1  0.5301040000000  0.4729740000000  0.4777940000000 1.0
C      1  0.4715760000000  0.4314280000000  0.4424250000000 1.0
C      1  0.4792280000000  0.4493910000000  0.4205370000000 1.0
C      1  0.4490620000000  0.5478820000000  0.5505790000000 1.0
C      1  0.5176130000000  0.5713990000000  0.4370690000000 1.0
C      1  0.5700990000000  0.5340120000000  0.5545980000000 1.0
C      1  0.4947170000000  0.5615980000000  0.4224530000000 1.0
C      1  0.5066450000000  0.5752580000000  0.5275010000000 1.0
C      1  0.5502350000000  0.5551470000000  0.5535730000000 1.0
C      1  0.4840920000000  0.4016430000000  0.5434290000000 1.0
C      1  0.5126750000000  0.4824720000000  0.5382090000000 1.0
C      1  0.5246350000000  0.5144700000000  0.5042050000000 1.0
C      1  0.4961810000000  0.4169470000000  0.5634990000000 1.0
C      1  0.4462600000000  0.5438620000000  0.4329620000000 1.0
C      1  0.4858930000000  0.4834330000000  0.4996070000000 1.0
C      1  0.4471910000000  0.5010410000000  0.5704440000000 1.0
C      1  0.5618780000000  0.5562010000000  0.4834840000000 1.0
C      1  0.5377190000000  0.5729700000000  0.4854580000000 1.0
C      1  0.4666430000000  0.5770690000000  0.4603390000000 1.0
C      1  0.5734990000000  0.4764780000000  0.5314400000000 1.0
C      1  0.4749810000000  0.4558500000000  0.5384420000000 1.0
C      1  0.5028630000000  0.4690860000000  0.4833250000000 1.0
C      1  0.5540980000000  0.5070290000000  0.4278290000000 1.0
C      1  0.4772620000000  0.5502350000000  0.5613710000000 1.0
C      1  0.5148870000000  0.5715130000000  0.4665920000000 1.0
C      1  0.4922760000000  0.5526990000000  0.5157950000000 1.0
C      1  0.5053200000000  0.4212040000000  0.4754780000000 1.0
C      1  0.4662580000000  0.4734810000000  0.4156610000000 1.0
C      1  0.5050100000000  0.5403320000000  0.4687310000000 1.0
C      1  0.5107400000000  0.5388000000000  0.4120170000000 1.0
C      1  0.5304230000000  0.4214110000000  0.4918430000000 1.0
C      1  0.4179330000000  0.5392080000000  0.5173240000000 1.0
C      1  0.5843480000000  0.5006480000000  0.5176240000000 1.0
C      1  0.4481550000000  0.4720780000000  0.5643250000000 1.0
C      1  0.4173060000000  0.5009370000000  0.4546130000000 1.0
C      1  0.5241960000000  0.5537490000000  0.5656020000000 1.0
C      1  0.4390530000000  0.4524680000000  0.5098560000000 1.0
C      1  0.5530730000000  0.4367650000000  0.5396730000000 1.0
C      1  0.5579450000000  0.5014100000000  0.5758950000000 1.0
C      1  0.5305870000000  0.5055520000000  0.5871270000000 1.0
C      1  0.4854070000000  0.5319650000000  0.5828840000000 1.0
C      1  0.5733650000000  0.4943700000000  0.4450490000000 1.0
C      1  0.5134720000000  0.4832470000000  0.5866390000000 1.0
C      1  0.5688640000000  0.5387880000000  0.4610490000000 1.0
C      1  0.5074690000000  0.4461930000000  0.4267940000000 1.0
C      1  0.5815810000000  0.5129330000000  0.4664550000000 1.0
C      1  0.4144420000000  0.4983530000000  0.5102030000000 1.0
C      1  0.5710820000000  0.4669820000000  0.4503960000000 1.0
C      1  0.4346650000000  0.4584210000000  0.4518240000000 1.0
C      1  0.4715500000000  0.5097530000000  0.5267090000000 1.0
C      1  0.5459230000000  0.4536650000000  0.5633110000000 1.0
C      1  0.5891130000000  0.5031900000000  0.4906610000000 1.0
C      1  0.5548430000000  0.5352490000000  0.4354080000000 1.0
C      1  0.5249140000000  0.4131430000000  0.5661850000000 1.0
C      1  0.5279200000000  0.4660000000000  0.4267730000000 1.0
C      1  0.5421810000000  0.4600420000000  0.4519460000000 1.0
C      1  0.4855920000000  0.4732710000000  0.4625340000000 1.0
C      1  0.4211670000000  0.4763370000000  0.4691330000000 1.0
C      1  0.5643230000000  0.4504170000000  0.5189760000000 1.0
C      1  0.4668850000000  0.5158800000000  0.4696700000000 1.0
C      1  0.5116120000000  0.5226230000000  0.5476310000000 1.0
C      1  0.5557780000000  0.4381290000000  0.4922370000000 1.0
C      1  0.5134560000000  0.5135710000000  0.4593480000000 1.0
C      1  0.5025760000000  0.5687240000000  0.5559050000000 1.0
C      1  0.5791260000000  0.5282670000000  0.5271440000000 1.0
C      1  0.4702500000000  0.5601640000000  0.4369280000000 1.0
C      1  0.4153230000000  0.5261820000000  0.4670010000000 1.0
C      1  0.4560040000000  0.4342960000000  0.4906250000000 1.0
C      1  0.4704530000000  0.5086130000000  0.5858560000000 1.0
C      1  0.4351170000000  0.5219240000000  0.5560380000000 1.0
C      1  0.5294620000000  0.5004100000000  0.4798480000000 1.0
C      1  0.4884520000000  0.5828530000000  0.4770830000000 1.0
C      1  0.4115670000000  0.5227550000000  0.4944250000000 1.0
C      1  0.4812180000000  0.4195040000000  0.4943050000000 1.0
C      1  0.5780890000000  0.5211870000000  0.5777870000000 1.0
C      1  0.5018920000000  0.5319520000000  0.4971870000000 1.0
C      1  0.4407130000000  0.4725680000000  0.4275490000000 1.0
C      1  0.5261210000000  0.5055910000000  0.5306830000000 1.0
C      1  0.4906610000000  0.4471590000000  0.5627580000000 1.0
C      1  0.4776170000000  0.5017910000000  0.4203120000000 1.0
C      1  0.4855050000000  0.4996430000000  0.4527020000000 1.0
C      1  0.4763240000000  0.5125470000000  0.4971000000000 1.0
C      1  0.5317970000000  0.5781730000000  0.5134080000000 1.0
C      1  0.4500540000000  0.5712320000000  0.5027850000000 1.0
C      1  0.5529920000000  0.5662450000000  0.5279950000000 1.0
C      1  0.4379450000000  0.5577780000000  0.5253110000000 1.0
C      1  0.5664800000000  0.4463630000000  0.4669950000000 1.0
C      1  0.4224560000000  0.4733240000000  0.4977410000000 1.0
C      1  0.4309770000000  0.4990300000000  0.4298670000000 1.0
C      1  0.4995160000000  0.4268080000000  0.4483570000000 1.0
C      1  0.5148090000000  0.5285690000000  0.5777100000000 1.0
C      1  0.4308930000000  0.5480170000000  0.4571750000000 1.0
C      1  0.5169300000000  0.4653600000000  0.5628630000000 1.0
C      1  0.4503100000000  0.5178770000000  0.4218160000000 1.0
C      1  0.4434710000000  0.5683010000000  0.4744340000000 1.0
C      1  0.5219770000000  0.4103330000000  0.5161000000000 1.0
C      1  0.5296660000000  0.4936530000000  0.4174850000000 1.0
C      1  0.4517960000000  0.4379590000000  0.4618710000000 1.0
C      1  0.4863310000000  0.4815480000000  0.5284350000000 1.0
C      1  0.4712370000000  0.4632260000000  0.5789430000000 1.0
C      1  0.4851950000000  0.4849010000000  0.5911800000000 1.0
C      1  0.5371670000000  0.4139780000000  0.5394210000000 1.0
C      1  0.4469110000000  0.4561550000000  0.5376570000000 1.0
C      1  0.5698920000000  0.5506120000000  0.5111930000000 1.0
C      1  0.4859770000000  0.5328920000000  0.5380970000000 1.0
C      1  0.4927910000000  0.4070480000000  0.5178680000000 1.0
C      1  0.4182550000000  0.5155320000000  0.5340100000000 1.0
END
