TITL C-93043-5099-9 0.0345750546927297 125000 -76.5903557063426 0 0 12 (C1) n - 1
REM
REM in /rds/project/t2_vol4/rds-t2-cs072/BORA/CARBON/from-Arr/AIRSS/Generating-Clusters/GAP-ML-2020/Only-C1/SD-CG/HFTN-CG
REM
REM
REM
REM
REM
REM ./C.cell (11c1c37f851c82e70ff6c80c92926a4b)
REM AIRSS Version 0.9.1 bugfix July 2018 build 013d7b7c2542+ Fri, 06 Jul 2018 19:26:36 +0100
REM compiler GCC version 9.3.0
REM options -cpp -mtune=generic -march=x86-64 -g -O0
REM seed -1415369583 644183534 1083110077 1554792646 -1187558755 -792310099 1416202257 -1067136289 -2142823327 843571236 -2103292252 -1814379337 78157137 487295772 1296016166 2108944499 -361687307 201131438 -1779021585 -1497514392 -1716504013 1585208459 129437313 389470053 1985438052 -166721999 -235157776 -976568339 -1879601292 170460996 -1826983109 1222027612 347906655
REM
CELL 1.54180   50.00000   50.00000   50.00000   90.00000   90.00000   90.00000
LATT -1
SFAC C  
C      1  0.5531270000000  0.5073280000000  0.5039280000000 1.0
C      1  0.5169610000000  0.4803620000000  0.5256040000000 1.0
C      1  0.4988530000000  0.4632390000000  0.5273540000000 1.0
C      1  0.5326870000000  0.4999900000000  0.5180180000000 1.0
C      1  0.4795520000000  0.5214970000000  0.4750520000000 1.0
C      1  0.4646030000000  0.5003620000000  0.4790590000000 1.0
C      1  0.4966020000000  0.5400020000000  0.4756340000000 1.0
C      1  0.5204370000000  0.5487450000000  0.4830680000000 1.0
C      1  0.4592570000000  0.4567090000000  0.5045150000000 1.0
C      1  0.4585980000000  0.4780230000000  0.4898130000000 1.0
C      1  0.4776130000000  0.4488500000000  0.5217300000000 1.0
C      1  0.5417100000000  0.5548920000000  0.4962260000000 1.0
END
