TITL C-93027-7368-4 -540.871109940883 125000 -987.687290886153 0 0 140 (C1) n - 1
REM
REM in /rds/project/t2_vol4/rds-t2-cs072/BORA/CARBON/from-Arr/AIRSS/Generating-Clusters/GAP-ML-2020/Only-C1/SD-CG/HFTN-CG
REM
REM
REM
REM
REM
REM ./C.cell (11c1c37f851c82e70ff6c80c92926a4b)
REM AIRSS Version 0.9.1 bugfix July 2018 build 013d7b7c2542+ Fri, 06 Jul 2018 19:26:36 +0100
REM compiler GCC version 9.3.0
REM options -cpp -mtune=generic -march=x86-64 -g -O0
REM seed -562983743 1946466148 -1051272553 358217246 -576062181 1444498573 82640416 -659089728 681771541 -442855319 504810181 -1417435403 735433016 -16126378 -749489600 756955453 1561506953 1632779609 118390720 -1278790234 -1576785413 1482591113 -845230374 -1295070383 1182399174 1726880478 -1838305079 -504579108 1422244578 2026586589 -1469836919 -1659291687 1126031189
REM
CELL 1.54180   50.00000   50.00000   50.00000   90.00000   90.00000   90.00000
LATT -1
SFAC C  
C      1  0.4943900000000  0.4970170000000  0.4044780000000 1.0
C      1  0.5265590000000  0.4149110000000  0.4700280000000 1.0
C      1  0.4658930000000  0.5913170000000  0.4639620000000 1.0
C      1  0.5054130000000  0.5368170000000  0.5003150000000 1.0
C      1  0.5581380000000  0.5433850000000  0.4288960000000 1.0
C      1  0.4436970000000  0.4297510000000  0.4567870000000 1.0
C      1  0.4073630000000  0.5049020000000  0.4489480000000 1.0
C      1  0.5513460000000  0.5320950000000  0.5234100000000 1.0
C      1  0.4892940000000  0.5025000000000  0.6006870000000 1.0
C      1  0.4971440000000  0.4532770000000  0.5331710000000 1.0
C      1  0.4707020000000  0.4714670000000  0.5016910000000 1.0
C      1  0.5714820000000  0.5470140000000  0.5029310000000 1.0
C      1  0.4560900000000  0.5717330000000  0.4464030000000 1.0
C      1  0.4876710000000  0.5232720000000  0.4011370000000 1.0
C      1  0.4632180000000  0.4318790000000  0.4353840000000 1.0
C      1  0.5175620000000  0.5159640000000  0.4557280000000 1.0
C      1  0.5140460000000  0.5692120000000  0.5403920000000 1.0
C      1  0.5454580000000  0.4579830000000  0.4388910000000 1.0
C      1  0.5563880000000  0.4879810000000  0.4409190000000 1.0
C      1  0.4990290000000  0.4968360000000  0.4656270000000 1.0
C      1  0.4122260000000  0.5274910000000  0.5445560000000 1.0
C      1  0.4481090000000  0.4441160000000  0.5446470000000 1.0
C      1  0.5474820000000  0.4184570000000  0.4900410000000 1.0
C      1  0.4131150000000  0.5238580000000  0.4984600000000 1.0
C      1  0.5011030000000  0.5260000000000  0.6071280000000 1.0
C      1  0.5713870000000  0.5697890000000  0.5237680000000 1.0
C      1  0.5481590000000  0.5812340000000  0.4724510000000 1.0
C      1  0.4587910000000  0.5551130000000  0.4228710000000 1.0
C      1  0.5612160000000  0.5229520000000  0.4113120000000 1.0
C      1  0.4211540000000  0.4644610000000  0.5065740000000 1.0
C      1  0.4613480000000  0.4729620000000  0.5803510000000 1.0
C      1  0.4533060000000  0.5858950000000  0.4889930000000 1.0
C      1  0.5821720000000  0.5057320000000  0.5541300000000 1.0
C      1  0.5502710000000  0.5278910000000  0.5796060000000 1.0
C      1  0.4452410000000  0.5620190000000  0.5493950000000 1.0
C      1  0.5264080000000  0.4612570000000  0.4148380000000 1.0
C      1  0.5206900000000  0.5407240000000  0.5265820000000 1.0
C      1  0.4855670000000  0.5488230000000  0.4104740000000 1.0
C      1  0.4244330000000  0.5115850000000  0.5642740000000 1.0
C      1  0.5512550000000  0.5029300000000  0.5181750000000 1.0
C      1  0.5151480000000  0.3906210000000  0.5075680000000 1.0
C      1  0.4482970000000  0.4173600000000  0.5064310000000 1.0
C      1  0.4601660000000  0.5287830000000  0.4760780000000 1.0
C      1  0.4371190000000  0.5384820000000  0.4330220000000 1.0
C      1  0.5674410000000  0.4628910000000  0.5670400000000 1.0
C      1  0.4460960000000  0.5210910000000  0.5800950000000 1.0
C      1  0.5222380000000  0.4425790000000  0.4545930000000 1.0
C      1  0.5641140000000  0.5359540000000  0.4572430000000 1.0
C      1  0.4119640000000  0.4835110000000  0.5280950000000 1.0
C      1  0.5423510000000  0.4203630000000  0.5400220000000 1.0
C      1  0.5337690000000  0.5509620000000  0.5824060000000 1.0
C      1  0.5058700000000  0.5482250000000  0.5917890000000 1.0
C      1  0.4836650000000  0.4134050000000  0.4423480000000 1.0
C      1  0.4626880000000  0.5236890000000  0.5195580000000 1.0
C      1  0.5719570000000  0.4270200000000  0.4744860000000 1.0
C      1  0.4826890000000  0.5578790000000  0.5768690000000 1.0
C      1  0.5053720000000  0.4366000000000  0.5100520000000 1.0
C      1  0.4690720000000  0.4592990000000  0.5279050000000 1.0
C      1  0.4960790000000  0.4398640000000  0.5605080000000 1.0
C      1  0.4893290000000  0.5725350000000  0.5535870000000 1.0
C      1  0.5676180000000  0.5313710000000  0.5552080000000 1.0
C      1  0.3983170000000  0.4863380000000  0.4687330000000 1.0
C      1  0.4183770000000  0.5528820000000  0.5058750000000 1.0
C      1  0.4689920000000  0.4093520000000  0.5256600000000 1.0
C      1  0.5900530000000  0.5236000000000  0.4929970000000 1.0
C      1  0.4737590000000  0.5766100000000  0.5074680000000 1.0
C      1  0.5035230000000  0.4446170000000  0.4147230000000 1.0
C      1  0.5727020000000  0.4615350000000  0.5396500000000 1.0
C      1  0.5031760000000  0.5088330000000  0.4921820000000 1.0
C      1  0.4435540000000  0.4747420000000  0.4610900000000 1.0
C      1  0.4301290000000  0.5111180000000  0.4331790000000 1.0
C      1  0.4763580000000  0.4529050000000  0.4188700000000 1.0
C      1  0.5682110000000  0.4411790000000  0.4503150000000 1.0
C      1  0.5443500000000  0.5089330000000  0.4627360000000 1.0
C      1  0.5082410000000  0.5432610000000  0.4544790000000 1.0
C      1  0.5835180000000  0.4937020000000  0.4554560000000 1.0
C      1  0.4540580000000  0.4926880000000  0.4395810000000 1.0
C      1  0.5400190000000  0.4023640000000  0.5153270000000 1.0
C      1  0.5277330000000  0.4963480000000  0.5363520000000 1.0
C      1  0.5234540000000  0.4871900000000  0.4060990000000 1.0
C      1  0.4870000000000  0.4604260000000  0.5803680000000 1.0
C      1  0.5873540000000  0.5203870000000  0.4651400000000 1.0
C      1  0.4414800000000  0.5508750000000  0.4616670000000 1.0
C      1  0.5916380000000  0.4964080000000  0.5032440000000 1.0
C      1  0.5377360000000  0.5629650000000  0.4277220000000 1.0
C      1  0.5366780000000  0.4430560000000  0.5045220000000 1.0
C      1  0.4069790000000  0.4615330000000  0.4799110000000 1.0
C      1  0.5041140000000  0.5850620000000  0.4904370000000 1.0
C      1  0.5294260000000  0.4699320000000  0.4941130000000 1.0
C      1  0.4896800000000  0.4922520000000  0.5116200000000 1.0
C      1  0.4688220000000  0.4240860000000  0.5499330000000 1.0
C      1  0.5341540000000  0.5907930000000  0.4956610000000 1.0
C      1  0.5077480000000  0.4252680000000  0.4343570000000 1.0
C      1  0.4228570000000  0.4841730000000  0.5544180000000 1.0
C      1  0.4725550000000  0.5081450000000  0.4583790000000 1.0
C      1  0.5129600000000  0.4768600000000  0.5215280000000 1.0
C      1  0.5699690000000  0.5605340000000  0.5517380000000 1.0
C      1  0.5088170000000  0.5879730000000  0.4433490000000 1.0
C      1  0.5319980000000  0.4769220000000  0.5915680000000 1.0
C      1  0.5736240000000  0.4893060000000  0.5755180000000 1.0
C      1  0.5040250000000  0.4781180000000  0.5948010000000 1.0
C      1  0.5786340000000  0.4899630000000  0.5291660000000 1.0
C      1  0.5080710000000  0.4660150000000  0.4718390000000 1.0
C      1  0.4046070000000  0.5106540000000  0.5232470000000 1.0
C      1  0.4798740000000  0.4018690000000  0.4681730000000 1.0
C      1  0.5418850000000  0.4537340000000  0.5768500000000 1.0
C      1  0.5511670000000  0.5000390000000  0.5891610000000 1.0
C      1  0.5351860000000  0.5867450000000  0.5446810000000 1.0
C      1  0.5086070000000  0.5555400000000  0.4795050000000 1.0
C      1  0.4542380000000  0.4123960000000  0.4782150000000 1.0
C      1  0.5266890000000  0.4334090000000  0.5621470000000 1.0
C      1  0.4957030000000  0.4079640000000  0.5169780000000 1.0
C      1  0.4938080000000  0.5965270000000  0.4653190000000 1.0
C      1  0.5487230000000  0.4993220000000  0.4145500000000 1.0
C      1  0.5798910000000  0.4801670000000  0.4809320000000 1.0
C      1  0.5469840000000  0.5709830000000  0.5651470000000 1.0
C      1  0.4402050000000  0.4642720000000  0.5639290000000 1.0
C      1  0.5559880000000  0.4420780000000  0.5281720000000 1.0
C      1  0.4451490000000  0.4823930000000  0.4904800000000 1.0
C      1  0.4674140000000  0.5761430000000  0.5365910000000 1.0
C      1  0.4818910000000  0.5097010000000  0.5344270000000 1.0
C      1  0.5833120000000  0.4523080000000  0.4714830000000 1.0
C      1  0.4443870000000  0.5125380000000  0.4965360000000 1.0
C      1  0.4762640000000  0.5436250000000  0.5006700000000 1.0
C      1  0.5370050000000  0.5842910000000  0.4467090000000 1.0
C      1  0.4628650000000  0.4997500000000  0.5902480000000 1.0
C      1  0.4309850000000  0.5675930000000  0.4859170000000 1.0
C      1  0.5632090000000  0.5572440000000  0.4767390000000 1.0
C      1  0.4557100000000  0.5477950000000  0.5729780000000 1.0
C      1  0.5071620000000  0.5604880000000  0.4294910000000 1.0
C      1  0.4888760000000  0.4520420000000  0.4879160000000 1.0
C      1  0.5093100000000  0.5180310000000  0.5426290000000 1.0
C      1  0.4341700000000  0.4396810000000  0.5184900000000 1.0
C      1  0.5494410000000  0.4913560000000  0.4886520000000 1.0
C      1  0.3996190000000  0.5133720000000  0.4747610000000 1.0
C      1  0.5060670000000  0.3983450000000  0.4803510000000 1.0
C      1  0.4223710000000  0.5524330000000  0.5349600000000 1.0
C      1  0.4267570000000  0.4516290000000  0.4607920000000 1.0
C      1  0.4727480000000  0.4807560000000  0.4174820000000 1.0
C      1  0.5495340000000  0.5884460000000  0.5196050000000 1.0
END
