TITL C-93017-5300-7 -62.5765630794216 125000 -465.70668147719 0 0 66 (C1) n - 1
REM
REM in /rds/project/t2_vol4/rds-t2-cs072/BORA/CARBON/from-Arr/AIRSS/Generating-Clusters/GAP-ML-2020/Only-C1/SD-CG/HFTN-CG
REM
REM
REM
REM
REM
REM ./C.cell (11c1c37f851c82e70ff6c80c92926a4b)
REM AIRSS Version 0.9.1 bugfix July 2018 build 013d7b7c2542+ Fri, 06 Jul 2018 19:26:36 +0100
REM compiler GCC version 9.3.0
REM options -cpp -mtune=generic -march=x86-64 -g -O0
REM seed -1942284705 1713253817 396852893 907652102 -325898299 -99765744 1916991329 -99193617 -340155213 552963357 -1988754840 -54974730 1633449416 -1881240312 -444592452 -1880610476 -338721482 -1399121478 343217470 -406091690 2107801530 367221136 -279412166 -471646106 -630088099 265258427 -2065099379 938602456 -429632051 -2066761352 -1861068670 -1929580532 1528562077
REM
CELL 1.54180   50.00000   50.00000   50.00000   90.00000   90.00000   90.00000
LATT -1
SFAC C  
C      1  0.5009770000000  0.4842170000000  0.4961050000000 1.0
C      1  0.4948770000000  0.5399720000000  0.4553300000000 1.0
C      1  0.5449980000000  0.5617600000000  0.4988000000000 1.0
C      1  0.5570880000000  0.5386390000000  0.4871510000000 1.0
C      1  0.5605790000000  0.5184120000000  0.5414150000000 1.0
C      1  0.5834880000000  0.5203670000000  0.5259250000000 1.0
C      1  0.4814690000000  0.5489860000000  0.5582450000000 1.0
C      1  0.4701070000000  0.4967970000000  0.4557150000000 1.0
C      1  0.5137940000000  0.4685600000000  0.4493860000000 1.0
C      1  0.5414050000000  0.5058710000000  0.4532710000000 1.0
C      1  0.4959250000000  0.4268550000000  0.4585580000000 1.0
C      1  0.4925190000000  0.5133900000000  0.4449630000000 1.0
C      1  0.4763490000000  0.5521680000000  0.4742360000000 1.0
C      1  0.5079830000000  0.5918170000000  0.4789660000000 1.0
C      1  0.5681190000000  0.5166140000000  0.5028790000000 1.0
C      1  0.5429470000000  0.5318820000000  0.4636030000000 1.0
C      1  0.5122550000000  0.5734560000000  0.5338750000000 1.0
C      1  0.5064650000000  0.5622250000000  0.5590900000000 1.0
C      1  0.5167380000000  0.4975440000000  0.4419750000000 1.0
C      1  0.5212370000000  0.5493730000000  0.4603390000000 1.0
C      1  0.4381050000000  0.4661210000000  0.5208490000000 1.0
C      1  0.5083550000000  0.5247700000000  0.5242430000000 1.0
C      1  0.4517460000000  0.5370850000000  0.5161130000000 1.0
C      1  0.4686710000000  0.5545380000000  0.5316830000000 1.0
C      1  0.5606160000000  0.4462310000000  0.5207610000000 1.0
C      1  0.4660000000000  0.4506090000000  0.4354010000000 1.0
C      1  0.4562570000000  0.5362330000000  0.4862420000000 1.0
C      1  0.4869130000000  0.5231060000000  0.5705310000000 1.0
C      1  0.4964970000000  0.4602900000000  0.5380590000000 1.0
C      1  0.4358430000000  0.4639970000000  0.4641470000000 1.0
C      1  0.4547730000000  0.4467920000000  0.5079800000000 1.0
C      1  0.5158870000000  0.4644730000000  0.5149330000000 1.0
C      1  0.5042750000000  0.4373090000000  0.5045110000000 1.0
C      1  0.5154780000000  0.5194270000000  0.5736610000000 1.0
C      1  0.4976770000000  0.4793380000000  0.5582880000000 1.0
C      1  0.4807660000000  0.4422960000000  0.5200590000000 1.0
C      1  0.5231330000000  0.4939580000000  0.5623720000000 1.0
C      1  0.4540280000000  0.4743920000000  0.4437220000000 1.0
C      1  0.4838270000000  0.4452550000000  0.4158350000000 1.0
C      1  0.5387450000000  0.4610210000000  0.4630080000000 1.0
C      1  0.5459420000000  0.4745880000000  0.5210510000000 1.0
C      1  0.5581930000000  0.4345110000000  0.4983190000000 1.0
C      1  0.4420190000000  0.5122340000000  0.5264990000000 1.0
C      1  0.5407890000000  0.4362960000000  0.4763260000000 1.0
C      1  0.5020110000000  0.5097110000000  0.5047840000000 1.0
C      1  0.5273990000000  0.5439670000000  0.5666880000000 1.0
C      1  0.4682650000000  0.4337420000000  0.4599590000000 1.0
C      1  0.4508520000000  0.4440000000000  0.4794430000000 1.0
C      1  0.4510330000000  0.4963290000000  0.5502490000000 1.0
C      1  0.5035870000000  0.4446650000000  0.4349900000000 1.0
C      1  0.4129550000000  0.4772730000000  0.4683530000000 1.0
C      1  0.4285320000000  0.4963590000000  0.4823880000000 1.0
C      1  0.4756570000000  0.4983840000000  0.5640230000000 1.0
C      1  0.4900180000000  0.4760140000000  0.4712320000000 1.0
C      1  0.5128910000000  0.4270140000000  0.4803790000000 1.0
C      1  0.5522100000000  0.4847540000000  0.4704500000000 1.0
C      1  0.4310890000000  0.4927140000000  0.5098550000000 1.0
C      1  0.5389350000000  0.5636950000000  0.5261440000000 1.0
C      1  0.4402740000000  0.4701680000000  0.5486140000000 1.0
C      1  0.4871670000000  0.5721760000000  0.5183340000000 1.0
C      1  0.5577760000000  0.4907060000000  0.4971170000000 1.0
C      1  0.4496360000000  0.5128740000000  0.4717830000000 1.0
C      1  0.5471850000000  0.5440220000000  0.5467800000000 1.0
C      1  0.5455470000000  0.4929510000000  0.5449170000000 1.0
C      1  0.4882210000000  0.5740290000000  0.4897020000000 1.0
C      1  0.5249050000000  0.5706850000000  0.4793950000000 1.0
END
