TITL C-93403-5022-3 -260.700682775143 125000 -347.75926409198 0 0 52 (C1) n - 1
REM
REM in /rds/project/t2_vol4/rds-t2-cs072/BORA/CARBON/from-Arr/AIRSS/Generating-Clusters/GAP-ML-2020/Only-C1/SD-CG/HFTN-CG
REM
REM
REM
REM
REM
REM ./C.cell (11c1c37f851c82e70ff6c80c92926a4b)
REM AIRSS Version 0.9.1 bugfix July 2018 build 013d7b7c2542+ Fri, 06 Jul 2018 19:26:36 +0100
REM compiler GCC version 9.3.0
REM options -cpp -mtune=generic -march=x86-64 -g -O0
REM seed -401542100 -2135268446 -1532189561 1979236691 1238677701 1385094147 -1518232373 -1289743818 -13063452 315304686 1301071994 -2054682898 768618489 -337287229 1346969203 135199536 -1764161957 -1042285486 -146633414 1666068100 -557608060 1910159505 -1997652679 932054743 81307497 1670889053 -1650541436 -1777810935 -1877179523 -2108522496 1092600136 -562200972 -317314235
REM
CELL 1.54180   50.00000   50.00000   50.00000   90.00000   90.00000   90.00000
LATT -1
SFAC C  
C      1  0.5085290000000  0.4855940000000  0.4928880000000 1.0
C      1  0.4460090000000  0.4461440000000  0.4910680000000 1.0
C      1  0.5577970000000  0.4819080000000  0.5434830000000 1.0
C      1  0.4947200000000  0.4372400000000  0.4709550000000 1.0
C      1  0.4930330000000  0.5142860000000  0.5612550000000 1.0
C      1  0.4654190000000  0.4975620000000  0.4772220000000 1.0
C      1  0.5335420000000  0.5303020000000  0.4811040000000 1.0
C      1  0.4442750000000  0.5399680000000  0.5087640000000 1.0
C      1  0.4418580000000  0.5590400000000  0.5294350000000 1.0
C      1  0.5643540000000  0.4953290000000  0.4980860000000 1.0
C      1  0.4932560000000  0.4607540000000  0.4545790000000 1.0
C      1  0.5249960000000  0.5051610000000  0.5388710000000 1.0
C      1  0.4749340000000  0.4919270000000  0.5548190000000 1.0
C      1  0.5028830000000  0.5621810000000  0.4692690000000 1.0
C      1  0.5645300000000  0.5047560000000  0.5251890000000 1.0
C      1  0.5189660000000  0.4387700000000  0.4866100000000 1.0
C      1  0.5186280000000  0.5076990000000  0.5673970000000 1.0
C      1  0.4311730000000  0.4675160000000  0.4934510000000 1.0
C      1  0.4827450000000  0.5611760000000  0.4491360000000 1.0
C      1  0.5564240000000  0.4679050000000  0.5003520000000 1.0
C      1  0.4919900000000  0.4721420000000  0.5431960000000 1.0
C      1  0.4702080000000  0.5101550000000  0.4492200000000 1.0
C      1  0.4726300000000  0.4465050000000  0.4874750000000 1.0
C      1  0.5019450000000  0.5102240000000  0.4515480000000 1.0
C      1  0.5552380000000  0.4588060000000  0.5270290000000 1.0
C      1  0.4390880000000  0.5112870000000  0.5152130000000 1.0
C      1  0.5446970000000  0.5242560000000  0.5288280000000 1.0
C      1  0.5166320000000  0.4879360000000  0.4425290000000 1.0
C      1  0.5340510000000  0.4828850000000  0.5602040000000 1.0
C      1  0.4652990000000  0.5524130000000  0.5384360000000 1.0
C      1  0.5305800000000  0.4441800000000  0.5336060000000 1.0
C      1  0.5066220000000  0.5135410000000  0.4794010000000 1.0
C      1  0.5073130000000  0.5506070000000  0.5169410000000 1.0
C      1  0.4655010000000  0.5440770000000  0.4878730000000 1.0
C      1  0.5329340000000  0.4652800000000  0.4834590000000 1.0
C      1  0.4388800000000  0.4938360000000  0.4922140000000 1.0
C      1  0.4842130000000  0.4746710000000  0.4804660000000 1.0
C      1  0.4887000000000  0.5365750000000  0.5369690000000 1.0
C      1  0.4667240000000  0.5410630000000  0.4565800000000 1.0
C      1  0.5381950000000  0.4831710000000  0.4603560000000 1.0
C      1  0.4590800000000  0.5018360000000  0.5327530000000 1.0
C      1  0.5285590000000  0.5546750000000  0.4656650000000 1.0
C      1  0.5159450000000  0.4604460000000  0.5528600000000 1.0
C      1  0.5326690000000  0.5407850000000  0.5102260000000 1.0
C      1  0.4711010000000  0.4925120000000  0.4280100000000 1.0
C      1  0.5215570000000  0.4297030000000  0.5121590000000 1.0
C      1  0.4803780000000  0.5192380000000  0.4913330000000 1.0
C      1  0.5507540000000  0.5059660000000  0.4751130000000 1.0
C      1  0.4907700000000  0.5584890000000  0.4951710000000 1.0
C      1  0.4935250000000  0.4735560000000  0.4306890000000 1.0
C      1  0.5034300000000  0.4916240000000  0.5212850000000 1.0
C      1  0.4827210000000  0.5123410000000  0.5192590000000 1.0
END
