TITL C-93044-5216-4 0.120551402576802 125000 -155.721304118745 0 0 24 (C1) n - 1
REM
REM in /rds/project/t2_vol4/rds-t2-cs072/BORA/CARBON/from-Arr/AIRSS/Generating-Clusters/GAP-ML-2020/Only-C1/SD-CG/HFTN-CG
REM
REM
REM
REM
REM
REM ./C.cell (11c1c37f851c82e70ff6c80c92926a4b)
REM AIRSS Version 0.9.1 bugfix July 2018 build 013d7b7c2542+ Fri, 06 Jul 2018 19:26:36 +0100
REM compiler GCC version 9.3.0
REM options -cpp -mtune=generic -march=x86-64 -g -O0
REM seed -69297224 662532308 -1263546611 104434964 -1645069628 1483428854 129663773 -234572115 -2144322045 -1467431393 -1547738261 1873275798 429172079 -246221237 -1242237719 -1345037901 -386744546 -94017384 -117376776 -335025088 1897032728 1965141835 78273641 -1874067110 -566453240 676665151 -790571529 -1361419200 1086508340 -977738826 -1078085664 543249236 -125251893
REM
CELL 1.54180   50.00000   50.00000   50.00000   90.00000   90.00000   90.00000
LATT -1
SFAC C  
C      1  0.4821360000000  0.4923810000000  0.5301010000000 1.0
C      1  0.4967670000000  0.5399680000000  0.4927040000000 1.0
C      1  0.5017060000000  0.5560590000000  0.5143330000000 1.0
C      1  0.5207520000000  0.4628420000000  0.5397450000000 1.0
C      1  0.4592120000000  0.4922430000000  0.4826180000000 1.0
C      1  0.4701580000000  0.5297080000000  0.4952400000000 1.0
C      1  0.5071560000000  0.5172160000000  0.4518430000000 1.0
C      1  0.4831600000000  0.5060740000000  0.4465210000000 1.0
C      1  0.4549010000000  0.5201210000000  0.4717440000000 1.0
C      1  0.5163490000000  0.5263120000000  0.4758740000000 1.0
C      1  0.5159300000000  0.4478680000000  0.4925010000000 1.0
C      1  0.5415530000000  0.4473190000000  0.4868380000000 1.0
C      1  0.4957980000000  0.5565570000000  0.5390410000000 1.0
C      1  0.4758480000000  0.4823280000000  0.4624140000000 1.0
C      1  0.5494190000000  0.4674130000000  0.5068640000000 1.0
C      1  0.4956480000000  0.4666410000000  0.5281110000000 1.0
C      1  0.4927860000000  0.4514140000000  0.5038700000000 1.0
C      1  0.5501170000000  0.4934100000000  0.4981700000000 1.0
C      1  0.5460310000000  0.4608530000000  0.5360150000000 1.0
C      1  0.5380820000000  0.5132220000000  0.4890340000000 1.0
C      1  0.4695020000000  0.5033860000000  0.5072730000000 1.0
C      1  0.4911480000000  0.5352830000000  0.5547630000000 1.0
C      1  0.4581910000000  0.5205060000000  0.4447100000000 1.0
C      1  0.4876500000000  0.5108780000000  0.5496730000000 1.0
END
