TITL C-93024-4664-11 -4.61742606833826 125000 -173.451388973816 0 0 27 (C1) n - 1
REM
REM in /rds/project/t2_vol4/rds-t2-cs072/BORA/CARBON/from-Arr/AIRSS/Generating-Clusters/GAP-ML-2020/Only-C1/SD-CG/HFTN-CG
REM
REM
REM
REM
REM
REM ./C.cell (11c1c37f851c82e70ff6c80c92926a4b)
REM AIRSS Version 0.9.1 bugfix July 2018 build 013d7b7c2542+ Fri, 06 Jul 2018 19:26:36 +0100
REM compiler GCC version 9.3.0
REM options -cpp -mtune=generic -march=x86-64 -g -O0
REM seed -1299169768 1195748869 1653186087 858676272 -313360321 -440659546 -56234937 -1826824489 544535341 1939732149 29660684 1399780148 -1167388912 -1022008970 395204760 920847050 -97303982 -1116282197 -1072977293 -161437113 2026454187 534450471 -1452939420 -751821268 -773433053 968533170 -1867234393 -1426537605 -63392666 578588731 2030893244 1969437467 744952769
REM
CELL 1.54180   50.00000   50.00000   50.00000   90.00000   90.00000   90.00000
LATT -1
SFAC C  
C      1  0.5209230000000  0.4498080000000  0.5168620000000 1.0
C      1  0.4750170000000  0.5511880000000  0.4830580000000 1.0
C      1  0.5415510000000  0.4908830000000  0.5347890000000 1.0
C      1  0.5025840000000  0.5483670000000  0.5212980000000 1.0
C      1  0.5108470000000  0.5313610000000  0.5411260000000 1.0
C      1  0.4972260000000  0.4625710000000  0.5275300000000 1.0
C      1  0.5176680000000  0.5045980000000  0.5430500000000 1.0
C      1  0.5116200000000  0.5159880000000  0.4940990000000 1.0
C      1  0.4709330000000  0.4939320000000  0.5516110000000 1.0
C      1  0.5202820000000  0.4471800000000  0.4872660000000 1.0
C      1  0.5018490000000  0.4983330000000  0.4536690000000 1.0
C      1  0.4962050000000  0.4842150000000  0.5470670000000 1.0
C      1  0.5162110000000  0.5433230000000  0.4953050000000 1.0
C      1  0.5340780000000  0.4734960000000  0.4859230000000 1.0
C      1  0.4744030000000  0.5486590000000  0.5119890000000 1.0
C      1  0.4955100000000  0.4746270000000  0.4406550000000 1.0
C      1  0.5197040000000  0.4958190000000  0.4758550000000 1.0
C      1  0.5391700000000  0.4732850000000  0.5149620000000 1.0
C      1  0.4539230000000  0.5103040000000  0.5415130000000 1.0
C      1  0.5072090000000  0.4348790000000  0.4674150000000 1.0
C      1  0.4842700000000  0.5066360000000  0.5042860000000 1.0
C      1  0.4656190000000  0.5224680000000  0.5187630000000 1.0
C      1  0.4902800000000  0.5256080000000  0.4533880000000 1.0
C      1  0.4892640000000  0.4796320000000  0.5069970000000 1.0
C      1  0.5013710000000  0.5460620000000  0.4717770000000 1.0
C      1  0.4976590000000  0.4503140000000  0.4477830000000 1.0
C      1  0.4646230000000  0.5364660000000  0.4619630000000 1.0
END
