TITL C-93032-9401-3 308.531165713316 125000 -718.361328922735 0 0 105 (C1) n - 1
REM
REM in /rds/project/t2_vol4/rds-t2-cs072/BORA/CARBON/from-Arr/AIRSS/Generating-Clusters/GAP-ML-2020/Only-C1/SD-CG/HFTN-CG
REM
REM
REM
REM
REM
REM ./C.cell (11c1c37f851c82e70ff6c80c92926a4b)
REM AIRSS Version 0.9.1 bugfix July 2018 build 013d7b7c2542+ Fri, 06 Jul 2018 19:26:36 +0100
REM compiler GCC version 9.3.0
REM options -cpp -mtune=generic -march=x86-64 -g -O0
REM seed -1594022250 -55881307 989553107 931778360 1333508095 -332766101 211249234 1536044537 -1834403329 -1180744143 1541029958 -1518928917 -772518348 2060383234 -2143825900 1449380013 1603930001 759952012 196696586 -742709617 -469866120 1924879397 1148488583 1704927077 185587023 540274908 1015749033 75376623 -463300118 -1179794561 1952973484 -1303881445 1050174668
REM
CELL 1.54180   50.00000   50.00000   50.00000   90.00000   90.00000   90.00000
LATT -1
SFAC C  
C      1  0.5345100000000  0.5370170000000  0.4887770000000 1.0
C      1  0.4525240000000  0.4402780000000  0.5449610000000 1.0
C      1  0.4863200000000  0.4605690000000  0.4958010000000 1.0
C      1  0.5400150000000  0.5000070000000  0.5685150000000 1.0
C      1  0.4860180000000  0.5471740000000  0.5774110000000 1.0
C      1  0.5051230000000  0.4506280000000  0.4510060000000 1.0
C      1  0.5817010000000  0.4868070000000  0.5152940000000 1.0
C      1  0.4210450000000  0.5226460000000  0.5322150000000 1.0
C      1  0.4383180000000  0.4838550000000  0.5444180000000 1.0
C      1  0.5103280000000  0.4507040000000  0.5105900000000 1.0
C      1  0.5426210000000  0.4205590000000  0.5093210000000 1.0
C      1  0.5379210000000  0.4847670000000  0.4261430000000 1.0
C      1  0.5774940000000  0.4595830000000  0.5266420000000 1.0
C      1  0.4574200000000  0.5539760000000  0.5203990000000 1.0
C      1  0.5565780000000  0.4464420000000  0.5104630000000 1.0
C      1  0.5727800000000  0.5306360000000  0.5499700000000 1.0
C      1  0.5391460000000  0.5047580000000  0.5379510000000 1.0
C      1  0.5341990000000  0.5810510000000  0.5090510000000 1.0
C      1  0.4713650000000  0.4950940000000  0.4596230000000 1.0
C      1  0.5185140000000  0.4620510000000  0.4267830000000 1.0
C      1  0.4586540000000  0.4684260000000  0.5579110000000 1.0
C      1  0.5650420000000  0.5669010000000  0.4735550000000 1.0
C      1  0.5808490000000  0.4887900000000  0.4867150000000 1.0
C      1  0.4884350000000  0.5824800000000  0.4977150000000 1.0
C      1  0.4642630000000  0.4163420000000  0.5538030000000 1.0
C      1  0.5388270000000  0.5281570000000  0.5792290000000 1.0
C      1  0.4915930000000  0.4767880000000  0.4681260000000 1.0
C      1  0.4556460000000  0.5053120000000  0.4823890000000 1.0
C      1  0.5261600000000  0.4444000000000  0.4690480000000 1.0
C      1  0.4910320000000  0.5119280000000  0.5464520000000 1.0
C      1  0.5071960000000  0.5850910000000  0.5173680000000 1.0
C      1  0.4389370000000  0.4442270000000  0.5206590000000 1.0
C      1  0.4230370000000  0.4722850000000  0.4704420000000 1.0
C      1  0.4714570000000  0.4775590000000  0.5143900000000 1.0
C      1  0.5203960000000  0.4804740000000  0.5785520000000 1.0
C      1  0.5570180000000  0.5551720000000  0.5458080000000 1.0
C      1  0.4437650000000  0.5119060000000  0.5480480000000 1.0
C      1  0.4396880000000  0.5307310000000  0.4716080000000 1.0
C      1  0.5030300000000  0.5199120000000  0.4203390000000 1.0
C      1  0.5638920000000  0.5190640000000  0.5749500000000 1.0
C      1  0.5182080000000  0.5266230000000  0.5381150000000 1.0
C      1  0.4287430000000  0.5470790000000  0.5179190000000 1.0
C      1  0.5745500000000  0.4474880000000  0.5511550000000 1.0
C      1  0.4672220000000  0.5659970000000  0.4943820000000 1.0
C      1  0.5056130000000  0.5038940000000  0.5019380000000 1.0
C      1  0.5682200000000  0.5130460000000  0.5255530000000 1.0
C      1  0.5243270000000  0.5216880000000  0.4659530000000 1.0
C      1  0.4671700000000  0.5698370000000  0.5430770000000 1.0
C      1  0.4511220000000  0.4923850000000  0.4094110000000 1.0
C      1  0.4365690000000  0.4460870000000  0.4695490000000 1.0
C      1  0.5185220000000  0.4267460000000  0.4910490000000 1.0
C      1  0.4286370000000  0.4882510000000  0.4945240000000 1.0
C      1  0.5370810000000  0.4704340000000  0.4774220000000 1.0
C      1  0.5149430000000  0.5307850000000  0.5093370000000 1.0
C      1  0.5666300000000  0.5487820000000  0.4516710000000 1.0
C      1  0.5147510000000  0.4947380000000  0.4746280000000 1.0
C      1  0.4512990000000  0.5164130000000  0.4248050000000 1.0
C      1  0.4876070000000  0.4253930000000  0.5483920000000 1.0
C      1  0.4661260000000  0.4823690000000  0.5828570000000 1.0
C      1  0.5026610000000  0.4507550000000  0.5418760000000 1.0
C      1  0.4945000000000  0.4905690000000  0.5869420000000 1.0
C      1  0.5404830000000  0.4218180000000  0.5359830000000 1.0
C      1  0.4392260000000  0.4728040000000  0.5175730000000 1.0
C      1  0.5238210000000  0.4558210000000  0.5628140000000 1.0
C      1  0.4980830000000  0.5477930000000  0.4097040000000 1.0
C      1  0.5467730000000  0.4404300000000  0.5565770000000 1.0
C      1  0.4233410000000  0.4880460000000  0.4468090000000 1.0
C      1  0.5594500000000  0.4942400000000  0.4428930000000 1.0
C      1  0.4448580000000  0.4343640000000  0.4940070000000 1.0
C      1  0.5581820000000  0.5708430000000  0.5218950000000 1.0
C      1  0.4565730000000  0.4391610000000  0.4483420000000 1.0
C      1  0.4561510000000  0.5084610000000  0.5760110000000 1.0
C      1  0.4834840000000  0.4772110000000  0.5414190000000 1.0
C      1  0.4946540000000  0.5785870000000  0.5432380000000 1.0
C      1  0.4134220000000  0.5107170000000  0.5067730000000 1.0
C      1  0.4628720000000  0.5567610000000  0.5672000000000 1.0
C      1  0.5168030000000  0.4968300000000  0.4092160000000 1.0
C      1  0.5245250000000  0.4882090000000  0.5193650000000 1.0
C      1  0.5736080000000  0.5590560000000  0.5001210000000 1.0
C      1  0.5484660000000  0.5442450000000  0.4328340000000 1.0
C      1  0.4837200000000  0.4295170000000  0.4558410000000 1.0
C      1  0.4314910000000  0.5158740000000  0.4461230000000 1.0
C      1  0.4336590000000  0.4749980000000  0.4242090000000 1.0
C      1  0.4998540000000  0.5578510000000  0.4353540000000 1.0
C      1  0.5305620000000  0.5485680000000  0.5585160000000 1.0
C      1  0.5353800000000  0.4658790000000  0.5058830000000 1.0
C      1  0.4846520000000  0.5172350000000  0.5754210000000 1.0
C      1  0.5666930000000  0.5304420000000  0.4998380000000 1.0
C      1  0.5069410000000  0.5638870000000  0.5648080000000 1.0
C      1  0.4202040000000  0.5358230000000  0.4930310000000 1.0
C      1  0.4775890000000  0.5182340000000  0.4389760000000 1.0
C      1  0.4537320000000  0.4542030000000  0.4244400000000 1.0
C      1  0.5631170000000  0.4782950000000  0.4668260000000 1.0
C      1  0.5718430000000  0.5201310000000  0.4515500000000 1.0
C      1  0.4684070000000  0.5220570000000  0.5298000000000 1.0
C      1  0.4732080000000  0.4334960000000  0.4920390000000 1.0
C      1  0.5223350000000  0.5359650000000  0.4396680000000 1.0
C      1  0.5793670000000  0.5155930000000  0.4785650000000 1.0
C      1  0.4721800000000  0.4714810000000  0.4075630000000 1.0
C      1  0.5000850000000  0.4731610000000  0.4069680000000 1.0
C      1  0.4920500000000  0.4166040000000  0.4800840000000 1.0
C      1  0.4777870000000  0.5461460000000  0.4495230000000 1.0
C      1  0.4744200000000  0.5052550000000  0.5055550000000 1.0
C      1  0.5380830000000  0.5675960000000  0.4836190000000 1.0
C      1  0.4605100000000  0.5524090000000  0.4700250000000 1.0
END
