TITL C-93044-5216-7 0.0923897746485277 125000 -872.963589915098 0 0 124 (C1) n - 1
REM
REM in /rds/project/t2_vol4/rds-t2-cs072/BORA/CARBON/from-Arr/AIRSS/Generating-Clusters/GAP-ML-2020/Only-C1/SD-CG/HFTN-CG
REM
REM
REM
REM
REM
REM ./C.cell (11c1c37f851c82e70ff6c80c92926a4b)
REM AIRSS Version 0.9.1 bugfix July 2018 build 013d7b7c2542+ Fri, 06 Jul 2018 19:26:36 +0100
REM compiler GCC version 9.3.0
REM options -cpp -mtune=generic -march=x86-64 -g -O0
REM seed -2101766029 1516319867 -1477757739 1913723994 1444854333 -1187564167 654759283 -351745551 -880111920 583120087 -257150589 -794401825 -1128105098 128564579 1423139436 513020239 2055174536 890908971 1830820327 -2054278360 1072258270 63474974 -1644557487 -280672587 -1482509417 -1272958024 -1848044948 -1454190775 -642616082 -1963745671 -914287380 -1341851069 -927833652
REM
CELL 1.54180   50.00000   50.00000   50.00000   90.00000   90.00000   90.00000
LATT -1
SFAC C  
C      1  0.5242220000000  0.4794090000000  0.4618370000000 1.0
C      1  0.4258230000000  0.5333220000000  0.4514820000000 1.0
C      1  0.4488500000000  0.5212090000000  0.5833880000000 1.0
C      1  0.5524350000000  0.5640990000000  0.5261260000000 1.0
C      1  0.4168750000000  0.4460230000000  0.5175390000000 1.0
C      1  0.5015320000000  0.5044030000000  0.4060280000000 1.0
C      1  0.4256010000000  0.5556630000000  0.5249130000000 1.0
C      1  0.5224510000000  0.5894980000000  0.4946010000000 1.0
C      1  0.4108430000000  0.4655380000000  0.5003510000000 1.0
C      1  0.5421920000000  0.4698710000000  0.5068420000000 1.0
C      1  0.4068150000000  0.5082220000000  0.4843320000000 1.0
C      1  0.5947790000000  0.4625190000000  0.4782660000000 1.0
C      1  0.4870290000000  0.5961270000000  0.5418820000000 1.0
C      1  0.5092500000000  0.4507730000000  0.5639550000000 1.0
C      1  0.5042260000000  0.5158840000000  0.4918090000000 1.0
C      1  0.4979280000000  0.4684480000000  0.5025680000000 1.0
C      1  0.5427630000000  0.4831230000000  0.4820550000000 1.0
C      1  0.4874790000000  0.5295560000000  0.4119280000000 1.0
C      1  0.5884470000000  0.5091360000000  0.5317010000000 1.0
C      1  0.4183120000000  0.4629030000000  0.4712450000000 1.0
C      1  0.5782850000000  0.5250660000000  0.5083040000000 1.0
C      1  0.4849860000000  0.5793120000000  0.4601020000000 1.0
C      1  0.4528270000000  0.4957350000000  0.5734630000000 1.0
C      1  0.5324240000000  0.4326780000000  0.4532390000000 1.0
C      1  0.5092980000000  0.5610740000000  0.5651960000000 1.0
C      1  0.5009410000000  0.4652130000000  0.4725480000000 1.0
C      1  0.5364660000000  0.4889730000000  0.5798120000000 1.0
C      1  0.5311790000000  0.5381540000000  0.5205710000000 1.0
C      1  0.4785300000000  0.4973560000000  0.4491500000000 1.0
C      1  0.4217470000000  0.5316320000000  0.5418650000000 1.0
C      1  0.4349890000000  0.5382690000000  0.5661830000000 1.0
C      1  0.5993960000000  0.4865620000000  0.4925340000000 1.0
C      1  0.4565880000000  0.4378240000000  0.5443820000000 1.0
C      1  0.5159100000000  0.4366470000000  0.4764550000000 1.0
C      1  0.5328360000000  0.5099650000000  0.4832690000000 1.0
C      1  0.5336510000000  0.4606380000000  0.5742430000000 1.0
C      1  0.5105080000000  0.4377150000000  0.4325640000000 1.0
C      1  0.5219340000000  0.5544610000000  0.4699470000000 1.0
C      1  0.5583360000000  0.5367710000000  0.5636680000000 1.0
C      1  0.5281450000000  0.5354850000000  0.5692650000000 1.0
C      1  0.4629870000000  0.5918660000000  0.5293590000000 1.0
C      1  0.5218200000000  0.4484950000000  0.5054860000000 1.0
C      1  0.4089210000000  0.4938230000000  0.5090270000000 1.0
C      1  0.5400940000000  0.5750770000000  0.4772970000000 1.0
C      1  0.4268540000000  0.5057640000000  0.4428770000000 1.0
C      1  0.5218050000000  0.5118760000000  0.5868870000000 1.0
C      1  0.5673200000000  0.4855390000000  0.4451440000000 1.0
C      1  0.4806750000000  0.5513060000000  0.5683410000000 1.0
C      1  0.5585550000000  0.4588320000000  0.5595950000000 1.0
C      1  0.5661800000000  0.5376400000000  0.4607160000000 1.0
C      1  0.5065350000000  0.5460450000000  0.4260550000000 1.0
C      1  0.5790360000000  0.5119630000000  0.4578750000000 1.0
C      1  0.5145480000000  0.5264680000000  0.5433560000000 1.0
C      1  0.5732780000000  0.5127680000000  0.5563730000000 1.0
C      1  0.4756990000000  0.5313540000000  0.5890550000000 1.0
C      1  0.5094240000000  0.5438950000000  0.5000260000000 1.0
C      1  0.4549670000000  0.5215120000000  0.5085430000000 1.0
C      1  0.4259700000000  0.5553590000000  0.4958190000000 1.0
C      1  0.5522060000000  0.4245260000000  0.5191920000000 1.0
C      1  0.4581880000000  0.5682480000000  0.4589710000000 1.0
C      1  0.4768960000000  0.4161020000000  0.4627500000000 1.0
C      1  0.4515570000000  0.4218260000000  0.4752810000000 1.0
C      1  0.4137680000000  0.4900880000000  0.4625870000000 1.0
C      1  0.4218940000000  0.5036230000000  0.5329470000000 1.0
C      1  0.5725990000000  0.5545790000000  0.5057080000000 1.0
C      1  0.4150270000000  0.5353560000000  0.4781250000000 1.0
C      1  0.5470920000000  0.5164980000000  0.5104500000000 1.0
C      1  0.4714830000000  0.5789550000000  0.5036270000000 1.0
C      1  0.5379990000000  0.5314480000000  0.4595610000000 1.0
C      1  0.4647250000000  0.4663810000000  0.5398110000000 1.0
C      1  0.4789230000000  0.4202490000000  0.5427280000000 1.0
C      1  0.4710560000000  0.4658800000000  0.5097330000000 1.0
C      1  0.5352160000000  0.4821530000000  0.4336680000000 1.0
C      1  0.4908160000000  0.4729090000000  0.5571060000000 1.0
C      1  0.4573400000000  0.4721320000000  0.4170640000000 1.0
C      1  0.4379230000000  0.4430120000000  0.4607840000000 1.0
C      1  0.5058270000000  0.4274620000000  0.5478410000000 1.0
C      1  0.4487600000000  0.5698400000000  0.4855250000000 1.0
C      1  0.4478740000000  0.5475940000000  0.4404020000000 1.0
C      1  0.5589490000000  0.4366100000000  0.4632180000000 1.0
C      1  0.5634630000000  0.5605650000000  0.5518640000000 1.0
C      1  0.5013380000000  0.4062230000000  0.5060110000000 1.0
C      1  0.4697760000000  0.4658920000000  0.3932730000000 1.0
C      1  0.5305660000000  0.5840640000000  0.5213560000000 1.0
C      1  0.4717250000000  0.5119500000000  0.5288490000000 1.0
C      1  0.5677530000000  0.4418950000000  0.5385900000000 1.0
C      1  0.4822180000000  0.5152670000000  0.4713530000000 1.0
C      1  0.4601670000000  0.4528390000000  0.4409180000000 1.0
C      1  0.4428780000000  0.5739640000000  0.5396790000000 1.0
C      1  0.4578150000000  0.4785380000000  0.4873360000000 1.0
C      1  0.4589360000000  0.5080110000000  0.4857980000000 1.0
C      1  0.4481970000000  0.4910130000000  0.5451360000000 1.0
C      1  0.5129830000000  0.4958610000000  0.5377710000000 1.0
C      1  0.4797810000000  0.4877300000000  0.5796840000000 1.0
C      1  0.4935720000000  0.5887140000000  0.4860330000000 1.0
C      1  0.5657290000000  0.5604380000000  0.4796830000000 1.0
C      1  0.4742100000000  0.4714640000000  0.4613190000000 1.0
C      1  0.5769160000000  0.4603400000000  0.4563520000000 1.0
C      1  0.4962550000000  0.4967290000000  0.5145830000000 1.0
C      1  0.5292460000000  0.5299860000000  0.4311570000000 1.0
C      1  0.4824600000000  0.4317050000000  0.4395160000000 1.0
C      1  0.5082800000000  0.5772300000000  0.5392880000000 1.0
C      1  0.5043310000000  0.5635800000000  0.4481200000000 1.0
C      1  0.5570390000000  0.4891850000000  0.5578480000000 1.0
C      1  0.4859100000000  0.5359270000000  0.5398830000000 1.0
C      1  0.4903750000000  0.5574980000000  0.5188730000000 1.0
C      1  0.5888070000000  0.4550130000000  0.5241370000000 1.0
C      1  0.5215150000000  0.4225880000000  0.5227240000000 1.0
C      1  0.4939100000000  0.5095560000000  0.5910420000000 1.0
C      1  0.4518410000000  0.5010670000000  0.4288470000000 1.0
C      1  0.5955490000000  0.4836030000000  0.5210690000000 1.0
C      1  0.5660400000000  0.4280300000000  0.4922770000000 1.0
C      1  0.5902870000000  0.5113670000000  0.4837690000000 1.0
C      1  0.4520840000000  0.5610990000000  0.5630870000000 1.0
C      1  0.4761770000000  0.4066490000000  0.5175680000000 1.0
C      1  0.4371320000000  0.4296520000000  0.5238610000000 1.0
C      1  0.4938380000000  0.4763460000000  0.4050290000000 1.0
C      1  0.4605290000000  0.5292010000000  0.4210640000000 1.0
C      1  0.4995030000000  0.4129610000000  0.4790980000000 1.0
C      1  0.5408720000000  0.4905730000000  0.5278250000000 1.0
C      1  0.4516850000000  0.4146830000000  0.5039640000000 1.0
C      1  0.5148290000000  0.4621620000000  0.4194470000000 1.0
C      1  0.5267600000000  0.5053540000000  0.4183220000000 1.0
C      1  0.5891050000000  0.4431760000000  0.4980860000000 1.0
END
