TITL C-93386-4964-6 0.702192867628365 125000 -380.836630954242 0 0 56 (C1) n - 1
REM
REM in /rds/project/t2_vol4/rds-t2-cs072/BORA/CARBON/from-Arr/AIRSS/Generating-Clusters/GAP-ML-2020/Only-C1/SD-CG/HFTN-CG
REM
REM
REM
REM
REM
REM ./C.cell (11c1c37f851c82e70ff6c80c92926a4b)
REM AIRSS Version 0.9.1 bugfix July 2018 build 013d7b7c2542+ Fri, 06 Jul 2018 19:26:36 +0100
REM compiler GCC version 9.3.0
REM options -cpp -mtune=generic -march=x86-64 -g -O0
REM seed 1523954355 -64420024 976007307 -1885720314 188354133 -752534715 -844058653 619506386 -575034468 -1192012224 -1867975245 -1469143724 -2045355345 -853931394 -1524229130 -106269598 -978021653 -1328838418 -1539729889 -1384090436 1852792493 -1686241264 692032322 -1280557508 -572879564 -2122890581 486030059 -407989035 1450604432 955045935 1287919583 195912531 -332047908
REM
CELL 1.54180   50.00000   50.00000   50.00000   90.00000   90.00000   90.00000
LATT -1
SFAC C  
C      1  0.5306240000000  0.5256350000000  0.4494630000000 1.0
C      1  0.4739520000000  0.4379180000000  0.5024040000000 1.0
C      1  0.5681710000000  0.4967040000000  0.4946820000000 1.0
C      1  0.5230780000000  0.4790260000000  0.5722460000000 1.0
C      1  0.5642830000000  0.5176690000000  0.4754380000000 1.0
C      1  0.4736550000000  0.5054130000000  0.5574890000000 1.0
C      1  0.4692400000000  0.5400230000000  0.5314040000000 1.0
C      1  0.4585130000000  0.4639470000000  0.4621300000000 1.0
C      1  0.5013580000000  0.4439740000000  0.5404240000000 1.0
C      1  0.5520870000000  0.5070500000000  0.4517870000000 1.0
C      1  0.4806470000000  0.4840330000000  0.5384920000000 1.0
C      1  0.4628410000000  0.5197160000000  0.4637720000000 1.0
C      1  0.4681310000000  0.5644330000000  0.5190380000000 1.0
C      1  0.4741700000000  0.4564010000000  0.5400840000000 1.0
C      1  0.4557250000000  0.4526450000000  0.5180890000000 1.0
C      1  0.5121970000000  0.5663580000000  0.4571050000000 1.0
C      1  0.4980390000000  0.5357690000000  0.4909960000000 1.0
C      1  0.4413400000000  0.4799610000000  0.4792050000000 1.0
C      1  0.4842950000000  0.5007520000000  0.4640560000000 1.0
C      1  0.5098070000000  0.4787450000000  0.5011550000000 1.0
C      1  0.5516610000000  0.5426740000000  0.4822240000000 1.0
C      1  0.4371940000000  0.5242930000000  0.4986010000000 1.0
C      1  0.5398300000000  0.5221230000000  0.5248110000000 1.0
C      1  0.4864670000000  0.5652670000000  0.4592840000000 1.0
C      1  0.4724770000000  0.5450370000000  0.4760870000000 1.0
C      1  0.5243920000000  0.4951610000000  0.4836320000000 1.0
C      1  0.5248170000000  0.4654760000000  0.5471600000000 1.0
C      1  0.4729630000000  0.4983160000000  0.5133050000000 1.0
C      1  0.4428660000000  0.5046310000000  0.5192060000000 1.0
C      1  0.4898250000000  0.5226680000000  0.5168420000000 1.0
C      1  0.5130700000000  0.5147190000000  0.5346490000000 1.0
C      1  0.4984890000000  0.4662490000000  0.4326600000000 1.0
C      1  0.5474230000000  0.4711420000000  0.5278490000000 1.0
C      1  0.5134520000000  0.5583730000000  0.5043400000000 1.0
C      1  0.4840920000000  0.4837370000000  0.4906670000000 1.0
C      1  0.5592300000000  0.4706380000000  0.4829670000000 1.0
C      1  0.4397190000000  0.4756090000000  0.5074410000000 1.0
C      1  0.5471020000000  0.4556790000000  0.5040850000000 1.0
C      1  0.5359210000000  0.5519990000000  0.4578390000000 1.0
C      1  0.5421310000000  0.4794220000000  0.4609370000000 1.0
C      1  0.5144350000000  0.5001740000000  0.5845470000000 1.0
C      1  0.4783730000000  0.4492440000000  0.4772050000000 1.0
C      1  0.4532000000000  0.5201720000000  0.5445550000000 1.0
C      1  0.4537300000000  0.5491300000000  0.4982270000000 1.0
C      1  0.5009760000000  0.4348850000000  0.5147680000000 1.0
C      1  0.4402120000000  0.5085510000000  0.4749560000000 1.0
C      1  0.5101930000000  0.4850670000000  0.5301190000000 1.0
C      1  0.5196780000000  0.4623440000000  0.4508320000000 1.0
C      1  0.5001990000000  0.5138290000000  0.5647900000000 1.0
C      1  0.5562090000000  0.4982620000000  0.5204100000000 1.0
C      1  0.5395890000000  0.5447890000000  0.5074690000000 1.0
C      1  0.5095650000000  0.5159210000000  0.4703850000000 1.0
C      1  0.4768600000000  0.4785780000000  0.4441490000000 1.0
C      1  0.4943640000000  0.5743770000000  0.5151480000000 1.0
C      1  0.5076100000000  0.4470550000000  0.4710420000000 1.0
C      1  0.5195330000000  0.4482340000000  0.4973540000000 1.0
END
