TITL C-93035-7612-7 1.87800246620589 125000 -467.814754883206 0 0 69 (C1) n - 1
REM
REM in /rds/project/t2_vol4/rds-t2-cs072/BORA/CARBON/from-Arr/AIRSS/Generating-Clusters/GAP-ML-2020/Only-C1/SD-CG/HFTN-CG
REM
REM
REM
REM
REM
REM ./C.cell (11c1c37f851c82e70ff6c80c92926a4b)
REM AIRSS Version 0.9.1 bugfix July 2018 build 013d7b7c2542+ Fri, 06 Jul 2018 19:26:36 +0100
REM compiler GCC version 9.3.0
REM options -cpp -mtune=generic -march=x86-64 -g -O0
REM seed -851624227 1069038523 -1420848951 1240533598 -2034698599 -1694229865 -362301697 2078145404 703154280 1547365454 -1949855693 -1806673696 1210226711 -1470572032 -1306990269 -647269564 -1265007172 1070946647 -278388394 505821340 705342287 381013163 1770920932 1144261054 -1833107945 512860169 -1724540164 -1550180909 2143307827 -1757190636 -1340652671 1150654219 -1094243829
REM
CELL 1.54180   50.00000   50.00000   50.00000   90.00000   90.00000   90.00000
LATT -1
SFAC C  
C      1  0.5275790000000  0.5090070000000  0.5042120000000 1.0
C      1  0.4940840000000  0.4500760000000  0.5569760000000 1.0
C      1  0.5400090000000  0.5498600000000  0.4803890000000 1.0
C      1  0.4543480000000  0.4615210000000  0.4599040000000 1.0
C      1  0.4802510000000  0.4785740000000  0.4963460000000 1.0
C      1  0.4867320000000  0.5270430000000  0.4319830000000 1.0
C      1  0.4823130000000  0.5059680000000  0.4858360000000 1.0
C      1  0.4776560000000  0.4426040000000  0.4627560000000 1.0
C      1  0.5876200000000  0.5048250000000  0.5318970000000 1.0
C      1  0.4707790000000  0.4750970000000  0.5238370000000 1.0
C      1  0.5570200000000  0.5378370000000  0.5259070000000 1.0
C      1  0.4349900000000  0.5168690000000  0.4957910000000 1.0
C      1  0.5155800000000  0.5520750000000  0.4663320000000 1.0
C      1  0.4387990000000  0.4764360000000  0.5538290000000 1.0
C      1  0.5390300000000  0.4964560000000  0.5298130000000 1.0
C      1  0.4619200000000  0.5805950000000  0.5072770000000 1.0
C      1  0.4886610000000  0.5230840000000  0.5335550000000 1.0
C      1  0.5152720000000  0.4792410000000  0.5290820000000 1.0
C      1  0.5134030000000  0.4510220000000  0.5375220000000 1.0
C      1  0.4919640000000  0.5643010000000  0.4758260000000 1.0
C      1  0.5403220000000  0.4846840000000  0.4429800000000 1.0
C      1  0.5725540000000  0.4672750000000  0.5086750000000 1.0
C      1  0.5566440000000  0.4462010000000  0.5136320000000 1.0
C      1  0.5415800000000  0.5549810000000  0.5100410000000 1.0
C      1  0.4305430000000  0.4897500000000  0.5005470000000 1.0
C      1  0.4406170000000  0.4736280000000  0.5244710000000 1.0
C      1  0.5093090000000  0.4717030000000  0.4986520000000 1.0
C      1  0.5388540000000  0.5214690000000  0.5455930000000 1.0
C      1  0.4500110000000  0.5179690000000  0.4454320000000 1.0
C      1  0.4423230000000  0.5397150000000  0.5119650000000 1.0
C      1  0.4686330000000  0.5022410000000  0.4303310000000 1.0
C      1  0.4720000000000  0.4303610000000  0.5093240000000 1.0
C      1  0.5545710000000  0.5272290000000  0.4684380000000 1.0
C      1  0.5242240000000  0.4903130000000  0.4825940000000 1.0
C      1  0.4991140000000  0.5197070000000  0.5063430000000 1.0
C      1  0.5208490000000  0.4606640000000  0.4429550000000 1.0
C      1  0.5758530000000  0.5210750000000  0.5133870000000 1.0
C      1  0.4694180000000  0.4754030000000  0.4386180000000 1.0
C      1  0.4897880000000  0.4925530000000  0.5393030000000 1.0
C      1  0.4877490000000  0.4798670000000  0.5672100000000 1.0
C      1  0.5712570000000  0.5119060000000  0.4861190000000 1.0
C      1  0.5680140000000  0.4866200000000  0.5300010000000 1.0
C      1  0.4641980000000  0.5424860000000  0.5323290000000 1.0
C      1  0.5165770000000  0.4416350000000  0.4900140000000 1.0
C      1  0.5119410000000  0.5276000000000  0.4488120000000 1.0
C      1  0.5033550000000  0.5042610000000  0.4659480000000 1.0
C      1  0.5396160000000  0.5142980000000  0.4465740000000 1.0
C      1  0.4806290000000  0.4482450000000  0.5321140000000 1.0
C      1  0.4707930000000  0.5707380000000  0.5328280000000 1.0
C      1  0.5131880000000  0.5362620000000  0.5455190000000 1.0
C      1  0.5495560000000  0.4738870000000  0.4682330000000 1.0
C      1  0.5190540000000  0.5597630000000  0.5280270000000 1.0
C      1  0.5331240000000  0.4486920000000  0.4660800000000 1.0
C      1  0.4449390000000  0.4224620000000  0.5052180000000 1.0
C      1  0.5069410000000  0.4991750000000  0.5771980000000 1.0
C      1  0.4986750000000  0.5774530000000  0.5247380000000 1.0
C      1  0.4892520000000  0.4315360000000  0.4860470000000 1.0
C      1  0.5714000000000  0.4829960000000  0.4835570000000 1.0
C      1  0.4365350000000  0.4669600000000  0.4820810000000 1.0
C      1  0.4647510000000  0.5432390000000  0.4411790000000 1.0
C      1  0.4405280000000  0.4487760000000  0.5041220000000 1.0
C      1  0.5312930000000  0.4379240000000  0.5163710000000 1.0
C      1  0.4578820000000  0.4813830000000  0.5696370000000 1.0
C      1  0.4888600000000  0.5830790000000  0.4974160000000 1.0
C      1  0.5214040000000  0.5207310000000  0.5699050000000 1.0
C      1  0.4656970000000  0.5507530000000  0.4701010000000 1.0
C      1  0.4482830000000  0.5612360000000  0.4925040000000 1.0
C      1  0.4565730000000  0.5196310000000  0.4751330000000 1.0
C      1  0.4927150000000  0.4569950000000  0.4426310000000 1.0
END
