TITL C-93027-7368-7 0.0433368756999988 125000 -375.41723621791 0 0 56 (C1) n - 1
REM
REM in /rds/project/t2_vol4/rds-t2-cs072/BORA/CARBON/from-Arr/AIRSS/Generating-Clusters/GAP-ML-2020/Only-C1/SD-CG/HFTN-CG
REM
REM
REM
REM
REM
REM ./C.cell (11c1c37f851c82e70ff6c80c92926a4b)
REM AIRSS Version 0.9.1 bugfix July 2018 build 013d7b7c2542+ Fri, 06 Jul 2018 19:26:36 +0100
REM compiler GCC version 9.3.0
REM options -cpp -mtune=generic -march=x86-64 -g -O0
REM seed -664947646 477382333 -1670600312 292001988 767387492 -2068905728 2114387615 1615396267 -1856607042 1418880392 -6350387 -1365212154 1404943907 -1953760432 -1948411283 -340502176 63273650 -1708714459 1478844446 -471459652 -580728665 -355355028 -372851270 500193472 -1696964799 -622232314 -2116869435 1508841916 529638804 708287319 -416112209 292531564 797810799
REM
CELL 1.54180   50.00000   50.00000   50.00000   90.00000   90.00000   90.00000
LATT -1
SFAC C  
C      1  0.5276080000000  0.5245210000000  0.4204890000000 1.0
C      1  0.5372840000000  0.5056390000000  0.5486140000000 1.0
C      1  0.5110500000000  0.4347300000000  0.4899620000000 1.0
C      1  0.4504240000000  0.4899380000000  0.4419380000000 1.0
C      1  0.4993590000000  0.5453370000000  0.4596690000000 1.0
C      1  0.5269540000000  0.4999670000000  0.4346570000000 1.0
C      1  0.5531710000000  0.5226240000000  0.5332500000000 1.0
C      1  0.4462140000000  0.4623330000000  0.5057560000000 1.0
C      1  0.4603270000000  0.5265500000000  0.4933190000000 1.0
C      1  0.5656940000000  0.5066730000000  0.5128070000000 1.0
C      1  0.4649430000000  0.4644010000000  0.4497020000000 1.0
C      1  0.4321130000000  0.4871910000000  0.5115520000000 1.0
C      1  0.4545340000000  0.5161800000000  0.5538990000000 1.0
C      1  0.5121920000000  0.4562890000000  0.4697710000000 1.0
C      1  0.5660890000000  0.5098030000000  0.4659030000000 1.0
C      1  0.5010460000000  0.5424900000000  0.5116600000000 1.0
C      1  0.4555630000000  0.4888600000000  0.5546240000000 1.0
C      1  0.4771400000000  0.4846440000000  0.4873500000000 1.0
C      1  0.4678480000000  0.4530470000000  0.5236510000000 1.0
C      1  0.5412680000000  0.4960970000000  0.4605460000000 1.0
C      1  0.4723700000000  0.5044340000000  0.5091950000000 1.0
C      1  0.4989920000000  0.5123560000000  0.5198680000000 1.0
C      1  0.4933750000000  0.4429910000000  0.5133490000000 1.0
C      1  0.5168570000000  0.4946570000000  0.5047450000000 1.0
C      1  0.4458600000000  0.5009870000000  0.5308780000000 1.0
C      1  0.5394880000000  0.4682200000000  0.4706970000000 1.0
C      1  0.5347490000000  0.4386000000000  0.5063060000000 1.0
C      1  0.5651140000000  0.5226080000000  0.4893860000000 1.0
C      1  0.4748700000000  0.5271640000000  0.4653070000000 1.0
C      1  0.4538380000000  0.4681660000000  0.4771950000000 1.0
C      1  0.4363830000000  0.4917350000000  0.4669930000000 1.0
C      1  0.4999510000000  0.4789530000000  0.5540670000000 1.0
C      1  0.5162510000000  0.5398670000000  0.4849970000000 1.0
C      1  0.4740060000000  0.4690080000000  0.5475190000000 1.0
C      1  0.5440250000000  0.5473430000000  0.5225610000000 1.0
C      1  0.5129200000000  0.5358120000000  0.4385770000000 1.0
C      1  0.5444030000000  0.5443930000000  0.4946760000000 1.0
C      1  0.4971940000000  0.5349670000000  0.5594420000000 1.0
C      1  0.4345550000000  0.5078530000000  0.4890750000000 1.0
C      1  0.5079220000000  0.5079950000000  0.5503460000000 1.0
C      1  0.4933650000000  0.4625760000000  0.4472430000000 1.0
C      1  0.5181720000000  0.4414280000000  0.5300840000000 1.0
C      1  0.5005580000000  0.4708040000000  0.4962000000000 1.0
C      1  0.5188840000000  0.5555260000000  0.5326260000000 1.0
C      1  0.4689080000000  0.5493210000000  0.5148360000000 1.0
C      1  0.5009840000000  0.4891270000000  0.4410390000000 1.0
C      1  0.5145330000000  0.5560780000000  0.5595430000000 1.0
C      1  0.4714710000000  0.5366130000000  0.5460460000000 1.0
C      1  0.4569330000000  0.5744980000000  0.5131370000000 1.0
C      1  0.5448910000000  0.4792060000000  0.5422380000000 1.0
C      1  0.4567220000000  0.5158540000000  0.4451650000000 1.0
C      1  0.5498800000000  0.4605980000000  0.4970100000000 1.0
C      1  0.5594190000000  0.4788740000000  0.5170960000000 1.0
C      1  0.5222410000000  0.4631180000000  0.5469220000000 1.0
C      1  0.5175090000000  0.5089020000000  0.4796290000000 1.0
C      1  0.4915850000000  0.5020520000000  0.4668890000000 1.0
END
