TITL C-93400-4975-3 -238.456817674689 125000 -819.685528449934 0 0 118 (C1) n - 1
REM
REM in /rds/project/t2_vol4/rds-t2-cs072/BORA/CARBON/from-Arr/AIRSS/Generating-Clusters/GAP-ML-2020/Only-C1/SD-CG/HFTN-CG
REM
REM
REM
REM
REM
REM ./C.cell (11c1c37f851c82e70ff6c80c92926a4b)
REM AIRSS Version 0.9.1 bugfix July 2018 build 013d7b7c2542+ Fri, 06 Jul 2018 19:26:36 +0100
REM compiler GCC version 9.3.0
REM options -cpp -mtune=generic -march=x86-64 -g -O0
REM seed 888224284 -489019015 -2059481813 -952126768 -1299386863 -1079047379 -473504928 -447717100 -1851996942 -672175361 -631304689 -791137309 -1702073939 1557428584 -983987924 1717932018 -1274185134 -134741864 1690342532 -779456110 -1898917337 -1846458491 -1252040383 277619995 -720212855 -816985223 -245459430 1848263358 -1559339993 1401980143 1762401978 2052623482 704127576
REM
CELL 1.54180   50.00000   50.00000   50.00000   90.00000   90.00000   90.00000
LATT -1
SFAC C  
C      1  0.4006940000000  0.5166650000000  0.4598800000000 1.0
C      1  0.4877610000000  0.5200960000000  0.4276200000000 1.0
C      1  0.4889240000000  0.4385540000000  0.5284040000000 1.0
C      1  0.5499310000000  0.5722700000000  0.5426040000000 1.0
C      1  0.5267240000000  0.4187190000000  0.5439630000000 1.0
C      1  0.4344050000000  0.5538280000000  0.4576840000000 1.0
C      1  0.4457240000000  0.5355470000000  0.4392430000000 1.0
C      1  0.4895830000000  0.5649330000000  0.5382140000000 1.0
C      1  0.4717810000000  0.5220510000000  0.4928460000000 1.0
C      1  0.5283690000000  0.5289640000000  0.4413180000000 1.0
C      1  0.5842720000000  0.5418600000000  0.5174930000000 1.0
C      1  0.4786250000000  0.5796170000000  0.4580850000000 1.0
C      1  0.4438650000000  0.4716560000000  0.5688420000000 1.0
C      1  0.4523770000000  0.5726290000000  0.4713200000000 1.0
C      1  0.4447070000000  0.4594480000000  0.4287970000000 1.0
C      1  0.4829880000000  0.4069020000000  0.4846080000000 1.0
C      1  0.4721950000000  0.5893510000000  0.5129810000000 1.0
C      1  0.4926050000000  0.4769260000000  0.5813220000000 1.0
C      1  0.5146580000000  0.5364520000000  0.5007620000000 1.0
C      1  0.5278720000000  0.5760400000000  0.4611860000000 1.0
C      1  0.4630250000000  0.4865260000000  0.5833090000000 1.0
C      1  0.4223450000000  0.4598200000000  0.4983950000000 1.0
C      1  0.4754960000000  0.5209750000000  0.5245880000000 1.0
C      1  0.4796750000000  0.4774620000000  0.4651460000000 1.0
C      1  0.5043510000000  0.5166000000000  0.5218460000000 1.0
C      1  0.4948750000000  0.5857620000000  0.5608430000000 1.0
C      1  0.5024980000000  0.5880150000000  0.4720210000000 1.0
C      1  0.4266030000000  0.4870340000000  0.5494610000000 1.0
C      1  0.5035430000000  0.5171920000000  0.4529910000000 1.0
C      1  0.5159100000000  0.4562870000000  0.4919770000000 1.0
C      1  0.4203010000000  0.4679950000000  0.5270380000000 1.0
C      1  0.5733370000000  0.5363030000000  0.4500960000000 1.0
C      1  0.4963820000000  0.4874530000000  0.5542320000000 1.0
C      1  0.4540950000000  0.4155610000000  0.4888250000000 1.0
C      1  0.4872980000000  0.4508190000000  0.4796710000000 1.0
C      1  0.5697020000000  0.5664900000000  0.5226310000000 1.0
C      1  0.4463240000000  0.5139800000000  0.4807280000000 1.0
C      1  0.5096040000000  0.5653440000000  0.5149520000000 1.0
C      1  0.4533130000000  0.4275670000000  0.4628730000000 1.0
C      1  0.5750990000000  0.4941850000000  0.5062720000000 1.0
C      1  0.5275490000000  0.4858630000000  0.4112270000000 1.0
C      1  0.5791820000000  0.5162830000000  0.5291080000000 1.0
C      1  0.5883880000000  0.5093230000000  0.4833220000000 1.0
C      1  0.5545300000000  0.5806580000000  0.5020460000000 1.0
C      1  0.5003000000000  0.5394890000000  0.5817850000000 1.0
C      1  0.4666880000000  0.4924410000000  0.4876590000000 1.0
C      1  0.4740230000000  0.5337070000000  0.5722180000000 1.0
C      1  0.5596550000000  0.5144450000000  0.5492080000000 1.0
C      1  0.5214440000000  0.5187380000000  0.5776200000000 1.0
C      1  0.4727260000000  0.4786450000000  0.5114440000000 1.0
C      1  0.5407140000000  0.5269130000000  0.4916870000000 1.0
C      1  0.4345950000000  0.5151440000000  0.5545710000000 1.0
C      1  0.4695080000000  0.5427650000000  0.5448400000000 1.0
C      1  0.5441590000000  0.5000880000000  0.5031500000000 1.0
C      1  0.5417710000000  0.4586060000000  0.5613290000000 1.0
C      1  0.5661450000000  0.4435710000000  0.4902390000000 1.0
C      1  0.5166580000000  0.4404110000000  0.4238060000000 1.0
C      1  0.4786230000000  0.4954750000000  0.4178980000000 1.0
C      1  0.4787600000000  0.5951440000000  0.5412470000000 1.0
C      1  0.5146210000000  0.5097470000000  0.5482350000000 1.0
C      1  0.5195120000000  0.4909630000000  0.5896500000000 1.0
C      1  0.4342150000000  0.4433240000000  0.5342120000000 1.0
C      1  0.5322140000000  0.4106770000000  0.4866190000000 1.0
C      1  0.5462980000000  0.5318770000000  0.5687090000000 1.0
C      1  0.4501460000000  0.5739850000000  0.5007160000000 1.0
C      1  0.4972850000000  0.5870540000000  0.4990260000000 1.0
C      1  0.5222020000000  0.4373660000000  0.5650560000000 1.0
C      1  0.5117440000000  0.4603940000000  0.5209670000000 1.0
C      1  0.4716290000000  0.4924610000000  0.5363480000000 1.0
C      1  0.4890370000000  0.5630260000000  0.4377000000000 1.0
C      1  0.4714490000000  0.5423450000000  0.4289020000000 1.0
C      1  0.5328870000000  0.5818920000000  0.5210870000000 1.0
C      1  0.5361200000000  0.4592750000000  0.4205930000000 1.0
C      1  0.5069140000000  0.4046160000000  0.4994380000000 1.0
C      1  0.5009440000000  0.4873960000000  0.5092910000000 1.0
C      1  0.4771700000000  0.4395580000000  0.5555690000000 1.0
C      1  0.5798450000000  0.5090050000000  0.4553210000000 1.0
C      1  0.5571720000000  0.4624710000000  0.4405140000000 1.0
C      1  0.5241990000000  0.4741010000000  0.5429020000000 1.0
C      1  0.4421840000000  0.5066940000000  0.4501270000000 1.0
C      1  0.5611200000000  0.4507110000000  0.5365210000000 1.0
C      1  0.5214940000000  0.4846680000000  0.4863120000000 1.0
C      1  0.4428220000000  0.4374250000000  0.5063200000000 1.0
C      1  0.5563350000000  0.4432590000000  0.4623630000000 1.0
C      1  0.5098210000000  0.4250100000000  0.4445980000000 1.0
C      1  0.5639520000000  0.4910120000000  0.4391090000000 1.0
C      1  0.4255450000000  0.5335090000000  0.4928600000000 1.0
C      1  0.5015560000000  0.4896840000000  0.4063480000000 1.0
C      1  0.5511460000000  0.4252170000000  0.5301350000000 1.0
C      1  0.4712930000000  0.4488600000000  0.5059470000000 1.0
C      1  0.4965280000000  0.4472270000000  0.5741110000000 1.0
C      1  0.5389570000000  0.4990790000000  0.5349600000000 1.0
C      1  0.4113410000000  0.5403280000000  0.4697310000000 1.0
C      1  0.5053870000000  0.4137330000000  0.5261450000000 1.0
C      1  0.4946570000000  0.5318420000000  0.4788480000000 1.0
C      1  0.5535930000000  0.4213090000000  0.5024030000000 1.0
C      1  0.5883350000000  0.5376990000000  0.4900030000000 1.0
C      1  0.4845480000000  0.4258920000000  0.4616470000000 1.0
C      1  0.4402460000000  0.5395840000000  0.5390750000000 1.0
C      1  0.5481210000000  0.5283340000000  0.4620330000000 1.0
C      1  0.5064360000000  0.4900210000000  0.4618700000000 1.0
C      1  0.4413770000000  0.4499920000000  0.4041120000000 1.0
C      1  0.4502700000000  0.4465830000000  0.5570690000000 1.0
C      1  0.5111070000000  0.5641920000000  0.5718220000000 1.0
C      1  0.4155620000000  0.4943710000000  0.4574270000000 1.0
C      1  0.4205620000000  0.4670360000000  0.4711030000000 1.0
C      1  0.5184950000000  0.5587500000000  0.4403600000000 1.0
C      1  0.5413890000000  0.4761820000000  0.5840800000000 1.0
C      1  0.4358490000000  0.4477020000000  0.4548660000000 1.0
C      1  0.5391350000000  0.5590190000000  0.5648490000000 1.0
C      1  0.5716260000000  0.4637500000000  0.5117510000000 1.0
C      1  0.5757720000000  0.5551830000000  0.4700890000000 1.0
C      1  0.4610240000000  0.4839100000000  0.4393490000000 1.0
C      1  0.5339220000000  0.4237440000000  0.4614050000000 1.0
C      1  0.5426620000000  0.5053410000000  0.4253800000000 1.0
C      1  0.5540460000000  0.5749120000000  0.4748760000000 1.0
C      1  0.4552910000000  0.5132810000000  0.5760080000000 1.0
C      1  0.4336430000000  0.5518390000000  0.5136640000000 1.0
END
