TITL C-93041-5175-2 -0.0514778474870654 125000 -229.535576619514 0 0 35 (C1) n - 1
REM
REM in /rds/project/t2_vol4/rds-t2-cs072/BORA/CARBON/from-Arr/AIRSS/Generating-Clusters/GAP-ML-2020/Only-C1/SD-CG/HFTN-CG
REM
REM
REM
REM
REM
REM ./C.cell (11c1c37f851c82e70ff6c80c92926a4b)
REM AIRSS Version 0.9.1 bugfix July 2018 build 013d7b7c2542+ Fri, 06 Jul 2018 19:26:36 +0100
REM compiler GCC version 9.3.0
REM options -cpp -mtune=generic -march=x86-64 -g -O0
REM seed 2036175292 1907593259 1160002924 -299957589 1789563928 -103314147 257843308 685991510 375109412 -811358126 1573531253 1510613895 -2002417161 450799229 -2125493222 1004260606 2121196040 687022271 -1119999940 -469934318 1698473423 85709035 -203038591 -232911411 2020577954 -1739731802 -1469648301 -1214881165 -1155327857 1011921644 -1783202571 451149694 158969864
REM
CELL 1.54180   50.00000   50.00000   50.00000   90.00000   90.00000   90.00000
LATT -1
SFAC C  
C      1  0.5363910000000  0.4589380000000  0.5152490000000 1.0
C      1  0.5027330000000  0.4710000000000  0.4797130000000 1.0
C      1  0.5116980000000  0.5071980000000  0.5087520000000 1.0
C      1  0.4790890000000  0.5193990000000  0.5379710000000 1.0
C      1  0.4696200000000  0.4817180000000  0.5123560000000 1.0
C      1  0.4364500000000  0.4609710000000  0.4794890000000 1.0
C      1  0.5036250000000  0.5662550000000  0.4956510000000 1.0
C      1  0.4978990000000  0.4934970000000  0.4391520000000 1.0
C      1  0.4713010000000  0.5401400000000  0.5196820000000 1.0
C      1  0.5456430000000  0.4891260000000  0.5526000000000 1.0
C      1  0.4808500000000  0.5613260000000  0.4816890000000 1.0
C      1  0.5162150000000  0.5469860000000  0.5297870000000 1.0
C      1  0.5299700000000  0.4660260000000  0.4881930000000 1.0
C      1  0.5508140000000  0.4826680000000  0.5264740000000 1.0
C      1  0.4925260000000  0.5611090000000  0.5229420000000 1.0
C      1  0.5275710000000  0.5490890000000  0.5026010000000 1.0
C      1  0.4896850000000  0.4939830000000  0.4939700000000 1.0
C      1  0.4520250000000  0.4676810000000  0.4980800000000 1.0
C      1  0.5316040000000  0.5213290000000  0.4933150000000 1.0
C      1  0.4699170000000  0.5366270000000  0.4896170000000 1.0
C      1  0.5202630000000  0.4438580000000  0.5330580000000 1.0
C      1  0.5343250000000  0.5077060000000  0.4656160000000 1.0
C      1  0.5040150000000  0.4513510000000  0.5512120000000 1.0
C      1  0.5527460000000  0.5014860000000  0.5040440000000 1.0
C      1  0.5483650000000  0.4858820000000  0.4794940000000 1.0
C      1  0.4929520000000  0.4709550000000  0.4547450000000 1.0
C      1  0.4746720000000  0.4911820000000  0.5386960000000 1.0
C      1  0.5221350000000  0.5059610000000  0.4417640000000 1.0
C      1  0.4710010000000  0.5014230000000  0.4504360000000 1.0
C      1  0.4749130000000  0.5119770000000  0.4768140000000 1.0
C      1  0.4487300000000  0.4874620000000  0.4425550000000 1.0
C      1  0.4977170000000  0.4789370000000  0.5512340000000 1.0
C      1  0.5193000000000  0.4977630000000  0.5535150000000 1.0
C      1  0.4344980000000  0.4695010000000  0.4538670000000 1.0
C      1  0.5087440000000  0.5194900000000  0.5356670000000 1.0
END
