TITL C-93389-4974-3 4.87316838275127 125000 -234.158976866893 0 0 36 (C1) n - 1
REM
REM in /rds/project/t2_vol4/rds-t2-cs072/BORA/CARBON/from-Arr/AIRSS/Generating-Clusters/GAP-ML-2020/Only-C1/SD-CG/HFTN-CG
REM
REM
REM
REM
REM
REM ./C.cell (11c1c37f851c82e70ff6c80c92926a4b)
REM AIRSS Version 0.9.1 bugfix July 2018 build 013d7b7c2542+ Fri, 06 Jul 2018 19:26:36 +0100
REM compiler GCC version 9.3.0
REM options -cpp -mtune=generic -march=x86-64 -g -O0
REM seed 1023519749 1198887074 -1763490105 1683109043 1020435558 -379516747 -478775456 -1173872989 1864768148 638817879 1988838824 -1508523637 -1033340219 -1240114692 1294673769 348604886 113537005 953962680 -2061190224 -875114397 1095484613 598628201 -1401058249 509563180 -1021096665 1970079504 211177690 540969535 13788364 255038995 1421508155 1492244722 1191258440
REM
CELL 1.54180   50.00000   50.00000   50.00000   90.00000   90.00000   90.00000
LATT -1
SFAC C  
C      1  0.5060070000000  0.5202210000000  0.4591760000000 1.0
C      1  0.5166810000000  0.5619880000000  0.5335570000000 1.0
C      1  0.4522110000000  0.4947120000000  0.5392620000000 1.0
C      1  0.4949580000000  0.4482530000000  0.4661660000000 1.0
C      1  0.4773430000000  0.4374840000000  0.5076660000000 1.0
C      1  0.4898940000000  0.4879920000000  0.5222290000000 1.0
C      1  0.4994050000000  0.4343600000000  0.4919720000000 1.0
C      1  0.4973200000000  0.5176650000000  0.5582470000000 1.0
C      1  0.4762350000000  0.5025750000000  0.5485270000000 1.0
C      1  0.5370170000000  0.5542830000000  0.4744930000000 1.0
C      1  0.4784020000000  0.5536700000000  0.4724930000000 1.0
C      1  0.5029490000000  0.5384570000000  0.5377080000000 1.0
C      1  0.5513610000000  0.4905080000000  0.5389210000000 1.0
C      1  0.4455700000000  0.4867770000000  0.4602890000000 1.0
C      1  0.5266820000000  0.4815270000000  0.5502920000000 1.0
C      1  0.5340050000000  0.4796910000000  0.4716210000000 1.0
C      1  0.5503740000000  0.5012100000000  0.5158970000000 1.0
C      1  0.4598790000000  0.4808620000000  0.5159960000000 1.0
C      1  0.5562160000000  0.4794210000000  0.4574410000000 1.0
C      1  0.5327810000000  0.5039180000000  0.4931630000000 1.0
C      1  0.4934700000000  0.5319800000000  0.5107120000000 1.0
C      1  0.4896440000000  0.5569430000000  0.4964690000000 1.0
C      1  0.5066880000000  0.4662580000000  0.5338160000000 1.0
C      1  0.4659320000000  0.5037550000000  0.4620890000000 1.0
C      1  0.5357350000000  0.5752060000000  0.4897640000000 1.0
C      1  0.5023490000000  0.4421660000000  0.5206410000000 1.0
C      1  0.4693210000000  0.4441800000000  0.4567120000000 1.0
C      1  0.4931240000000  0.4964010000000  0.4732430000000 1.0
C      1  0.4538060000000  0.4613590000000  0.4716710000000 1.0
C      1  0.5018790000000  0.5055680000000  0.5006760000000 1.0
C      1  0.5141630000000  0.5713970000000  0.5076020000000 1.0
C      1  0.5151300000000  0.4988410000000  0.5682240000000 1.0
C      1  0.5071900000000  0.4733000000000  0.4639970000000 1.0
C      1  0.4795950000000  0.5310930000000  0.4568730000000 1.0
C      1  0.4570900000000  0.4579460000000  0.4998470000000 1.0
C      1  0.5295950000000  0.5280340000000  0.4725470000000 1.0
END
