TITL C-93020-5122-2 -0.0349014171288474 125000 -827.222167033246 0 0 119 (C1) n - 1
REM
REM in /rds/project/t2_vol4/rds-t2-cs072/BORA/CARBON/from-Arr/AIRSS/Generating-Clusters/GAP-ML-2020/Only-C1/SD-CG/HFTN-CG
REM
REM
REM
REM
REM
REM ./C.cell (11c1c37f851c82e70ff6c80c92926a4b)
REM AIRSS Version 0.9.1 bugfix July 2018 build 013d7b7c2542+ Fri, 06 Jul 2018 19:26:36 +0100
REM compiler GCC version 9.3.0
REM options -cpp -mtune=generic -march=x86-64 -g -O0
REM seed -395012996 1468472683 -1552412639 -52485996 1424144174 -548385844 338374219 -1331122032 -2031843019 -1224520383 -1341400645 -1904420842 -1000436421 -1457685435 -1569668700 -700732536 -1763311512 -1999597685 -1363647648 324236190 1046887924 1939975815 -1525009907 -916949114 1084669888 1902594534 646443745 -1514886931 760541358 1098267979 500061491 2119468657 660515177
REM
CELL 1.54180   50.00000   50.00000   50.00000   90.00000   90.00000   90.00000
LATT -1
SFAC C  
C      1  0.4867720000000  0.4103310000000  0.5143120000000 1.0
C      1  0.4172440000000  0.5080230000000  0.5384640000000 1.0
C      1  0.4668950000000  0.4890170000000  0.4294780000000 1.0
C      1  0.4545040000000  0.5253560000000  0.4997630000000 1.0
C      1  0.4257300000000  0.5097610000000  0.4521130000000 1.0
C      1  0.5343300000000  0.4048450000000  0.4941330000000 1.0
C      1  0.5151410000000  0.4844880000000  0.4026360000000 1.0
C      1  0.5199290000000  0.5894360000000  0.4979810000000 1.0
C      1  0.4816780000000  0.4792680000000  0.4775470000000 1.0
C      1  0.5758070000000  0.5180220000000  0.5615050000000 1.0
C      1  0.4692350000000  0.4186160000000  0.4915470000000 1.0
C      1  0.5241380000000  0.5565940000000  0.4344340000000 1.0
C      1  0.4204030000000  0.4604150000000  0.5353600000000 1.0
C      1  0.5252040000000  0.4954970000000  0.4276740000000 1.0
C      1  0.4339170000000  0.4814520000000  0.4503290000000 1.0
C      1  0.5247680000000  0.4120290000000  0.4691820000000 1.0
C      1  0.4971700000000  0.5727250000000  0.5527650000000 1.0
C      1  0.4721480000000  0.4910180000000  0.5597620000000 1.0
C      1  0.4465900000000  0.5155300000000  0.5263770000000 1.0
C      1  0.5373160000000  0.4930550000000  0.5215810000000 1.0
C      1  0.4488110000000  0.4354070000000  0.5006480000000 1.0
C      1  0.5363770000000  0.4725380000000  0.4445230000000 1.0
C      1  0.5087490000000  0.4879830000000  0.5233060000000 1.0
C      1  0.4391100000000  0.5365920000000  0.4465340000000 1.0
C      1  0.4953180000000  0.5028980000000  0.5466640000000 1.0
C      1  0.4987520000000  0.4619060000000  0.4017510000000 1.0
C      1  0.5261940000000  0.5675310000000  0.5429150000000 1.0
C      1  0.5376580000000  0.5826940000000  0.5196630000000 1.0
C      1  0.5053640000000  0.4344670000000  0.4670320000000 1.0
C      1  0.5757730000000  0.5496320000000  0.5009960000000 1.0
C      1  0.4785680000000  0.4657440000000  0.5758050000000 1.0
C      1  0.5224370000000  0.4694190000000  0.5835160000000 1.0
C      1  0.4843710000000  0.5310860000000  0.4159860000000 1.0
C      1  0.5461720000000  0.5555480000000  0.5614440000000 1.0
C      1  0.4109820000000  0.5400670000000  0.4844220000000 1.0
C      1  0.4717880000000  0.5751810000000  0.4774080000000 1.0
C      1  0.4901180000000  0.5281720000000  0.5335840000000 1.0
C      1  0.4753100000000  0.5056580000000  0.4071030000000 1.0
C      1  0.5564040000000  0.4224640000000  0.4986080000000 1.0
C      1  0.4552430000000  0.5661130000000  0.5309090000000 1.0
C      1  0.4525550000000  0.4523280000000  0.5690740000000 1.0
C      1  0.4652080000000  0.5437890000000  0.4361380000000 1.0
C      1  0.5746130000000  0.5011110000000  0.4475160000000 1.0
C      1  0.5075920000000  0.5349420000000  0.5831270000000 1.0
C      1  0.5660250000000  0.4744690000000  0.4466450000000 1.0
C      1  0.4618220000000  0.5374140000000  0.5707470000000 1.0
C      1  0.5158580000000  0.4060450000000  0.5154690000000 1.0
C      1  0.5460070000000  0.4839630000000  0.5737100000000 1.0
C      1  0.4702240000000  0.4423920000000  0.4405090000000 1.0
C      1  0.5039970000000  0.4500120000000  0.5721610000000 1.0
C      1  0.4799390000000  0.5794410000000  0.5303220000000 1.0
C      1  0.5696830000000  0.5433520000000  0.5502520000000 1.0
C      1  0.5859020000000  0.4782720000000  0.5202300000000 1.0
C      1  0.4963060000000  0.5017130000000  0.4954930000000 1.0
C      1  0.5285760000000  0.4211020000000  0.5361230000000 1.0
C      1  0.4290800000000  0.5537870000000  0.4673380000000 1.0
C      1  0.4830330000000  0.5265490000000  0.5028780000000 1.0
C      1  0.5804340000000  0.5365480000000  0.4760290000000 1.0
C      1  0.4370220000000  0.4374990000000  0.5270750000000 1.0
C      1  0.4525950000000  0.5099160000000  0.5742770000000 1.0
C      1  0.4276520000000  0.4975750000000  0.5652270000000 1.0
C      1  0.5549990000000  0.4324660000000  0.5259050000000 1.0
C      1  0.4524060000000  0.4652330000000  0.4349230000000 1.0
C      1  0.5837390000000  0.5076450000000  0.4733930000000 1.0
C      1  0.4445230000000  0.5717320000000  0.4835040000000 1.0
C      1  0.5192470000000  0.5047010000000  0.4769100000000 1.0
C      1  0.4687160000000  0.4691030000000  0.5167200000000 1.0
C      1  0.5054750000000  0.5106100000000  0.4509880000000 1.0
C      1  0.4901650000000  0.4880560000000  0.3903880000000 1.0
C      1  0.5167810000000  0.5421090000000  0.5261570000000 1.0
C      1  0.4996100000000  0.4839110000000  0.5923540000000 1.0
C      1  0.4355370000000  0.5683260000000  0.5109170000000 1.0
C      1  0.4556710000000  0.4316260000000  0.5488010000000 1.0
C      1  0.5673430000000  0.5463900000000  0.4519250000000 1.0
C      1  0.5357600000000  0.5250490000000  0.4867930000000 1.0
C      1  0.4113960000000  0.4887240000000  0.4928170000000 1.0
C      1  0.4132090000000  0.5499010000000  0.5114070000000 1.0
C      1  0.5543240000000  0.4810210000000  0.5445530000000 1.0
C      1  0.5292370000000  0.4771220000000  0.4764720000000 1.0
C      1  0.4066920000000  0.5336780000000  0.5321060000000 1.0
C      1  0.4104290000000  0.5128090000000  0.4768390000000 1.0
C      1  0.5490880000000  0.4798470000000  0.4970800000000 1.0
C      1  0.5218530000000  0.4455310000000  0.4414030000000 1.0
C      1  0.5528830000000  0.5117450000000  0.5786540000000 1.0
C      1  0.4608560000000  0.4905470000000  0.5326960000000 1.0
C      1  0.5355940000000  0.5363880000000  0.5795140000000 1.0
C      1  0.5383670000000  0.5204180000000  0.4206150000000 1.0
C      1  0.5059250000000  0.5457050000000  0.4543860000000 1.0
C      1  0.5624910000000  0.5240750000000  0.4346850000000 1.0
C      1  0.5630780000000  0.4356420000000  0.4727680000000 1.0
C      1  0.5210860000000  0.5488220000000  0.4793010000000 1.0
C      1  0.5787960000000  0.4827320000000  0.4908100000000 1.0
C      1  0.5056640000000  0.4599430000000  0.4851030000000 1.0
C      1  0.5380550000000  0.5740660000000  0.4783030000000 1.0
C      1  0.4106720000000  0.4835420000000  0.5211870000000 1.0
C      1  0.5435100000000  0.4267970000000  0.4535090000000 1.0
C      1  0.4970310000000  0.4457140000000  0.4244830000000 1.0
C      1  0.4980290000000  0.4625620000000  0.5143420000000 1.0
C      1  0.4811480000000  0.4206190000000  0.5412090000000 1.0
C      1  0.5762100000000  0.4605200000000  0.4693690000000 1.0
C      1  0.4777010000000  0.4263770000000  0.4635410000000 1.0
C      1  0.5017310000000  0.5081040000000  0.5776880000000 1.0
C      1  0.5156800000000  0.5388850000000  0.4149970000000 1.0
C      1  0.4799140000000  0.5593700000000  0.4546470000000 1.0
C      1  0.5024410000000  0.5507940000000  0.5011010000000 1.0
C      1  0.5064370000000  0.4286230000000  0.5535870000000 1.0
C      1  0.5680070000000  0.4575800000000  0.5321850000000 1.0
C      1  0.5575030000000  0.5714270000000  0.5010140000000 1.0
C      1  0.4556430000000  0.4647910000000  0.4900670000000 1.0
C      1  0.4915910000000  0.5786820000000  0.5011260000000 1.0
C      1  0.4821180000000  0.4943780000000  0.4528460000000 1.0
C      1  0.5784150000000  0.5015840000000  0.5374070000000 1.0
C      1  0.5389480000000  0.5233740000000  0.5165510000000 1.0
C      1  0.4291560000000  0.4686740000000  0.5624060000000 1.0
C      1  0.4878050000000  0.5530160000000  0.5735250000000 1.0
C      1  0.4303150000000  0.4736020000000  0.4778300000000 1.0
C      1  0.5468540000000  0.5659460000000  0.4501890000000 1.0
C      1  0.4590470000000  0.5388000000000  0.5427010000000 1.0
C      1  0.5685590000000  0.5317660000000  0.5232060000000 1.0
END
