TITL C-93042-4968-6 0.0680196983927043 125000 -116.219542524272 0 0 18 (C1) n - 1
REM
REM in /rds/project/t2_vol4/rds-t2-cs072/BORA/CARBON/from-Arr/AIRSS/Generating-Clusters/GAP-ML-2020/Only-C1/SD-CG/HFTN-CG
REM
REM
REM
REM
REM
REM ./C.cell (11c1c37f851c82e70ff6c80c92926a4b)
REM AIRSS Version 0.9.1 bugfix July 2018 build 013d7b7c2542+ Fri, 06 Jul 2018 19:26:36 +0100
REM compiler GCC version 9.3.0
REM options -cpp -mtune=generic -march=x86-64 -g -O0
REM seed -1677660081 1133849340 -1709508596 965585030 1138158361 1473465845 -753693106 712401945 939379472 -56128911 -1505396009 1199845700 -1863826481 2076720156 325513717 -847679941 1365129700 -708203289 1121167786 -1477737929 2103761779 -1782905095 -1079241456 104134371 1652407337 1406659317 505684190 1207325427 561387359 1896900747 -102288772 722712384 2080468565
REM
CELL 1.54180   50.00000   50.00000   50.00000   90.00000   90.00000   90.00000
LATT -1
SFAC C  
C      1  0.5495610000000  0.5009800000000  0.5400910000000 1.0
C      1  0.4657010000000  0.5168200000000  0.4500030000000 1.0
C      1  0.5361770000000  0.4957450000000  0.4958330000000 1.0
C      1  0.5343250000000  0.4907510000000  0.5581820000000 1.0
C      1  0.4545540000000  0.5259750000000  0.4710940000000 1.0
C      1  0.5121000000000  0.4787520000000  0.5015880000000 1.0
C      1  0.4564440000000  0.5227970000000  0.5216170000000 1.0
C      1  0.5271500000000  0.4985110000000  0.4670140000000 1.0
C      1  0.5290170000000  0.5111930000000  0.4437170000000 1.0
C      1  0.5073500000000  0.4844770000000  0.5500040000000 1.0
C      1  0.5041960000000  0.4815400000000  0.4725490000000 1.0
C      1  0.5032460000000  0.4705290000000  0.5253580000000 1.0
C      1  0.4763580000000  0.4963790000000  0.4372620000000 1.0
C      1  0.4854610000000  0.5008310000000  0.5570500000000 1.0
C      1  0.4693980000000  0.5133380000000  0.5419350000000 1.0
C      1  0.4835740000000  0.4784770000000  0.4557320000000 1.0
C      1  0.4520480000000  0.5270000000000  0.4967800000000 1.0
C      1  0.5533420000000  0.5059070000000  0.5141920000000 1.0
END
