TITL C-93033-4835-3 60.2797126385989 125000 -254.537678830715 0 0 39 (C1) n - 1
REM
REM in /rds/project/t2_vol4/rds-t2-cs072/BORA/CARBON/from-Arr/AIRSS/Generating-Clusters/GAP-ML-2020/Only-C1/SD-CG/HFTN-CG
REM
REM
REM
REM
REM
REM ./C.cell (11c1c37f851c82e70ff6c80c92926a4b)
REM AIRSS Version 0.9.1 bugfix July 2018 build 013d7b7c2542+ Fri, 06 Jul 2018 19:26:36 +0100
REM compiler GCC version 9.3.0
REM options -cpp -mtune=generic -march=x86-64 -g -O0
REM seed -602800639 310740805 1859371868 195488482 1267039290 -287667377 -168903773 -1886533638 1719405289 277149861 1883220877 -440401632 -1595521852 498213904 1427168765 2035414289 -293730247 873945686 -297202786 700659738 -1595171496 -359464393 1682027882 -61567853 924741007 -1683629626 -891202330 177502496 -30948145 689005730 825143182 -1547585749 -782999651
REM
CELL 1.54180   50.00000   50.00000   50.00000   90.00000   90.00000   90.00000
LATT -1
SFAC C  
C      1  0.4475120000000  0.4966720000000  0.5285130000000 1.0
C      1  0.4715040000000  0.4465440000000  0.5235790000000 1.0
C      1  0.4995820000000  0.4722820000000  0.5367090000000 1.0
C      1  0.4919540000000  0.5523960000000  0.5231230000000 1.0
C      1  0.5431270000000  0.5046560000000  0.5239060000000 1.0
C      1  0.5496680000000  0.4969890000000  0.4698350000000 1.0
C      1  0.4753950000000  0.4619930000000  0.5469990000000 1.0
C      1  0.4973420000000  0.4893380000000  0.4450340000000 1.0
C      1  0.5139980000000  0.5138410000000  0.4481730000000 1.0
C      1  0.4875380000000  0.4426440000000  0.5014120000000 1.0
C      1  0.5023370000000  0.5276030000000  0.5420580000000 1.0
C      1  0.4554140000000  0.5232040000000  0.5358140000000 1.0
C      1  0.5411380000000  0.5185360000000  0.4534770000000 1.0
C      1  0.5120170000000  0.5138190000000  0.4903800000000 1.0
C      1  0.4761280000000  0.5150250000000  0.5541400000000 1.0
C      1  0.5154460000000  0.4453260000000  0.5080230000000 1.0
C      1  0.4594560000000  0.5197290000000  0.4906290000000 1.0
C      1  0.5291490000000  0.5187840000000  0.5434910000000 1.0
C      1  0.5289350000000  0.5595550000000  0.4818970000000 1.0
C      1  0.4590500000000  0.4909900000000  0.5010990000000 1.0
C      1  0.4690830000000  0.5346540000000  0.5133730000000 1.0
C      1  0.5455400000000  0.5384110000000  0.4767970000000 1.0
C      1  0.5003640000000  0.4688710000000  0.4632460000000 1.0
C      1  0.4887060000000  0.4868700000000  0.5114380000000 1.0
C      1  0.4635760000000  0.4877370000000  0.5506180000000 1.0
C      1  0.5076780000000  0.5601920000000  0.5020480000000 1.0
C      1  0.5413070000000  0.5161340000000  0.4947590000000 1.0
C      1  0.4700510000000  0.4933240000000  0.4546740000000 1.0
C      1  0.5474500000000  0.4711960000000  0.4725490000000 1.0
C      1  0.5229200000000  0.4576750000000  0.5327010000000 1.0
C      1  0.5420750000000  0.4768250000000  0.5218330000000 1.0
C      1  0.4982490000000  0.5288450000000  0.4667270000000 1.0
C      1  0.5076270000000  0.4839120000000  0.4888280000000 1.0
C      1  0.4710780000000  0.5188670000000  0.4656980000000 1.0
C      1  0.4791800000000  0.4540150000000  0.4760390000000 1.0
C      1  0.5310350000000  0.4664730000000  0.4955230000000 1.0
C      1  0.5026120000000  0.5558320000000  0.4746820000000 1.0
C      1  0.4951040000000  0.5153480000000  0.5147610000000 1.0
C      1  0.4596760000000  0.4748910000000  0.4754140000000 1.0
END
