TITL C-93043-5099-4 0.268827757825027 125000 -697.828333054666 0 0 99 (C1) n - 1
REM
REM in /rds/project/t2_vol4/rds-t2-cs072/BORA/CARBON/from-Arr/AIRSS/Generating-Clusters/GAP-ML-2020/Only-C1/SD-CG/HFTN-CG
REM
REM
REM
REM
REM
REM ./C.cell (11c1c37f851c82e70ff6c80c92926a4b)
REM AIRSS Version 0.9.1 bugfix July 2018 build 013d7b7c2542+ Fri, 06 Jul 2018 19:26:36 +0100
REM compiler GCC version 9.3.0
REM options -cpp -mtune=generic -march=x86-64 -g -O0
REM seed 2046905726 -167348217 -382998576 1305555584 -2042986792 -168138435 -1566012489 126729757 -2078456811 -1485859064 -410652548 717202699 -394208110 1953610780 2048812533 -241326228 -895459180 -1684398960 -429811189 -888543200 -2078533218 -1524413646 -1934353940 2042916537 1612583328 1454104077 -1573758691 11475040 1255421851 930350253 1715887801 2038838135 -1930706189
REM
CELL 1.54180   50.00000   50.00000   50.00000   90.00000   90.00000   90.00000
LATT -1
SFAC C  
C      1  0.5606180000000  0.5279330000000  0.5553020000000 1.0
C      1  0.5150500000000  0.5215820000000  0.4957610000000 1.0
C      1  0.4083780000000  0.4988180000000  0.5015780000000 1.0
C      1  0.4234920000000  0.4749640000000  0.5038920000000 1.0
C      1  0.4911700000000  0.5321540000000  0.4821600000000 1.0
C      1  0.4824390000000  0.5757510000000  0.5081760000000 1.0
C      1  0.5480720000000  0.4659480000000  0.5697010000000 1.0
C      1  0.4338420000000  0.4696380000000  0.4474880000000 1.0
C      1  0.5213640000000  0.4911530000000  0.4819160000000 1.0
C      1  0.4566350000000  0.4698450000000  0.5847980000000 1.0
C      1  0.4783710000000  0.5570050000000  0.4373660000000 1.0
C      1  0.5718170000000  0.5008160000000  0.5521840000000 1.0
C      1  0.5443330000000  0.4787790000000  0.4580440000000 1.0
C      1  0.4857240000000  0.5167990000000  0.4574290000000 1.0
C      1  0.4730400000000  0.4538160000000  0.4205980000000 1.0
C      1  0.4854790000000  0.4993070000000  0.5254880000000 1.0
C      1  0.4557990000000  0.4981810000000  0.5884930000000 1.0
C      1  0.4873110000000  0.5623740000000  0.5574740000000 1.0
C      1  0.4815420000000  0.4215610000000  0.4836190000000 1.0
C      1  0.5150270000000  0.4167670000000  0.5260890000000 1.0
C      1  0.4918310000000  0.4696640000000  0.4075100000000 1.0
C      1  0.5719810000000  0.4793850000000  0.5697470000000 1.0
C      1  0.4276810000000  0.5385010000000  0.5146710000000 1.0
C      1  0.5023230000000  0.4997010000000  0.5913850000000 1.0
C      1  0.4582770000000  0.4489310000000  0.5658540000000 1.0
C      1  0.5274380000000  0.4847420000000  0.5596830000000 1.0
C      1  0.5496200000000  0.5775830000000  0.4883600000000 1.0
C      1  0.5810270000000  0.4558350000000  0.4910380000000 1.0
C      1  0.4342620000000  0.4974740000000  0.4602120000000 1.0
C      1  0.5187710000000  0.4720530000000  0.4161230000000 1.0
C      1  0.4984520000000  0.5352030000000  0.4301310000000 1.0
C      1  0.5132730000000  0.5331350000000  0.5530200000000 1.0
C      1  0.5334680000000  0.4336150000000  0.5396640000000 1.0
C      1  0.4691600000000  0.5521890000000  0.4931580000000 1.0
C      1  0.4798950000000  0.4956670000000  0.4039680000000 1.0
C      1  0.4738620000000  0.4228770000000  0.5110390000000 1.0
C      1  0.4770280000000  0.4923040000000  0.5507620000000 1.0
C      1  0.5554020000000  0.5018720000000  0.4427440000000 1.0
C      1  0.5074280000000  0.5855710000000  0.4690560000000 1.0
C      1  0.5159320000000  0.5622840000000  0.5498670000000 1.0
C      1  0.4496340000000  0.4704590000000  0.4247070000000 1.0
C      1  0.5369060000000  0.5285590000000  0.5703350000000 1.0
C      1  0.4712010000000  0.5664050000000  0.5337320000000 1.0
C      1  0.5597110000000  0.5478250000000  0.5348560000000 1.0
C      1  0.5228810000000  0.4998610000000  0.4103640000000 1.0
C      1  0.4458990000000  0.5512310000000  0.4725260000000 1.0
C      1  0.5326000000000  0.5823000000000  0.5100620000000 1.0
C      1  0.5041200000000  0.4492110000000  0.5710430000000 1.0
C      1  0.4153400000000  0.5123680000000  0.4768790000000 1.0
C      1  0.5095910000000  0.4250940000000  0.4762940000000 1.0
C      1  0.5622040000000  0.4922400000000  0.5242170000000 1.0
C      1  0.5712950000000  0.5177520000000  0.4588640000000 1.0
C      1  0.5644530000000  0.4638520000000  0.5114290000000 1.0
C      1  0.5290670000000  0.5055160000000  0.5831220000000 1.0
C      1  0.4831320000000  0.4373480000000  0.4408500000000 1.0
C      1  0.5308420000000  0.4922710000000  0.5292810000000 1.0
C      1  0.4463690000000  0.4749120000000  0.4836140000000 1.0
C      1  0.5683030000000  0.5562260000000  0.4875100000000 1.0
C      1  0.4438190000000  0.4504780000000  0.4661810000000 1.0
C      1  0.5059610000000  0.5869250000000  0.4986930000000 1.0
C      1  0.5385440000000  0.4488500000000  0.5135370000000 1.0
C      1  0.5781020000000  0.5021040000000  0.4807950000000 1.0
C      1  0.5404590000000  0.5157700000000  0.4242550000000 1.0
C      1  0.5109040000000  0.4381890000000  0.4499270000000 1.0
C      1  0.4472610000000  0.4515570000000  0.5399410000000 1.0
C      1  0.4535480000000  0.5444470000000  0.4462190000000 1.0
C      1  0.4882670000000  0.4185320000000  0.5354080000000 1.0
C      1  0.5287130000000  0.4588080000000  0.4397580000000 1.0
C      1  0.5718220000000  0.5399320000000  0.5103560000000 1.0
C      1  0.5345770000000  0.5782380000000  0.4640800000000 1.0
C      1  0.4544260000000  0.5145320000000  0.4441120000000 1.0
C      1  0.4499660000000  0.5011010000000  0.5612250000000 1.0
C      1  0.4883470000000  0.5782910000000  0.4509640000000 1.0
C      1  0.4163430000000  0.5143320000000  0.5248370000000 1.0
C      1  0.4942220000000  0.4913350000000  0.4680580000000 1.0
C      1  0.4989690000000  0.4790350000000  0.5692070000000 1.0
C      1  0.5276160000000  0.5403280000000  0.4318180000000 1.0
C      1  0.5254830000000  0.4250410000000  0.4997090000000 1.0
C      1  0.5196960000000  0.4735710000000  0.5081080000000 1.0
C      1  0.4989860000000  0.5152750000000  0.4079090000000 1.0
C      1  0.4244530000000  0.5381860000000  0.4849740000000 1.0
C      1  0.5691120000000  0.4750550000000  0.4755940000000 1.0
C      1  0.5752480000000  0.5119550000000  0.5066180000000 1.0
C      1  0.4532920000000  0.5487390000000  0.5196680000000 1.0
C      1  0.4803370000000  0.5170790000000  0.5911600000000 1.0
C      1  0.4564440000000  0.4977490000000  0.4191430000000 1.0
C      1  0.5380740000000  0.5681990000000  0.5342880000000 1.0
C      1  0.5319180000000  0.4430180000000  0.5656410000000 1.0
C      1  0.4286470000000  0.4706380000000  0.5317710000000 1.0
C      1  0.5114830000000  0.5146500000000  0.5248090000000 1.0
C      1  0.4277410000000  0.4965360000000  0.5444560000000 1.0
C      1  0.4881210000000  0.4736690000000  0.5111800000000 1.0
C      1  0.4677120000000  0.4486020000000  0.5197190000000 1.0
C      1  0.5657780000000  0.5448290000000  0.4616940000000 1.0
C      1  0.4833010000000  0.4338040000000  0.5606250000000 1.0
C      1  0.4760610000000  0.4798190000000  0.4864640000000 1.0
C      1  0.4654100000000  0.4320660000000  0.4626360000000 1.0
C      1  0.4874310000000  0.5368140000000  0.5711990000000 1.0
C      1  0.5432460000000  0.5567120000000  0.4480310000000 1.0
END
