TITL C-93401-5071-2 -21.6574408346939 125000 -303.814412304921 0 0 46 (C1) n - 1
REM
REM in /rds/project/t2_vol4/rds-t2-cs072/BORA/CARBON/from-Arr/AIRSS/Generating-Clusters/GAP-ML-2020/Only-C1/SD-CG/HFTN-CG
REM
REM
REM
REM
REM
REM ./C.cell (11c1c37f851c82e70ff6c80c92926a4b)
REM AIRSS Version 0.9.1 bugfix July 2018 build 013d7b7c2542+ Fri, 06 Jul 2018 19:26:36 +0100
REM compiler GCC version 9.3.0
REM options -cpp -mtune=generic -march=x86-64 -g -O0
REM seed 683840395 949179134 -1356270874 980530985 -246137160 2119294783 1177186373 1250897241 -710627547 -805942071 1473385625 1184677753 1577502969 -965653384 289999227 -269378140 1233997959 1560832306 -1209576385 1834477331 -623921377 1300850782 1784157616 -1072570928 921192179 -1748897898 -507190098 -1936851438 -1117828868 -1167556281 -1197008541 -1448749898 -1999545723
REM
CELL 1.54180   50.00000   50.00000   50.00000   90.00000   90.00000   90.00000
LATT -1
SFAC C  
C      1  0.5154120000000  0.5033720000000  0.4502880000000 1.0
C      1  0.4674010000000  0.5556140000000  0.4769030000000 1.0
C      1  0.5255630000000  0.5319080000000  0.4596840000000 1.0
C      1  0.5491000000000  0.5523550000000  0.5288980000000 1.0
C      1  0.4667190000000  0.4496210000000  0.5332150000000 1.0
C      1  0.5395420000000  0.5277950000000  0.4860720000000 1.0
C      1  0.5324080000000  0.4538180000000  0.4804270000000 1.0
C      1  0.4455410000000  0.4988500000000  0.5252190000000 1.0
C      1  0.4848830000000  0.5628750000000  0.4556170000000 1.0
C      1  0.4788570000000  0.5338050000000  0.5197700000000 1.0
C      1  0.5069220000000  0.4627940000000  0.5202150000000 1.0
C      1  0.5363050000000  0.5504920000000  0.5039470000000 1.0
C      1  0.4804460000000  0.4711920000000  0.4435970000000 1.0
C      1  0.5111400000000  0.5599870000000  0.4944180000000 1.0
C      1  0.4321380000000  0.5201700000000  0.4847140000000 1.0
C      1  0.5105370000000  0.5549970000000  0.4639910000000 1.0
C      1  0.5415570000000  0.5012000000000  0.5391240000000 1.0
C      1  0.5009100000000  0.5080980000000  0.5627710000000 1.0
C      1  0.4825200000000  0.4870590000000  0.5598270000000 1.0
C      1  0.4364920000000  0.4958170000000  0.4981830000000 1.0
C      1  0.4960600000000  0.4472520000000  0.5411580000000 1.0
C      1  0.4653780000000  0.4802460000000  0.5364550000000 1.0
C      1  0.4876040000000  0.4858660000000  0.5168730000000 1.0
C      1  0.5242580000000  0.4891770000000  0.5582240000000 1.0
C      1  0.4625170000000  0.4531240000000  0.4836670000000 1.0
C      1  0.5582530000000  0.5051440000000  0.4918470000000 1.0
C      1  0.4917990000000  0.4922090000000  0.4358760000000 1.0
C      1  0.5428580000000  0.4907140000000  0.5123020000000 1.0
C      1  0.5074040000000  0.5270040000000  0.5428060000000 1.0
C      1  0.4839390000000  0.5549610000000  0.5019490000000 1.0
C      1  0.5092840000000  0.4457800000000  0.4675960000000 1.0
C      1  0.4590830000000  0.4416590000000  0.5085300000000 1.0
C      1  0.4830260000000  0.4497450000000  0.4628150000000 1.0
C      1  0.5420080000000  0.4881670000000  0.4479710000000 1.0
C      1  0.4992310000000  0.5124770000000  0.5189510000000 1.0
C      1  0.5051220000000  0.4944230000000  0.4765900000000 1.0
C      1  0.4427080000000  0.5412930000000  0.4766720000000 1.0
C      1  0.4538840000000  0.4800050000000  0.4821470000000 1.0
C      1  0.4800680000000  0.4878390000000  0.4887390000000 1.0
C      1  0.5528220000000  0.4653630000000  0.4627250000000 1.0
C      1  0.5607960000000  0.4910050000000  0.4684560000000 1.0
C      1  0.4556520000000  0.5238170000000  0.5294740000000 1.0
C      1  0.5323360000000  0.4637810000000  0.5075120000000 1.0
C      1  0.5181330000000  0.5087410000000  0.4976270000000 1.0
C      1  0.5360360000000  0.5306670000000  0.5386660000000 1.0
C      1  0.5053470000000  0.4677220000000  0.5574920000000 1.0
END
