TITL C-93034-4886-1 16.6766715664272 125000 -227.864088678194 0 0 36 (C1) n - 1
REM
REM in /rds/project/t2_vol4/rds-t2-cs072/BORA/CARBON/from-Arr/AIRSS/Generating-Clusters/GAP-ML-2020/Only-C1/SD-CG/HFTN-CG
REM
REM
REM
REM
REM
REM ./C.cell (11c1c37f851c82e70ff6c80c92926a4b)
REM AIRSS Version 0.9.1 bugfix July 2018 build 013d7b7c2542+ Fri, 06 Jul 2018 19:26:36 +0100
REM compiler GCC version 9.3.0
REM options -cpp -mtune=generic -march=x86-64 -g -O0
REM seed 263801656 -2025124573 362036156 1568748315 1745289990 937847898 1884458006 -1083199694 126507368 -391599064 -670376953 578522814 -400713283 420302052 992864313 290814113 -1617736254 300168089 -1398930627 -1872395485 280313692 -658230892 -431977501 -1027583356 -626755828 260688788 1579167020 1297488865 2139816044 -811967922 391613930 -261118298 -115455339
REM
CELL 1.54180   50.00000   50.00000   50.00000   90.00000   90.00000   90.00000
LATT -1
SFAC C  
C      1  0.4655870000000  0.5251770000000  0.4839870000000 1.0
C      1  0.5473560000000  0.4652920000000  0.5247780000000 1.0
C      1  0.4761190000000  0.5020650000000  0.4284670000000 1.0
C      1  0.4983780000000  0.5154430000000  0.4356460000000 1.0
C      1  0.5460030000000  0.5002080000000  0.4904220000000 1.0
C      1  0.5335660000000  0.5131680000000  0.5389140000000 1.0
C      1  0.4958490000000  0.4784180000000  0.5389020000000 1.0
C      1  0.5120310000000  0.5308410000000  0.5405430000000 1.0
C      1  0.4887280000000  0.5099280000000  0.5367250000000 1.0
C      1  0.4786630000000  0.4968130000000  0.4886270000000 1.0
C      1  0.5056240000000  0.4604900000000  0.4945800000000 1.0
C      1  0.5097140000000  0.5467220000000  0.4758410000000 1.0
C      1  0.4968710000000  0.5107160000000  0.5076800000000 1.0
C      1  0.4382830000000  0.4705210000000  0.4866890000000 1.0
C      1  0.5101050000000  0.5380310000000  0.4489810000000 1.0
C      1  0.5420410000000  0.4708800000000  0.5530750000000 1.0
C      1  0.5612600000000  0.4778900000000  0.5049580000000 1.0
C      1  0.4248010000000  0.4617950000000  0.4672790000000 1.0
C      1  0.4564930000000  0.4860380000000  0.4315840000000 1.0
C      1  0.4419170000000  0.5293970000000  0.4967580000000 1.0
C      1  0.4866490000000  0.4451130000000  0.5063060000000 1.0
C      1  0.5249900000000  0.5012650000000  0.5121510000000 1.0
C      1  0.4749950000000  0.4641610000000  0.5223850000000 1.0
C      1  0.5010510000000  0.4806550000000  0.4754750000000 1.0
C      1  0.5523890000000  0.5296960000000  0.4884230000000 1.0
C      1  0.5449340000000  0.4982450000000  0.5578650000000 1.0
C      1  0.5322990000000  0.5466700000000  0.4949820000000 1.0
C      1  0.4574120000000  0.4824920000000  0.5048260000000 1.0
C      1  0.5235460000000  0.5113180000000  0.4479440000000 1.0
C      1  0.4915500000000  0.5379880000000  0.4960410000000 1.0
C      1  0.5133840000000  0.5479340000000  0.5185220000000 1.0
C      1  0.5192140000000  0.4734690000000  0.5170450000000 1.0
C      1  0.4617990000000  0.5167580000000  0.5392470000000 1.0
C      1  0.5248210000000  0.4950220000000  0.4702130000000 1.0
C      1  0.4482340000000  0.5117690000000  0.5168130000000 1.0
C      1  0.5133430000000  0.4676100000000  0.5573260000000 1.0
END
