TITL C-93037-2471-8 -9.41702228849855 125000 -357.957690125515 0 0 53 (C1) n - 1
REM
REM in /rds/project/t2_vol4/rds-t2-cs072/BORA/CARBON/from-Arr/AIRSS/Generating-Clusters/GAP-ML-2020/Only-C1/SD-CG/HFTN-CG
REM
REM
REM
REM
REM
REM ./C.cell (11c1c37f851c82e70ff6c80c92926a4b)
REM AIRSS Version 0.9.1 bugfix July 2018 build 013d7b7c2542+ Fri, 06 Jul 2018 19:26:36 +0100
REM compiler GCC version 9.3.0
REM options -cpp -mtune=generic -march=x86-64 -g -O0
REM seed 583559391 1001910452 -636985544 1340454527 -883297832 -380456779 -435668083 1593609653 -538973044 -1832415079 -1967099116 1632370957 202978192 -218799858 1774804640 412637400 -1207456276 -1297555824 1962417386 -1058603056 672898274 -1464760725 -1212183998 -510577594 1952730069 -1377378227 -83187616 -1676370892 -1978689321 -1850604613 637169405 224549742 -733419462
REM
CELL 1.54180   50.00000   50.00000   50.00000   90.00000   90.00000   90.00000
LATT -1
SFAC C  
C      1  0.5321870000000  0.4880710000000  0.4401230000000 1.0
C      1  0.5527100000000  0.4786010000000  0.5158770000000 1.0
C      1  0.5408010000000  0.5763230000000  0.4880280000000 1.0
C      1  0.4853410000000  0.5170780000000  0.5420060000000 1.0
C      1  0.4928640000000  0.4977410000000  0.4994520000000 1.0
C      1  0.4575900000000  0.5513000000000  0.5241560000000 1.0
C      1  0.4697670000000  0.5065300000000  0.5182280000000 1.0
C      1  0.4754830000000  0.5444550000000  0.5471650000000 1.0
C      1  0.4635530000000  0.4657160000000  0.5706780000000 1.0
C      1  0.5224660000000  0.5515210000000  0.5314460000000 1.0
C      1  0.4493860000000  0.4482990000000  0.5210870000000 1.0
C      1  0.5038270000000  0.4860290000000  0.4370300000000 1.0
C      1  0.5027310000000  0.4277690000000  0.5209110000000 1.0
C      1  0.5390750000000  0.5157200000000  0.4423720000000 1.0
C      1  0.5729990000000  0.4878470000000  0.4999890000000 1.0
C      1  0.5093000000000  0.5545170000000  0.4503900000000 1.0
C      1  0.5165980000000  0.5313630000000  0.4350660000000 1.0
C      1  0.5035600000000  0.4503970000000  0.4693970000000 1.0
C      1  0.5289390000000  0.5610440000000  0.4687960000000 1.0
C      1  0.4591980000000  0.5298790000000  0.5036050000000 1.0
C      1  0.4839160000000  0.5470900000000  0.4631310000000 1.0
C      1  0.5381820000000  0.5566320000000  0.5079100000000 1.0
C      1  0.4618900000000  0.4770270000000  0.4614300000000 1.0
C      1  0.5639550000000  0.4934430000000  0.4748370000000 1.0
C      1  0.4551600000000  0.5059850000000  0.4618390000000 1.0
C      1  0.4970110000000  0.4926830000000  0.5570320000000 1.0
C      1  0.4805570000000  0.5655250000000  0.5129640000000 1.0
C      1  0.4501260000000  0.4873210000000  0.5249740000000 1.0
C      1  0.4854720000000  0.5436260000000  0.4929790000000 1.0
C      1  0.4434320000000  0.5188480000000  0.4832470000000 1.0
C      1  0.5242710000000  0.5001210000000  0.5492500000000 1.0
C      1  0.5342770000000  0.5340050000000  0.4876890000000 1.0
C      1  0.5026710000000  0.4716020000000  0.5094220000000 1.0
C      1  0.4944580000000  0.5130730000000  0.4337850000000 1.0
C      1  0.5094260000000  0.4426500000000  0.5437680000000 1.0
C      1  0.4931140000000  0.4683650000000  0.5379260000000 1.0
C      1  0.5413340000000  0.4785230000000  0.5434100000000 1.0
C      1  0.5476780000000  0.4732300000000  0.4588250000000 1.0
C      1  0.4828950000000  0.4797620000000  0.5799860000000 1.0
C      1  0.4882360000000  0.4672880000000  0.4520050000000 1.0
C      1  0.4968830000000  0.5637190000000  0.5372930000000 1.0
C      1  0.5325610000000  0.4534770000000  0.5530020000000 1.0
C      1  0.5516890000000  0.5187320000000  0.4682380000000 1.0
C      1  0.4728830000000  0.5240600000000  0.4489400000000 1.0
C      1  0.4631290000000  0.4411470000000  0.4970090000000 1.0
C      1  0.4491090000000  0.4615420000000  0.4806510000000 1.0
C      1  0.5304000000000  0.4589490000000  0.4750620000000 1.0
C      1  0.5151530000000  0.5229270000000  0.5315410000000 1.0
C      1  0.5088870000000  0.5224980000000  0.5004480000000 1.0
C      1  0.4919160000000  0.4437440000000  0.4973000000000 1.0
C      1  0.4373710000000  0.4711920000000  0.5053310000000 1.0
C      1  0.5308270000000  0.4662600000000  0.5023810000000 1.0
C      1  0.4627560000000  0.4647520000000  0.5405950000000 1.0
END
