TITL C-93384-4992-3 57.5689447043119 125000 -191.375999272842 0 0 30 (C1) n - 1
REM
REM in /rds/project/t2_vol4/rds-t2-cs072/BORA/CARBON/from-Arr/AIRSS/Generating-Clusters/GAP-ML-2020/Only-C1/SD-CG/HFTN-CG
REM
REM
REM
REM
REM
REM ./C.cell (11c1c37f851c82e70ff6c80c92926a4b)
REM AIRSS Version 0.9.1 bugfix July 2018 build 013d7b7c2542+ Fri, 06 Jul 2018 19:26:36 +0100
REM compiler GCC version 9.3.0
REM options -cpp -mtune=generic -march=x86-64 -g -O0
REM seed -261931362 -1646889855 -954778737 -40176271 40926059 -2104453800 1102541614 -731251495 1502036690 1876979552 -2007082532 -537359413 236607366 1440277321 994815820 2081906815 -932105196 1079994414 1838907944 -1634917489 -1979302190 219330897 1646024700 -898254202 1878030319 -39476538 -1586835078 -1921571581 -565019668 -1337907441 -1586452117 -1655049732 -302973167
REM
CELL 1.54180   50.00000   50.00000   50.00000   90.00000   90.00000   90.00000
LATT -1
SFAC C  
C      1  0.5133720000000  0.4779790000000  0.4662450000000 1.0
C      1  0.4510390000000  0.4984030000000  0.4827900000000 1.0
C      1  0.5330130000000  0.4539300000000  0.5309580000000 1.0
C      1  0.5317060000000  0.4680660000000  0.5060920000000 1.0
C      1  0.4453530000000  0.4948450000000  0.4554600000000 1.0
C      1  0.5419250000000  0.5169220000000  0.4741450000000 1.0
C      1  0.4697070000000  0.5380940000000  0.5096610000000 1.0
C      1  0.4813760000000  0.4533920000000  0.5372240000000 1.0
C      1  0.5191390000000  0.4949000000000  0.5100420000000 1.0
C      1  0.5372660000000  0.5171850000000  0.5020170000000 1.0
C      1  0.5523290000000  0.4698790000000  0.5481700000000 1.0
C      1  0.4713320000000  0.5342030000000  0.4625040000000 1.0
C      1  0.4900720000000  0.5105560000000  0.5524310000000 1.0
C      1  0.5426690000000  0.4932920000000  0.5514790000000 1.0
C      1  0.4929190000000  0.5087620000000  0.4387540000000 1.0
C      1  0.4580130000000  0.5273770000000  0.4863640000000 1.0
C      1  0.4986590000000  0.4954710000000  0.4863690000000 1.0
C      1  0.5135000000000  0.4935880000000  0.5399930000000 1.0
C      1  0.5076230000000  0.4622150000000  0.5420810000000 1.0
C      1  0.5214450000000  0.5360910000000  0.4703890000000 1.0
C      1  0.4648330000000  0.5106350000000  0.4445910000000 1.0
C      1  0.4759540000000  0.4996400000000  0.5722400000000 1.0
C      1  0.4975760000000  0.5422890000000  0.5123650000000 1.0
C      1  0.5301270000000  0.4612620000000  0.4801060000000 1.0
C      1  0.4833430000000  0.5310670000000  0.5330420000000 1.0
C      1  0.4717950000000  0.4823130000000  0.4945650000000 1.0
C      1  0.5085870000000  0.4870490000000  0.4413170000000 1.0
C      1  0.5209220000000  0.5410110000000  0.4987060000000 1.0
C      1  0.4990670000000  0.5333830000000  0.4544520000000 1.0
C      1  0.4753390000000  0.4662010000000  0.5154460000000 1.0
END
