TITL C-93388-4952-5 80.4541360754345 125000 -1112.31063696861 0 0 158 (C1) n - 1
REM
REM in /rds/project/t2_vol4/rds-t2-cs072/BORA/CARBON/from-Arr/AIRSS/Generating-Clusters/GAP-ML-2020/Only-C1/SD-CG/HFTN-CG
REM
REM
REM
REM
REM
REM ./C.cell (11c1c37f851c82e70ff6c80c92926a4b)
REM AIRSS Version 0.9.1 bugfix July 2018 build 013d7b7c2542+ Fri, 06 Jul 2018 19:26:36 +0100
REM compiler GCC version 9.3.0
REM options -cpp -mtune=generic -march=x86-64 -g -O0
REM seed 1991252057 -301378122 -1774509565 1404926248 1135617915 1365554495 255102896 1681263984 -67149431 1375291802 943577126 2130399241 -253781933 -932474339 573071764 -1669522940 -1529078414 2035344171 -379845849 -1057887629 -566606660 1318267072 -1093204325 304618947 1713392254 -1378320437 -1572694437 278866916 1348674201 1568213781 -1579266969 -1932723311 1667372600
REM
CELL 1.54180   50.00000   50.00000   50.00000   90.00000   90.00000   90.00000
LATT -1
SFAC C  
C      1  0.4619390000000  0.4330290000000  0.4246990000000 1.0
C      1  0.5012940000000  0.5706170000000  0.4623710000000 1.0
C      1  0.5843810000000  0.4496480000000  0.4912680000000 1.0
C      1  0.4550180000000  0.5236240000000  0.5776220000000 1.0
C      1  0.4377400000000  0.4396050000000  0.5484150000000 1.0
C      1  0.5556530000000  0.5334790000000  0.5663390000000 1.0
C      1  0.4734410000000  0.5323470000000  0.5255150000000 1.0
C      1  0.5746050000000  0.5167090000000  0.4358190000000 1.0
C      1  0.4278800000000  0.5291060000000  0.5659620000000 1.0
C      1  0.5175100000000  0.5185470000000  0.5957950000000 1.0
C      1  0.5855980000000  0.4931220000000  0.5513960000000 1.0
C      1  0.4691340000000  0.5472070000000  0.4106810000000 1.0
C      1  0.5060820000000  0.4073510000000  0.5462320000000 1.0
C      1  0.5095740000000  0.5701240000000  0.5913730000000 1.0
C      1  0.4165420000000  0.4459400000000  0.5277540000000 1.0
C      1  0.4161160000000  0.5030420000000  0.5634750000000 1.0
C      1  0.5340070000000  0.4852660000000  0.5688650000000 1.0
C      1  0.4477360000000  0.5351470000000  0.4280910000000 1.0
C      1  0.4105500000000  0.5177930000000  0.4689460000000 1.0
C      1  0.4882100000000  0.5846860000000  0.5780140000000 1.0
C      1  0.4824870000000  0.4378960000000  0.5090830000000 1.0
C      1  0.3997270000000  0.5068880000000  0.4923410000000 1.0
C      1  0.5477780000000  0.4129060000000  0.5035220000000 1.0
C      1  0.4734580000000  0.4830720000000  0.3962260000000 1.0
C      1  0.4269460000000  0.5015020000000  0.4515570000000 1.0
C      1  0.4584060000000  0.4613550000000  0.5433040000000 1.0
C      1  0.4039770000000  0.4723990000000  0.5236810000000 1.0
C      1  0.4372220000000  0.5074190000000  0.4251560000000 1.0
C      1  0.5340260000000  0.5722150000000  0.5390480000000 1.0
C      1  0.5658210000000  0.4481150000000  0.5638060000000 1.0
C      1  0.4702670000000  0.5877750000000  0.5091700000000 1.0
C      1  0.5971470000000  0.4959730000000  0.4778740000000 1.0
C      1  0.5299890000000  0.5262310000000  0.5486340000000 1.0
C      1  0.5465490000000  0.5531370000000  0.4558910000000 1.0
C      1  0.5390420000000  0.5092520000000  0.4654710000000 1.0
C      1  0.4838020000000  0.4479820000000  0.5375190000000 1.0
C      1  0.5066960000000  0.4917450000000  0.6052970000000 1.0
C      1  0.5389700000000  0.4801560000000  0.4672020000000 1.0
C      1  0.4332420000000  0.4842590000000  0.5796640000000 1.0
C      1  0.4935370000000  0.5185910000000  0.4400140000000 1.0
C      1  0.5010360000000  0.4725620000000  0.5413820000000 1.0
C      1  0.4811500000000  0.4327000000000  0.4043490000000 1.0
C      1  0.4911380000000  0.4076360000000  0.4712160000000 1.0
C      1  0.5186250000000  0.5503200000000  0.4697440000000 1.0
C      1  0.5035470000000  0.4166030000000  0.4111270000000 1.0
C      1  0.5403250000000  0.4342400000000  0.5709850000000 1.0
C      1  0.5429500000000  0.5639390000000  0.5110860000000 1.0
C      1  0.4669700000000  0.4216940000000  0.4530770000000 1.0
C      1  0.4286110000000  0.4483890000000  0.4539870000000 1.0
C      1  0.5534450000000  0.4194330000000  0.5289990000000 1.0
C      1  0.5171080000000  0.4193450000000  0.4623060000000 1.0
C      1  0.4220440000000  0.4605150000000  0.4818820000000 1.0
C      1  0.5631430000000  0.4945790000000  0.4198890000000 1.0
C      1  0.4889770000000  0.4591090000000  0.3952130000000 1.0
C      1  0.4720200000000  0.5670670000000  0.4623120000000 1.0
C      1  0.4958610000000  0.5090270000000  0.4834670000000 1.0
C      1  0.4470380000000  0.4596890000000  0.5715940000000 1.0
C      1  0.4904300000000  0.4886120000000  0.5196480000000 1.0
C      1  0.4800810000000  0.4850930000000  0.5926870000000 1.0
C      1  0.5172630000000  0.5875240000000  0.4409990000000 1.0
C      1  0.4535440000000  0.4985190000000  0.5922180000000 1.0
C      1  0.4719730000000  0.4578350000000  0.5885480000000 1.0
C      1  0.5259840000000  0.4726480000000  0.5957320000000 1.0
C      1  0.4861440000000  0.4252750000000  0.5590250000000 1.0
C      1  0.5957980000000  0.4823350000000  0.5263240000000 1.0
C      1  0.5111810000000  0.5915170000000  0.5349550000000 1.0
C      1  0.4928950000000  0.5294240000000  0.4079320000000 1.0
C      1  0.4483950000000  0.4757550000000  0.4889350000000 1.0
C      1  0.4889650000000  0.5946690000000  0.5518310000000 1.0
C      1  0.5427210000000  0.4181580000000  0.4776530000000 1.0
C      1  0.4877680000000  0.4112070000000  0.4996030000000 1.0
C      1  0.5278840000000  0.4734520000000  0.4936540000000 1.0
C      1  0.4880990000000  0.3951950000000  0.5242940000000 1.0
C      1  0.5581910000000  0.5295930000000  0.4761640000000 1.0
C      1  0.4695160000000  0.5121250000000  0.5491940000000 1.0
C      1  0.5968280000000  0.5424030000000  0.4811970000000 1.0
C      1  0.4495100000000  0.4835090000000  0.4138960000000 1.0
C      1  0.5191820000000  0.4299740000000  0.4297410000000 1.0
C      1  0.4567830000000  0.4160510000000  0.5513820000000 1.0
C      1  0.5854790000000  0.5684270000000  0.4827220000000 1.0
C      1  0.4610690000000  0.4894840000000  0.5307690000000 1.0
C      1  0.4929360000000  0.4391900000000  0.5841390000000 1.0
C      1  0.4791960000000  0.4485980000000  0.4612520000000 1.0
C      1  0.5132180000000  0.5217000000000  0.4627170000000 1.0
C      1  0.5147750000000  0.5628530000000  0.4980430000000 1.0
C      1  0.4980780000000  0.4790140000000  0.4923200000000 1.0
C      1  0.5734530000000  0.4387150000000  0.5379270000000 1.0
C      1  0.4526820000000  0.4924420000000  0.4653500000000 1.0
C      1  0.5413520000000  0.5344940000000  0.4086720000000 1.0
C      1  0.5044850000000  0.5160300000000  0.5118610000000 1.0
C      1  0.4174730000000  0.5445960000000  0.5212130000000 1.0
C      1  0.4716030000000  0.5441280000000  0.5896360000000 1.0
C      1  0.4935180000000  0.5043390000000  0.3923490000000 1.0
C      1  0.4178740000000  0.4366250000000  0.4997990000000 1.0
C      1  0.5068910000000  0.4452090000000  0.4530390000000 1.0
C      1  0.4632230000000  0.3936550000000  0.5373290000000 1.0
C      1  0.5800930000000  0.5333170000000  0.5245280000000 1.0
C      1  0.5859690000000  0.5196090000000  0.4642100000000 1.0
C      1  0.4216310000000  0.5440780000000  0.4697690000000 1.0
C      1  0.4997120000000  0.5433890000000  0.5980940000000 1.0
C      1  0.6030170000000  0.5010350000000  0.5052620000000 1.0
C      1  0.4934770000000  0.4884800000000  0.4414850000000 1.0
C      1  0.5201290000000  0.4932720000000  0.3915340000000 1.0
C      1  0.4018590000000  0.4787140000000  0.4959460000000 1.0
C      1  0.5651760000000  0.5800240000000  0.4969670000000 1.0
C      1  0.5538300000000  0.5347660000000  0.5074190000000 1.0
C      1  0.4639550000000  0.5888120000000  0.5374680000000 1.0
C      1  0.5640780000000  0.5849790000000  0.4690270000000 1.0
C      1  0.5363070000000  0.5746230000000  0.5868660000000 1.0
C      1  0.4680940000000  0.5169670000000  0.4759400000000 1.0
C      1  0.5430670000000  0.5066190000000  0.4024530000000 1.0
C      1  0.5780340000000  0.5211340000000  0.5503850000000 1.0
C      1  0.5884770000000  0.4548010000000  0.5193870000000 1.0
C      1  0.4991410000000  0.5436410000000  0.5197900000000 1.0
C      1  0.5332150000000  0.4158640000000  0.5498310000000 1.0
C      1  0.5641150000000  0.4631030000000  0.4565970000000 1.0
C      1  0.5145770000000  0.5500870000000  0.5432360000000 1.0
C      1  0.4448440000000  0.4972550000000  0.5095240000000 1.0
C      1  0.5341420000000  0.5140620000000  0.5201460000000 1.0
C      1  0.4644360000000  0.5688470000000  0.5780100000000 1.0
C      1  0.5453580000000  0.5824800000000  0.4495790000000 1.0
C      1  0.4547730000000  0.5250800000000  0.5017550000000 1.0
C      1  0.5160620000000  0.5086150000000  0.5671830000000 1.0
C      1  0.4948770000000  0.6053700000000  0.4425450000000 1.0
C      1  0.4911800000000  0.4946350000000  0.5617490000000 1.0
C      1  0.6012170000000  0.5292290000000  0.5071860000000 1.0
C      1  0.5297880000000  0.4720150000000  0.5417120000000 1.0
C      1  0.4272130000000  0.5514410000000  0.5474210000000 1.0
C      1  0.5479780000000  0.5181190000000  0.5918550000000 1.0
C      1  0.5640150000000  0.4375240000000  0.4742660000000 1.0
C      1  0.4474540000000  0.5714770000000  0.5543430000000 1.0
C      1  0.5083040000000  0.5720840000000  0.4159780000000 1.0
C      1  0.4236680000000  0.4146660000000  0.4841300000000 1.0
C      1  0.4763490000000  0.4582980000000  0.4893140000000 1.0
C      1  0.5544610000000  0.4898140000000  0.5887870000000 1.0
C      1  0.5393630000000  0.4845130000000  0.5176800000000 1.0
C      1  0.5203420000000  0.4452320000000  0.5887750000000 1.0
C      1  0.4465120000000  0.4580930000000  0.4307960000000 1.0
C      1  0.4025690000000  0.5195290000000  0.5187450000000 1.0
C      1  0.4697150000000  0.5359100000000  0.4528140000000 1.0
C      1  0.4999960000000  0.5884110000000  0.5092780000000 1.0
C      1  0.4561420000000  0.5729630000000  0.4886280000000 1.0
C      1  0.5886340000000  0.4704770000000  0.4719150000000 1.0
C      1  0.4682220000000  0.4738670000000  0.4474240000000 1.0
C      1  0.4311950000000  0.5513630000000  0.4452550000000 1.0
C      1  0.5164240000000  0.5472210000000  0.4066180000000 1.0
C      1  0.4355040000000  0.5504700000000  0.4958380000000 1.0
C      1  0.5322400000000  0.4567080000000  0.4206050000000 1.0
C      1  0.4722810000000  0.5885980000000  0.4385260000000 1.0
C      1  0.5177970000000  0.4716800000000  0.4464640000000 1.0
C      1  0.5593900000000  0.4672000000000  0.4270230000000 1.0
C      1  0.5493320000000  0.5643400000000  0.5657370000000 1.0
C      1  0.5170790000000  0.4659840000000  0.3974920000000 1.0
C      1  0.4382650000000  0.4219900000000  0.4614210000000 1.0
C      1  0.5575100000000  0.5387270000000  0.4311880000000 1.0
C      1  0.5728070000000  0.4758220000000  0.5709880000000 1.0
C      1  0.4790240000000  0.5722790000000  0.4162960000000 1.0
C      1  0.4030600000000  0.4978250000000  0.5383600000000 1.0
END
