TITL C-93408-4928-7 0.0786566430526084 125000 -452.742988934336 0 0 66 (C1) n - 1
REM
REM in /rds/project/t2_vol4/rds-t2-cs072/BORA/CARBON/from-Arr/AIRSS/Generating-Clusters/GAP-ML-2020/Only-C1/SD-CG/HFTN-CG
REM
REM
REM
REM
REM
REM ./C.cell (11c1c37f851c82e70ff6c80c92926a4b)
REM AIRSS Version 0.9.1 bugfix July 2018 build 013d7b7c2542+ Fri, 06 Jul 2018 19:26:36 +0100
REM compiler GCC version 9.3.0
REM options -cpp -mtune=generic -march=x86-64 -g -O0
REM seed 331750749 905410441 -11137421 669218331 -951244425 1084599995 -1172973131 -137367851 476282798 -242571577 1692193623 2128384461 -742458594 547009192 -1823158120 -1126405345 647509220 -572124730 -1660405039 691831517 -1296107232 -1213678074 -1604348796 375720708 2099698445 453997227 2091497024 224655219 533879089 339460973 -2140779526 91943118 -1510184717
REM
CELL 1.54180   50.00000   50.00000   50.00000   90.00000   90.00000   90.00000
LATT -1
SFAC C  
C      1  0.4930290000000  0.4979710000000  0.5196470000000 1.0
C      1  0.5964250000000  0.4607880000000  0.5069470000000 1.0
C      1  0.5794140000000  0.5020070000000  0.4850490000000 1.0
C      1  0.4913030000000  0.5044010000000  0.4265190000000 1.0
C      1  0.4852200000000  0.4814600000000  0.4993600000000 1.0
C      1  0.5108790000000  0.5511750000000  0.5376240000000 1.0
C      1  0.4548440000000  0.4792790000000  0.4419530000000 1.0
C      1  0.4402800000000  0.5498710000000  0.5147820000000 1.0
C      1  0.5248240000000  0.5425060000000  0.4332270000000 1.0
C      1  0.4643200000000  0.5615130000000  0.5265410000000 1.0
C      1  0.4423100000000  0.4597710000000  0.4858620000000 1.0
C      1  0.4825000000000  0.5242430000000  0.5159410000000 1.0
C      1  0.4726390000000  0.4324200000000  0.5053890000000 1.0
C      1  0.5003410000000  0.4765260000000  0.4325140000000 1.0
C      1  0.5259920000000  0.5749300000000  0.4975810000000 1.0
C      1  0.4955510000000  0.5348130000000  0.4924860000000 1.0
C      1  0.4883520000000  0.4735590000000  0.5641560000000 1.0
C      1  0.4415160000000  0.5175500000000  0.5491400000000 1.0
C      1  0.4331950000000  0.5231200000000  0.5230620000000 1.0
C      1  0.5155170000000  0.4439490000000  0.5207770000000 1.0
C      1  0.5542580000000  0.4700560000000  0.5472770000000 1.0
C      1  0.5459310000000  0.4663300000000  0.4914360000000 1.0
C      1  0.5385460000000  0.5554810000000  0.4845650000000 1.0
C      1  0.4681320000000  0.5254110000000  0.5615840000000 1.0
C      1  0.5530810000000  0.5133540000000  0.4928680000000 1.0
C      1  0.4822560000000  0.5423230000000  0.5417690000000 1.0
C      1  0.4350900000000  0.5044660000000  0.4753560000000 1.0
C      1  0.5441120000000  0.4908610000000  0.5106070000000 1.0
C      1  0.5654820000000  0.4924480000000  0.5312280000000 1.0
C      1  0.4825330000000  0.4437620000000  0.4612570000000 1.0
C      1  0.5393490000000  0.4899200000000  0.5644820000000 1.0
C      1  0.5202710000000  0.5032250000000  0.5231360000000 1.0
C      1  0.5432670000000  0.4817910000000  0.4630540000000 1.0
C      1  0.4628850000000  0.4398210000000  0.4818040000000 1.0
C      1  0.4889560000000  0.4923660000000  0.4756680000000 1.0
C      1  0.5464360000000  0.5377830000000  0.5055850000000 1.0
C      1  0.4812360000000  0.5734050000000  0.5076420000000 1.0
C      1  0.4806200000000  0.5584170000000  0.4827730000000 1.0
C      1  0.4489670000000  0.4690690000000  0.5371520000000 1.0
C      1  0.5086250000000  0.5722180000000  0.5181500000000 1.0
C      1  0.5238100000000  0.4470510000000  0.4933920000000 1.0
C      1  0.5321620000000  0.5310060000000  0.5313080000000 1.0
C      1  0.4738920000000  0.4566080000000  0.5450260000000 1.0
C      1  0.4768590000000  0.4614250000000  0.4398670000000 1.0
C      1  0.5105040000000  0.4460940000000  0.4676340000000 1.0
C      1  0.5296230000000  0.4552620000000  0.5425840000000 1.0
C      1  0.5087830000000  0.5255800000000  0.4216760000000 1.0
C      1  0.4503710000000  0.5231760000000  0.4580930000000 1.0
C      1  0.5721470000000  0.4886560000000  0.4618520000000 1.0
C      1  0.5495450000000  0.5126900000000  0.5490090000000 1.0
C      1  0.5722130000000  0.4540540000000  0.4982490000000 1.0
C      1  0.4634260000000  0.5062910000000  0.4375910000000 1.0
C      1  0.5217770000000  0.4661840000000  0.4492260000000 1.0
C      1  0.4721110000000  0.4971150000000  0.5684950000000 1.0
C      1  0.4362840000000  0.5572240000000  0.4887540000000 1.0
C      1  0.5343100000000  0.5113860000000  0.4696010000000 1.0
C      1  0.5166880000000  0.4714670000000  0.5647390000000 1.0
C      1  0.4315030000000  0.5015420000000  0.5040220000000 1.0
C      1  0.4872970000000  0.4395970000000  0.5263630000000 1.0
C      1  0.5876490000000  0.4876310000000  0.5095950000000 1.0
C      1  0.4558520000000  0.5492610000000  0.4705310000000 1.0
C      1  0.4383930000000  0.4741260000000  0.5108790000000 1.0
C      1  0.5061760000000  0.5141720000000  0.4765360000000 1.0
C      1  0.4384940000000  0.4780440000000  0.4649000000000 1.0
C      1  0.5349490000000  0.5393840000000  0.4588800000000 1.0
C      1  0.4466970000000  0.4906120000000  0.5552450000000 1.0
END
