TITL C-93386-4964-10 0.0221504699463786 125000 -592.914618496814 0 0 84 (C1) n - 1
REM
REM in /rds/project/t2_vol4/rds-t2-cs072/BORA/CARBON/from-Arr/AIRSS/Generating-Clusters/GAP-ML-2020/Only-C1/SD-CG/HFTN-CG
REM
REM
REM
REM
REM
REM ./C.cell (11c1c37f851c82e70ff6c80c92926a4b)
REM AIRSS Version 0.9.1 bugfix July 2018 build 013d7b7c2542+ Fri, 06 Jul 2018 19:26:36 +0100
REM compiler GCC version 9.3.0
REM options -cpp -mtune=generic -march=x86-64 -g -O0
REM seed 923738611 91652864 1478588456 -1868231765 856267431 464673385 437420676 -1368602573 541966071 -787903294 1535632478 -315593000 -2059736264 306863352 879506539 -336126067 90560190 1656988982 -1498306591 -1916454283 720523866 -488405155 -1257835777 621214500 -636039422 -1168660662 771072590 -1882662796 659256399 412229991 1626077709 -1221057693 1540005371
REM
CELL 1.54180   50.00000   50.00000   50.00000   90.00000   90.00000   90.00000
LATT -1
SFAC C  
C      1  0.4251660000000  0.5328670000000  0.4879440000000 1.0
C      1  0.4824590000000  0.4929890000000  0.4768480000000 1.0
C      1  0.5432680000000  0.5680930000000  0.5211870000000 1.0
C      1  0.4900590000000  0.5325140000000  0.5000830000000 1.0
C      1  0.4273900000000  0.4805950000000  0.4767080000000 1.0
C      1  0.4352970000000  0.5158900000000  0.4443330000000 1.0
C      1  0.5694090000000  0.5300430000000  0.5312320000000 1.0
C      1  0.5548080000000  0.4554120000000  0.4735400000000 1.0
C      1  0.5408800000000  0.4331510000000  0.4865940000000 1.0
C      1  0.4728260000000  0.4311950000000  0.4765820000000 1.0
C      1  0.5780510000000  0.5347390000000  0.5031040000000 1.0
C      1  0.4347250000000  0.4649080000000  0.4558120000000 1.0
C      1  0.4396070000000  0.4708460000000  0.5316980000000 1.0
C      1  0.4641420000000  0.4932020000000  0.4981410000000 1.0
C      1  0.5190910000000  0.4290040000000  0.5322030000000 1.0
C      1  0.4773050000000  0.5773110000000  0.4901810000000 1.0
C      1  0.4549950000000  0.5364060000000  0.4373000000000 1.0
C      1  0.4975330000000  0.4583720000000  0.5707540000000 1.0
C      1  0.4657690000000  0.5582010000000  0.5438170000000 1.0
C      1  0.5632850000000  0.5439210000000  0.4791260000000 1.0
C      1  0.5604960000000  0.4560820000000  0.5219000000000 1.0
C      1  0.4941290000000  0.4225710000000  0.5184470000000 1.0
C      1  0.5015890000000  0.4783290000000  0.4269660000000 1.0
C      1  0.5421970000000  0.4347800000000  0.5157270000000 1.0
C      1  0.5017590000000  0.5656790000000  0.4475700000000 1.0
C      1  0.4831110000000  0.4387400000000  0.4505140000000 1.0
C      1  0.5467080000000  0.4735340000000  0.4509190000000 1.0
C      1  0.4242080000000  0.5098250000000  0.4698780000000 1.0
C      1  0.4916010000000  0.5683600000000  0.5352300000000 1.0
C      1  0.5012990000000  0.4960990000000  0.5258660000000 1.0
C      1  0.4792420000000  0.5715080000000  0.4615610000000 1.0
C      1  0.4384290000000  0.5560870000000  0.4780120000000 1.0
C      1  0.5852370000000  0.5115700000000  0.4851420000000 1.0
C      1  0.5667080000000  0.5040020000000  0.5479460000000 1.0
C      1  0.5045630000000  0.4725850000000  0.5110550000000 1.0
C      1  0.5260690000000  0.4358110000000  0.4278790000000 1.0
C      1  0.5185430000000  0.4210850000000  0.4750000000000 1.0
C      1  0.4381260000000  0.4945910000000  0.5485510000000 1.0
C      1  0.4788640000000  0.5111570000000  0.5157520000000 1.0
C      1  0.4707990000000  0.4656970000000  0.5654860000000 1.0
C      1  0.5048510000000  0.5553140000000  0.5572910000000 1.0
C      1  0.5386920000000  0.5566520000000  0.4748710000000 1.0
C      1  0.5070150000000  0.4781590000000  0.4845060000000 1.0
C      1  0.5689140000000  0.4656040000000  0.4960860000000 1.0
C      1  0.5311120000000  0.5463160000000  0.5607540000000 1.0
C      1  0.5245580000000  0.5028480000000  0.4798840000000 1.0
C      1  0.4982150000000  0.5182470000000  0.4776510000000 1.0
C      1  0.4796330000000  0.5415340000000  0.5642990000000 1.0
C      1  0.5250320000000  0.5216890000000  0.4370550000000 1.0
C      1  0.5585690000000  0.4745070000000  0.5446000000000 1.0
C      1  0.4731170000000  0.5166280000000  0.4243860000000 1.0
C      1  0.4567260000000  0.4429440000000  0.4977060000000 1.0
C      1  0.4782710000000  0.4611630000000  0.4337950000000 1.0
C      1  0.4610540000000  0.4929310000000  0.5676800000000 1.0
C      1  0.5398310000000  0.5076300000000  0.5030210000000 1.0
C      1  0.5511060000000  0.5506860000000  0.5403660000000 1.0
C      1  0.5441810000000  0.5037980000000  0.4539310000000 1.0
C      1  0.5677800000000  0.5195160000000  0.4639970000000 1.0
C      1  0.4434820000000  0.4705750000000  0.5013150000000 1.0
C      1  0.4511940000000  0.4980660000000  0.4282090000000 1.0
C      1  0.5720350000000  0.4923680000000  0.4982870000000 1.0
C      1  0.5272710000000  0.5679730000000  0.4995080000000 1.0
C      1  0.4684290000000  0.4354290000000  0.5228420000000 1.0
C      1  0.5159950000000  0.4795710000000  0.5780410000000 1.0
C      1  0.4798940000000  0.5145570000000  0.5749150000000 1.0
C      1  0.5315040000000  0.5225060000000  0.5761820000000 1.0
C      1  0.4547040000000  0.5583340000000  0.4544920000000 1.0
C      1  0.4513620000000  0.5699690000000  0.4992470000000 1.0
C      1  0.5185840000000  0.4449530000000  0.5555230000000 1.0
C      1  0.5376830000000  0.4664020000000  0.5621390000000 1.0
C      1  0.4275920000000  0.5347290000000  0.5177880000000 1.0
C      1  0.5238850000000  0.5497710000000  0.4497600000000 1.0
C      1  0.5552160000000  0.5100190000000  0.5718730000000 1.0
C      1  0.4453840000000  0.5576560000000  0.5240600000000 1.0
C      1  0.5241730000000  0.5117120000000  0.5248410000000 1.0
C      1  0.5075690000000  0.5064470000000  0.5808190000000 1.0
C      1  0.4249600000000  0.5160250000000  0.5376630000000 1.0
C      1  0.5105330000000  0.4307470000000  0.4493040000000 1.0
C      1  0.4518900000000  0.4713530000000  0.4348950000000 1.0
C      1  0.5262740000000  0.4633180000000  0.4334000000000 1.0
C      1  0.4574030000000  0.4524430000000  0.5432460000000 1.0
C      1  0.4982210000000  0.5647250000000  0.5067390000000 1.0
C      1  0.4951180000000  0.4187550000000  0.4904930000000 1.0
C      1  0.5012500000000  0.5076760000000  0.4259510000000 1.0
END
