TITL C-93399-4918-9 136.620132233225 125000 -624.652184348863 0 0 88 (C1) n - 1
REM
REM in /rds/project/t2_vol4/rds-t2-cs072/BORA/CARBON/from-Arr/AIRSS/Generating-Clusters/GAP-ML-2020/Only-C1/SD-CG/HFTN-CG
REM
REM
REM
REM
REM
REM ./C.cell (11c1c37f851c82e70ff6c80c92926a4b)
REM AIRSS Version 0.9.1 bugfix July 2018 build 013d7b7c2542+ Fri, 06 Jul 2018 19:26:36 +0100
REM compiler GCC version 9.3.0
REM options -cpp -mtune=generic -march=x86-64 -g -O0
REM seed -1298880202 1833229112 872734982 -1579694450 -882496657 -329754837 1198874669 -564260730 -504499939 -1071030648 1909656617 745326854 1443817868 1478042014 1579083217 -1209115640 814131705 916001655 -2042837106 1177898673 -1831473303 -1394435702 671855175 -1566105321 1564132141 -278470343 -1191212780 1341532520 -2046748931 -2070786532 -1826138423 -1594368130 -864650542
REM
CELL 1.54180   50.00000   50.00000   50.00000   90.00000   90.00000   90.00000
LATT -1
SFAC C  
C      1  0.4495000000000  0.4808210000000  0.4967340000000 1.0
C      1  0.4877950000000  0.5144430000000  0.4669370000000 1.0
C      1  0.5193490000000  0.5452000000000  0.4329340000000 1.0
C      1  0.4971420000000  0.4776960000000  0.4917750000000 1.0
C      1  0.5240480000000  0.4901000000000  0.4927970000000 1.0
C      1  0.4796600000000  0.4296150000000  0.5497360000000 1.0
C      1  0.5333650000000  0.4879330000000  0.5648830000000 1.0
C      1  0.4336630000000  0.5440740000000  0.4888470000000 1.0
C      1  0.5758870000000  0.5212810000000  0.5118880000000 1.0
C      1  0.5418870000000  0.4582320000000  0.4411590000000 1.0
C      1  0.5431820000000  0.5301120000000  0.4330440000000 1.0
C      1  0.4659990000000  0.5806840000000  0.4977460000000 1.0
C      1  0.5675330000000  0.5035300000000  0.5332870000000 1.0
C      1  0.4794570000000  0.5165260000000  0.5128240000000 1.0
C      1  0.4694090000000  0.5445040000000  0.4338040000000 1.0
C      1  0.5693660000000  0.4948790000000  0.4444860000000 1.0
C      1  0.4698610000000  0.5490560000000  0.5573470000000 1.0
C      1  0.4523220000000  0.5637840000000  0.4787120000000 1.0
C      1  0.4325680000000  0.4763520000000  0.5576680000000 1.0
C      1  0.4431200000000  0.4792470000000  0.4477140000000 1.0
C      1  0.4841260000000  0.4263600000000  0.4768970000000 1.0
C      1  0.5408780000000  0.4611240000000  0.5557370000000 1.0
C      1  0.5410230000000  0.4354600000000  0.5116280000000 1.0
C      1  0.5210940000000  0.4431080000000  0.5644480000000 1.0
C      1  0.4373150000000  0.5063570000000  0.4504350000000 1.0
C      1  0.5465980000000  0.5023460000000  0.4286670000000 1.0
C      1  0.4604140000000  0.4581790000000  0.4486230000000 1.0
C      1  0.4445590000000  0.4376750000000  0.5175990000000 1.0
C      1  0.5158980000000  0.4222540000000  0.5194630000000 1.0
C      1  0.4682530000000  0.4232500000000  0.5239580000000 1.0
C      1  0.5290970000000  0.5098480000000  0.4751920000000 1.0
C      1  0.4879250000000  0.5658460000000  0.5420080000000 1.0
C      1  0.4586940000000  0.4390040000000  0.4711700000000 1.0
C      1  0.5767210000000  0.5156150000000  0.4624070000000 1.0
C      1  0.4951570000000  0.5338850000000  0.4253040000000 1.0
C      1  0.5497270000000  0.5635340000000  0.4974870000000 1.0
C      1  0.5012860000000  0.4579340000000  0.5783070000000 1.0
C      1  0.4312500000000  0.5405800000000  0.5182710000000 1.0
C      1  0.4872510000000  0.5064150000000  0.4349360000000 1.0
C      1  0.4482040000000  0.5550580000000  0.5368610000000 1.0
C      1  0.5019740000000  0.4367450000000  0.4567390000000 1.0
C      1  0.5064390000000  0.4857280000000  0.5775280000000 1.0
C      1  0.4265020000000  0.4995690000000  0.4973650000000 1.0
C      1  0.4748460000000  0.4513960000000  0.5694870000000 1.0
C      1  0.4657560000000  0.5744490000000  0.5247130000000 1.0
C      1  0.4583760000000  0.4758330000000  0.5726510000000 1.0
C      1  0.5411020000000  0.5099690000000  0.5464510000000 1.0
C      1  0.5464300000000  0.5592990000000  0.4690640000000 1.0
C      1  0.5481090000000  0.4402810000000  0.4840610000000 1.0
C      1  0.5704930000000  0.4765700000000  0.5229180000000 1.0
C      1  0.5053350000000  0.5297060000000  0.5097170000000 1.0
C      1  0.5022870000000  0.4846960000000  0.5304530000000 1.0
C      1  0.4447050000000  0.4498940000000  0.4920280000000 1.0
C      1  0.4878290000000  0.4564260000000  0.4398190000000 1.0
C      1  0.4385520000000  0.4598750000000  0.5349260000000 1.0
C      1  0.4945900000000  0.5753870000000  0.4619910000000 1.0
C      1  0.5133140000000  0.5534720000000  0.5306310000000 1.0
C      1  0.4911440000000  0.5892520000000  0.4868010000000 1.0
C      1  0.4226940000000  0.5127920000000  0.5230790000000 1.0
C      1  0.5180240000000  0.5579420000000  0.4593380000000 1.0
C      1  0.5283480000000  0.4797320000000  0.4275430000000 1.0
C      1  0.4202520000000  0.4979640000000  0.5461340000000 1.0
C      1  0.5602200000000  0.5385540000000  0.4549470000000 1.0
C      1  0.4276000000000  0.5186730000000  0.4760910000000 1.0
C      1  0.4998070000000  0.4799450000000  0.4284650000000 1.0
C      1  0.5666850000000  0.4680700000000  0.4518640000000 1.0
C      1  0.4582190000000  0.5175850000000  0.4345960000000 1.0
C      1  0.4899530000000  0.4194410000000  0.5046540000000 1.0
C      1  0.4766630000000  0.4984920000000  0.5360250000000 1.0
C      1  0.4811730000000  0.5281910000000  0.5736440000000 1.0
C      1  0.5124160000000  0.5938540000000  0.5029520000000 1.0
C      1  0.5833730000000  0.5057430000000  0.4885360000000 1.0
C      1  0.5700130000000  0.4583120000000  0.4781830000000 1.0
C      1  0.5267970000000  0.5363470000000  0.5533790000000 1.0
C      1  0.5214050000000  0.5041900000000  0.5193460000000 1.0
C      1  0.4767360000000  0.4982920000000  0.4883760000000 1.0
C      1  0.5802400000000  0.4779480000000  0.4961270000000 1.0
C      1  0.5274550000000  0.5741970000000  0.5133560000000 1.0
C      1  0.5081750000000  0.4257360000000  0.5467340000000 1.0
C      1  0.5304460000000  0.4401050000000  0.4598360000000 1.0
C      1  0.5094390000000  0.5308830000000  0.4786590000000 1.0
C      1  0.4606460000000  0.4753060000000  0.5234820000000 1.0
C      1  0.4693920000000  0.5632880000000  0.4550480000000 1.0
C      1  0.5654360000000  0.5458750000000  0.5100470000000 1.0
C      1  0.5086710000000  0.5333430000000  0.5728960000000 1.0
C      1  0.4785940000000  0.4987970000000  0.5687220000000 1.0
C      1  0.5535980000000  0.4550660000000  0.5310850000000 1.0
C      1  0.4891600000000  0.4648930000000  0.5157920000000 1.0
END
