TITL C-93024-4664-1 129.979157232815 125000 -379.665275968491 0 0 56 (C1) n - 1
REM
REM in /rds/project/t2_vol4/rds-t2-cs072/BORA/CARBON/from-Arr/AIRSS/Generating-Clusters/GAP-ML-2020/Only-C1/SD-CG/HFTN-CG
REM
REM
REM
REM
REM
REM ./C.cell (11c1c37f851c82e70ff6c80c92926a4b)
REM AIRSS Version 0.9.1 bugfix July 2018 build 013d7b7c2542+ Fri, 06 Jul 2018 19:26:36 +0100
REM compiler GCC version 9.3.0
REM options -cpp -mtune=generic -march=x86-64 -g -O0
REM seed 1285173281 -2020107316 -419802454 562201810 314212935 -1423234397 2088858842 -411027593 -1767870653 1115630627 1104685788 367515433 191034492 -377948211 -98736275 -1685020870 -1335415293 688211275 -729318170 -1735344852 1361269940 -743904581 -1556032396 -443888254 -208330095 -1189629874 -1391589926 642084078 156749207 -1475555753 -2086074257 1831245448 1692665626
REM
CELL 1.54180   50.00000   50.00000   50.00000   90.00000   90.00000   90.00000
LATT -1
SFAC C  
C      1  0.5259640000000  0.4453210000000  0.4756430000000 1.0
C      1  0.5108830000000  0.4349200000000  0.4962140000000 1.0
C      1  0.4780390000000  0.5279670000000  0.5140980000000 1.0
C      1  0.5560430000000  0.4656920000000  0.5078450000000 1.0
C      1  0.5627760000000  0.4959730000000  0.5406630000000 1.0
C      1  0.5584290000000  0.5166020000000  0.4478600000000 1.0
C      1  0.4891840000000  0.4716960000000  0.4548030000000 1.0
C      1  0.5415350000000  0.4794050000000  0.5491690000000 1.0
C      1  0.4979440000000  0.5092080000000  0.5613020000000 1.0
C      1  0.4969990000000  0.5664550000000  0.4934150000000 1.0
C      1  0.5193070000000  0.5500630000000  0.4957410000000 1.0
C      1  0.5515220000000  0.4562550000000  0.4819560000000 1.0
C      1  0.4608490000000  0.5614420000000  0.4618110000000 1.0
C      1  0.5161580000000  0.4942150000000  0.5420380000000 1.0
C      1  0.5110040000000  0.4985820000000  0.4941530000000 1.0
C      1  0.5411670000000  0.4558830000000  0.5297070000000 1.0
C      1  0.4887430000000  0.5565200000000  0.5449430000000 1.0
C      1  0.4817260000000  0.4366030000000  0.4929260000000 1.0
C      1  0.5593820000000  0.4726500000000  0.4602380000000 1.0
C      1  0.4780440000000  0.4846600000000  0.5724220000000 1.0
C      1  0.4508290000000  0.5150150000000  0.5031630000000 1.0
C      1  0.5087550000000  0.5177940000000  0.4419100000000 1.0
C      1  0.5695950000000  0.5121070000000  0.4884720000000 1.0
C      1  0.4388370000000  0.4990820000000  0.5235850000000 1.0
C      1  0.5178160000000  0.4400730000000  0.5244870000000 1.0
C      1  0.5361900000000  0.4771510000000  0.4438570000000 1.0
C      1  0.4616770000000  0.5134640000000  0.4550140000000 1.0
C      1  0.4463260000000  0.5749410000000  0.4832830000000 1.0
C      1  0.5572250000000  0.5338470000000  0.4707030000000 1.0
C      1  0.4921010000000  0.4794960000000  0.5017150000000 1.0
C      1  0.5730930000000  0.4964800000000  0.4640560000000 1.0
C      1  0.4899320000000  0.5616190000000  0.4662460000000 1.0
C      1  0.4426820000000  0.4729740000000  0.5134760000000 1.0
C      1  0.5103000000000  0.5447150000000  0.4532480000000 1.0
C      1  0.5569270000000  0.4992410000000  0.5119770000000 1.0
C      1  0.4494580000000  0.5066700000000  0.5487520000000 1.0
C      1  0.4524960000000  0.4942760000000  0.5734310000000 1.0
C      1  0.4494620000000  0.4742690000000  0.4855960000000 1.0
C      1  0.4784930000000  0.4641960000000  0.5494760000000 1.0
C      1  0.4537070000000  0.5393270000000  0.4475580000000 1.0
C      1  0.4861030000000  0.4997010000000  0.4471300000000 1.0
C      1  0.4755480000000  0.4627230000000  0.4798230000000 1.0
C      1  0.4773950000000  0.5587350000000  0.5168690000000 1.0
C      1  0.5064880000000  0.5250100000000  0.5045350000000 1.0
C      1  0.4934590000000  0.4398840000000  0.5393270000000 1.0
C      1  0.5339100000000  0.5049900000000  0.4388960000000 1.0
C      1  0.4953540000000  0.5375050000000  0.5611180000000 1.0
C      1  0.5268240000000  0.5061460000000  0.5170110000000 1.0
C      1  0.5150810000000  0.4612110000000  0.4538550000000 1.0
C      1  0.4553370000000  0.4552640000000  0.5307460000000 1.0
C      1  0.4487590000000  0.5020840000000  0.4781040000000 1.0
C      1  0.4523200000000  0.5722250000000  0.5076740000000 1.0
C      1  0.4725510000000  0.4358110000000  0.5193740000000 1.0
C      1  0.5340910000000  0.5487310000000  0.4716250000000 1.0
C      1  0.4761770000000  0.5098880000000  0.5373900000000 1.0
C      1  0.4890020000000  0.4832440000000  0.5295740000000 1.0
END
