TITL C-93409-5002-8 -0.0175077481271855 125000 -122.053525624917 0 0 19 (C1) n - 1
REM
REM in /rds/project/t2_vol4/rds-t2-cs072/BORA/CARBON/from-Arr/AIRSS/Generating-Clusters/GAP-ML-2020/Only-C1/SD-CG/HFTN-CG
REM
REM
REM
REM
REM
REM ./C.cell (11c1c37f851c82e70ff6c80c92926a4b)
REM AIRSS Version 0.9.1 bugfix July 2018 build 013d7b7c2542+ Fri, 06 Jul 2018 19:26:36 +0100
REM compiler GCC version 9.3.0
REM options -cpp -mtune=generic -march=x86-64 -g -O0
REM seed -70142721 -356303362 -1495597928 -518045366 -1368465595 -1588020055 -1031780812 1599066737 668981999 751559502 1293470606 -731540344 -1712935804 233906120 432318498 1408977407 -861600440 -500529543 1483952171 1761555678 192936842 686470193 -1100748850 366434996 1688089252 1363518673 1628480280 586047026 1332346403 -379747988 -929822865 613943166 -910974798
REM
CELL 1.54180   50.00000   50.00000   50.00000   90.00000   90.00000   90.00000
LATT -1
SFAC C  
C      1  0.5297570000000  0.5016310000000  0.5473810000000 1.0
C      1  0.4777530000000  0.5140450000000  0.5484770000000 1.0
C      1  0.5160330000000  0.5354820000000  0.4520490000000 1.0
C      1  0.5018450000000  0.5135400000000  0.5575870000000 1.0
C      1  0.4580530000000  0.4791830000000  0.4721670000000 1.0
C      1  0.4650770000000  0.4562700000000  0.4645380000000 1.0
C      1  0.5155670000000  0.4691950000000  0.4712640000000 1.0
C      1  0.5217150000000  0.4605390000000  0.5211680000000 1.0
C      1  0.4519250000000  0.5094770000000  0.5089730000000 1.0
C      1  0.5351380000000  0.4860710000000  0.5248990000000 1.0
C      1  0.5456100000000  0.4950940000000  0.5005370000000 1.0
C      1  0.4567080000000  0.5054010000000  0.4821050000000 1.0
C      1  0.5138960000000  0.4605300000000  0.4961240000000 1.0
C      1  0.4701980000000  0.5254410000000  0.4672680000000 1.0
C      1  0.4559260000000  0.5135890000000  0.5338880000000 1.0
C      1  0.5349090000000  0.4950290000000  0.4754630000000 1.0
C      1  0.4894790000000  0.5367010000000  0.4561070000000 1.0
C      1  0.5326360000000  0.5180780000000  0.4599690000000 1.0
C      1  0.5277740000000  0.5247040000000  0.5600370000000 1.0
END
