TITL C-93413-5007-8 -183.569169193223 125000 -683.47125199466 0 0 97 (C1) n - 1
REM
REM in /rds/project/t2_vol4/rds-t2-cs072/BORA/CARBON/from-Arr/AIRSS/Generating-Clusters/GAP-ML-2020/Only-C1/SD-CG/HFTN-CG
REM
REM
REM
REM
REM
REM ./C.cell (11c1c37f851c82e70ff6c80c92926a4b)
REM AIRSS Version 0.9.1 bugfix July 2018 build 013d7b7c2542+ Fri, 06 Jul 2018 19:26:36 +0100
REM compiler GCC version 9.3.0
REM options -cpp -mtune=generic -march=x86-64 -g -O0
REM seed -1956808641 682985074 -1685051353 -2078707388 1631983372 1260906835 -1232469294 -472090773 -1318931882 1874159999 474650699 -811923438 -1972297848 -1161547092 162006364 -2000678544 -127308715 702188249 2013272213 1725819316 -1526774710 1883993027 265507777 1716474128 149121778 -2143756024 1618979253 1633970635 2080855552 -1189732383 -1009286788 195021192 -163897963
REM
CELL 1.54180   50.00000   50.00000   50.00000   90.00000   90.00000   90.00000
LATT -1
SFAC C  
C      1  0.4394350000000  0.5585600000000  0.5032040000000 1.0
C      1  0.4941150000000  0.5397430000000  0.5218810000000 1.0
C      1  0.5438630000000  0.4280970000000  0.4978270000000 1.0
C      1  0.4268600000000  0.5149920000000  0.5571270000000 1.0
C      1  0.4870580000000  0.4322840000000  0.4502690000000 1.0
C      1  0.5162070000000  0.4905100000000  0.5199600000000 1.0
C      1  0.4658740000000  0.4759940000000  0.4318820000000 1.0
C      1  0.5084130000000  0.4445920000000  0.4101760000000 1.0
C      1  0.4645550000000  0.4509310000000  0.4494750000000 1.0
C      1  0.5738930000000  0.4222580000000  0.4957440000000 1.0
C      1  0.5175080000000  0.4681230000000  0.5746950000000 1.0
C      1  0.4465050000000  0.4957830000000  0.4371690000000 1.0
C      1  0.4445890000000  0.4688470000000  0.5613430000000 1.0
C      1  0.4934850000000  0.4322350000000  0.5482190000000 1.0
C      1  0.5458060000000  0.5062160000000  0.4198200000000 1.0
C      1  0.5415980000000  0.4313220000000  0.5294040000000 1.0
C      1  0.5167400000000  0.4135100000000  0.4914980000000 1.0
C      1  0.5235300000000  0.5103910000000  0.5006350000000 1.0
C      1  0.4325710000000  0.5512160000000  0.5300670000000 1.0
C      1  0.5744360000000  0.4880370000000  0.5051390000000 1.0
C      1  0.4296840000000  0.4611770000000  0.4892260000000 1.0
C      1  0.4977850000000  0.5182130000000  0.4215350000000 1.0
C      1  0.4271600000000  0.4993700000000  0.4588110000000 1.0
C      1  0.5078690000000  0.4937910000000  0.5858950000000 1.0
C      1  0.4297900000000  0.5369570000000  0.4858010000000 1.0
C      1  0.4735640000000  0.5695890000000  0.5509720000000 1.0
C      1  0.5312880000000  0.5716720000000  0.5322930000000 1.0
C      1  0.4277060000000  0.4894390000000  0.5650070000000 1.0
C      1  0.5284960000000  0.4561700000000  0.4553220000000 1.0
C      1  0.4935460000000  0.4222110000000  0.4758690000000 1.0
C      1  0.4922150000000  0.4527980000000  0.5679540000000 1.0
C      1  0.4952990000000  0.5604790000000  0.5669960000000 1.0
C      1  0.5158020000000  0.4650360000000  0.5064960000000 1.0
C      1  0.5424170000000  0.5434400000000  0.4457360000000 1.0
C      1  0.5181920000000  0.4187560000000  0.5394530000000 1.0
C      1  0.4761190000000  0.5371650000000  0.4265590000000 1.0
C      1  0.4872830000000  0.4640990000000  0.4989720000000 1.0
C      1  0.4696760000000  0.4778090000000  0.5188180000000 1.0
C      1  0.4217380000000  0.4888990000000  0.4843150000000 1.0
C      1  0.5333310000000  0.4989150000000  0.4770960000000 1.0
C      1  0.4283400000000  0.5124170000000  0.5035240000000 1.0
C      1  0.5659960000000  0.5290740000000  0.4549490000000 1.0
C      1  0.4324370000000  0.5285500000000  0.4589170000000 1.0
C      1  0.5677260000000  0.5057550000000  0.4397370000000 1.0
C      1  0.5267890000000  0.5265780000000  0.4259350000000 1.0
C      1  0.4882390000000  0.5342580000000  0.4779350000000 1.0
C      1  0.5711940000000  0.5338630000000  0.4826750000000 1.0
C      1  0.4921670000000  0.5374520000000  0.5831580000000 1.0
C      1  0.5660340000000  0.5353360000000  0.5280930000000 1.0
C      1  0.5226060000000  0.5600700000000  0.5567150000000 1.0
C      1  0.5760700000000  0.5174810000000  0.5065600000000 1.0
C      1  0.4901430000000  0.4894240000000  0.4191830000000 1.0
C      1  0.5677750000000  0.4808590000000  0.4525970000000 1.0
C      1  0.5383900000000  0.4794490000000  0.4157540000000 1.0
C      1  0.5105940000000  0.4393810000000  0.4365880000000 1.0
C      1  0.4833850000000  0.5637510000000  0.4308180000000 1.0
C      1  0.5356730000000  0.5360270000000  0.5665960000000 1.0
C      1  0.4642910000000  0.5715340000000  0.4997180000000 1.0
C      1  0.4752920000000  0.4364910000000  0.4942780000000 1.0
C      1  0.5112510000000  0.4719310000000  0.4109470000000 1.0
C      1  0.5163330000000  0.5819120000000  0.4671600000000 1.0
C      1  0.5380670000000  0.4552030000000  0.4850590000000 1.0
C      1  0.5048300000000  0.4068820000000  0.5162790000000 1.0
C      1  0.4603830000000  0.5053000000000  0.5068520000000 1.0
C      1  0.4758650000000  0.5088320000000  0.4812300000000 1.0
C      1  0.5583960000000  0.4789770000000  0.4813680000000 1.0
C      1  0.5756590000000  0.4649500000000  0.5228030000000 1.0
C      1  0.5144240000000  0.4839510000000  0.4621610000000 1.0
C      1  0.4904010000000  0.5752650000000  0.4544110000000 1.0
C      1  0.4688990000000  0.5211540000000  0.5844600000000 1.0
C      1  0.5581090000000  0.5282850000000  0.5531310000000 1.0
C      1  0.5388290000000  0.5641120000000  0.4652200000000 1.0
C      1  0.5556160000000  0.4535840000000  0.5422240000000 1.0
C      1  0.4465330000000  0.5319650000000  0.5700310000000 1.0
C      1  0.4695300000000  0.4685530000000  0.5761670000000 1.0
C      1  0.4906650000000  0.4945710000000  0.5338540000000 1.0
C      1  0.4751110000000  0.5622410000000  0.4750370000000 1.0
C      1  0.5076960000000  0.5331240000000  0.4984510000000 1.0
C      1  0.5095530000000  0.5838990000000  0.5174870000000 1.0
C      1  0.4773190000000  0.5189070000000  0.5286280000000 1.0
C      1  0.4279730000000  0.4525340000000  0.5156030000000 1.0
C      1  0.5501610000000  0.4652630000000  0.4376150000000 1.0
C      1  0.5558530000000  0.5575350000000  0.4885010000000 1.0
C      1  0.4215120000000  0.5251300000000  0.5305620000000 1.0
C      1  0.5138890000000  0.5913500000000  0.4924380000000 1.0
C      1  0.4829000000000  0.5718470000000  0.5231130000000 1.0
C      1  0.5421440000000  0.4624580000000  0.5643790000000 1.0
C      1  0.4491280000000  0.5554620000000  0.5533800000000 1.0
C      1  0.5851460000000  0.4414280000000  0.5090510000000 1.0
C      1  0.4515620000000  0.5247710000000  0.4363270000000 1.0
C      1  0.4518770000000  0.4484160000000  0.4756260000000 1.0
C      1  0.5160960000000  0.5214590000000  0.5826320000000 1.0
C      1  0.5526070000000  0.5592330000000  0.5171930000000 1.0
C      1  0.4790550000000  0.4936500000000  0.5871830000000 1.0
C      1  0.4896520000000  0.4846530000000  0.4758140000000 1.0
C      1  0.4816520000000  0.4222690000000  0.5220920000000 1.0
C      1  0.4461810000000  0.4615720000000  0.5331350000000 1.0
END
