TITL C-93389-4974-2 -0.913379788882728 125000 -366.83429263644 0 0 54 (C1) n - 1
REM
REM in /rds/project/t2_vol4/rds-t2-cs072/BORA/CARBON/from-Arr/AIRSS/Generating-Clusters/GAP-ML-2020/Only-C1/SD-CG/HFTN-CG
REM
REM
REM
REM
REM
REM ./C.cell (11c1c37f851c82e70ff6c80c92926a4b)
REM AIRSS Version 0.9.1 bugfix July 2018 build 013d7b7c2542+ Fri, 06 Jul 2018 19:26:36 +0100
REM compiler GCC version 9.3.0
REM options -cpp -mtune=generic -march=x86-64 -g -O0
REM seed -694725697 -530763267 72591434 -234312998 -1524863610 263121517 -2010625723 2112620969 -958209991 -1489743360 948684642 958278859 -477430377 -1941020622 -1779707320 -1950724269 -2039694682 560813354 -1472080668 724131709 1236650975 -752436516 2053341163 -1236099492 -945355642 421680634 -915054950 -311854866 805664691 1196674778 -337198214 2061748333 -631388501
REM
CELL 1.54180   50.00000   50.00000   50.00000   90.00000   90.00000   90.00000
LATT -1
SFAC C  
C      1  0.4514550000000  0.5260630000000  0.5022890000000 1.0
C      1  0.5658700000000  0.5111370000000  0.4776150000000 1.0
C      1  0.4443740000000  0.4360110000000  0.5427360000000 1.0
C      1  0.5471560000000  0.5157230000000  0.4564010000000 1.0
C      1  0.5409980000000  0.5348760000000  0.5394620000000 1.0
C      1  0.4402430000000  0.4540220000000  0.5206170000000 1.0
C      1  0.5371890000000  0.4903210000000  0.4488290000000 1.0
C      1  0.5371200000000  0.4433520000000  0.4665910000000 1.0
C      1  0.4828080000000  0.5521550000000  0.4782590000000 1.0
C      1  0.5247020000000  0.5192850000000  0.5576560000000 1.0
C      1  0.5148030000000  0.4839980000000  0.4335800000000 1.0
C      1  0.4900480000000  0.5276450000000  0.4403550000000 1.0
C      1  0.5011920000000  0.4596540000000  0.4410450000000 1.0
C      1  0.4696860000000  0.4445840000000  0.4743140000000 1.0
C      1  0.4491590000000  0.4987520000000  0.5098450000000 1.0
C      1  0.5336320000000  0.5408720000000  0.4621300000000 1.0
C      1  0.5419840000000  0.4712580000000  0.4738930000000 1.0
C      1  0.4829550000000  0.5618330000000  0.5047300000000 1.0
C      1  0.4339060000000  0.4827480000000  0.5279250000000 1.0
C      1  0.4983200000000  0.5135320000000  0.4841280000000 1.0
C      1  0.4888450000000  0.4258570000000  0.4685360000000 1.0
C      1  0.4928980000000  0.4757870000000  0.5277730000000 1.0
C      1  0.5596980000000  0.4913790000000  0.5184480000000 1.0
C      1  0.4915180000000  0.4847340000000  0.4810180000000 1.0
C      1  0.4601690000000  0.5331840000000  0.4754870000000 1.0
C      1  0.4469410000000  0.5007160000000  0.5722390000000 1.0
C      1  0.5183210000000  0.4767410000000  0.4917760000000 1.0
C      1  0.5651580000000  0.5320690000000  0.4964820000000 1.0
C      1  0.4828420000000  0.5454250000000  0.5422330000000 1.0
C      1  0.5600040000000  0.5208160000000  0.5223630000000 1.0
C      1  0.5012020000000  0.5624290000000  0.5279000000000 1.0
C      1  0.5042810000000  0.5026900000000  0.5290690000000 1.0
C      1  0.4799390000000  0.4717570000000  0.5530940000000 1.0
C      1  0.5272870000000  0.4927670000000  0.5498610000000 1.0
C      1  0.4743160000000  0.4988330000000  0.5632110000000 1.0
C      1  0.4716540000000  0.4800480000000  0.5023950000000 1.0
C      1  0.5480880000000  0.5520330000000  0.4852770000000 1.0
C      1  0.4304900000000  0.4899830000000  0.5549780000000 1.0
C      1  0.4784950000000  0.4693570000000  0.4558100000000 1.0
C      1  0.4941220000000  0.5024970000000  0.4290640000000 1.0
C      1  0.5294030000000  0.5585830000000  0.5265850000000 1.0
C      1  0.5624970000000  0.4863250000000  0.4901980000000 1.0
C      1  0.5405690000000  0.5701580000000  0.5037270000000 1.0
C      1  0.4628860000000  0.4502610000000  0.5545040000000 1.0
C      1  0.4931150000000  0.5198920000000  0.5527650000000 1.0
C      1  0.4684140000000  0.4929780000000  0.4409600000000 1.0
C      1  0.4640160000000  0.5456730000000  0.5194500000000 1.0
C      1  0.4566560000000  0.4548790000000  0.4974590000000 1.0
C      1  0.5043070000000  0.5389410000000  0.4621760000000 1.0
C      1  0.5186390000000  0.5078490000000  0.5031410000000 1.0
C      1  0.5124020000000  0.4381110000000  0.4568630000000 1.0
C      1  0.5187100000000  0.4641870000000  0.5178710000000 1.0
C      1  0.5409950000000  0.4762480000000  0.5328940000000 1.0
C      1  0.4635220000000  0.5189910000000  0.4519950000000 1.0
END
