TITL C-93399-4918-3 -5.18226359671726 125000 -596.765936018788 0 0 87 (C1) n - 1
REM
REM in /rds/project/t2_vol4/rds-t2-cs072/BORA/CARBON/from-Arr/AIRSS/Generating-Clusters/GAP-ML-2020/Only-C1/SD-CG/HFTN-CG
REM
REM
REM
REM
REM
REM ./C.cell (11c1c37f851c82e70ff6c80c92926a4b)
REM AIRSS Version 0.9.1 bugfix July 2018 build 013d7b7c2542+ Fri, 06 Jul 2018 19:26:36 +0100
REM compiler GCC version 9.3.0
REM options -cpp -mtune=generic -march=x86-64 -g -O0
REM seed 84140124 932626264 631366945 2121841464 -1474402143 995952379 -2071334764 1354798868 699673473 1305607900 1641473219 -943755383 739165179 -692743626 -305124539 -1765586230 1092825411 -367711941 -739918049 -742583408 -1622020823 568600149 421564270 -1395762242 223284359 1564681582 -587996460 -1952043401 -2082358182 -835641622 -1162509092 -54306310 -1389409528
REM
CELL 1.54180   50.00000   50.00000   50.00000   90.00000   90.00000   90.00000
LATT -1
SFAC C  
C      1  0.5135280000000  0.5467760000000  0.5365070000000 1.0
C      1  0.5221360000000  0.5581360000000  0.4574550000000 1.0
C      1  0.4696660000000  0.5626620000000  0.5185840000000 1.0
C      1  0.5056840000000  0.5306390000000  0.5814500000000 1.0
C      1  0.5474700000000  0.5436340000000  0.4947110000000 1.0
C      1  0.5345970000000  0.4938570000000  0.4983450000000 1.0
C      1  0.4520760000000  0.4432100000000  0.4531290000000 1.0
C      1  0.5103740000000  0.5065410000000  0.5120750000000 1.0
C      1  0.4262580000000  0.4508630000000  0.4505810000000 1.0
C      1  0.5475320000000  0.5532470000000  0.4441400000000 1.0
C      1  0.5471180000000  0.5745500000000  0.4956210000000 1.0
C      1  0.4703140000000  0.4361570000000  0.5258410000000 1.0
C      1  0.5463560000000  0.4789020000000  0.5607190000000 1.0
C      1  0.4573670000000  0.4477350000000  0.5025380000000 1.0
C      1  0.4969370000000  0.4736040000000  0.5802610000000 1.0
C      1  0.5554530000000  0.5727840000000  0.5211920000000 1.0
C      1  0.5684140000000  0.4996350000000  0.5135330000000 1.0
C      1  0.4693490000000  0.4538210000000  0.4319690000000 1.0
C      1  0.5456420000000  0.5442000000000  0.5269390000000 1.0
C      1  0.4693180000000  0.4528020000000  0.5499010000000 1.0
C      1  0.5008260000000  0.5529140000000  0.5633360000000 1.0
C      1  0.5709900000000  0.4659390000000  0.4706530000000 1.0
C      1  0.4555570000000  0.5054700000000  0.5292250000000 1.0
C      1  0.4909180000000  0.4248510000000  0.4751840000000 1.0
C      1  0.4406320000000  0.5305620000000  0.5317330000000 1.0
C      1  0.4778820000000  0.5209720000000  0.5792430000000 1.0
C      1  0.5448580000000  0.4922450000000  0.4474860000000 1.0
C      1  0.5231140000000  0.5127110000000  0.5675200000000 1.0
C      1  0.4237440000000  0.4824860000000  0.4885450000000 1.0
C      1  0.5585070000000  0.4614480000000  0.5420580000000 1.0
C      1  0.4743870000000  0.5400860000000  0.4368510000000 1.0
C      1  0.5009370000000  0.5779040000000  0.4917910000000 1.0
C      1  0.4730870000000  0.5463330000000  0.5636510000000 1.0
C      1  0.4481380000000  0.4952310000000  0.4458220000000 1.0
C      1  0.5712500000000  0.4704220000000  0.5184020000000 1.0
C      1  0.4733380000000  0.4923360000000  0.5740180000000 1.0
C      1  0.4666820000000  0.4822340000000  0.4287750000000 1.0
C      1  0.5065870000000  0.5170350000000  0.5397090000000 1.0
C      1  0.4904320000000  0.5592850000000  0.4511170000000 1.0
C      1  0.4399220000000  0.4809660000000  0.5348330000000 1.0
C      1  0.4556970000000  0.5234770000000  0.4551760000000 1.0
C      1  0.5246270000000  0.5342640000000  0.4775680000000 1.0
C      1  0.4279440000000  0.5100690000000  0.4905540000000 1.0
C      1  0.5339820000000  0.4510010000000  0.5348330000000 1.0
C      1  0.5315570000000  0.4432540000000  0.4604140000000 1.0
C      1  0.5125630000000  0.4368110000000  0.5462360000000 1.0
C      1  0.4894350000000  0.4764380000000  0.5374900000000 1.0
C      1  0.5250770000000  0.5799450000000  0.4788030000000 1.0
C      1  0.4301110000000  0.4762670000000  0.4606650000000 1.0
C      1  0.4636760000000  0.4327310000000  0.4770550000000 1.0
C      1  0.4345810000000  0.4655060000000  0.5107630000000 1.0
C      1  0.4868040000000  0.4738550000000  0.4702590000000 1.0
C      1  0.5689480000000  0.5072470000000  0.4454310000000 1.0
C      1  0.4975070000000  0.5564670000000  0.5128750000000 1.0
C      1  0.5007620000000  0.5305060000000  0.4950210000000 1.0
C      1  0.4941060000000  0.4505160000000  0.5639150000000 1.0
C      1  0.5257690000000  0.4652560000000  0.5072870000000 1.0
C      1  0.4575880000000  0.5665690000000  0.4930830000000 1.0
C      1  0.4789140000000  0.5173330000000  0.4791880000000 1.0
C      1  0.4609320000000  0.5028360000000  0.4989120000000 1.0
C      1  0.4324000000000  0.5314980000000  0.4700610000000 1.0
C      1  0.5333020000000  0.4420410000000  0.4894340000000 1.0
C      1  0.5266330000000  0.5044130000000  0.4691280000000 1.0
C      1  0.5218790000000  0.4843560000000  0.5755740000000 1.0
C      1  0.4740840000000  0.4755870000000  0.4948230000000 1.0
C      1  0.5504710000000  0.5076410000000  0.5576340000000 1.0
C      1  0.5659500000000  0.5354740000000  0.4522490000000 1.0
C      1  0.4805300000000  0.5026270000000  0.5462340000000 1.0
C      1  0.5643770000000  0.4548310000000  0.4949940000000 1.0
C      1  0.4332440000000  0.5523010000000  0.4897230000000 1.0
C      1  0.4515810000000  0.4728910000000  0.5594690000000 1.0
C      1  0.4977120000000  0.4982780000000  0.4615730000000 1.0
C      1  0.4246280000000  0.5327750000000  0.5091230000000 1.0
C      1  0.5816980000000  0.4925190000000  0.4674630000000 1.0
C      1  0.5715560000000  0.5347460000000  0.4812040000000 1.0
C      1  0.4837120000000  0.5233700000000  0.4171750000000 1.0
C      1  0.4921040000000  0.4398040000000  0.4290590000000 1.0
C      1  0.5492340000000  0.4636580000000  0.4518080000000 1.0
C      1  0.5811230000000  0.5095530000000  0.4897550000000 1.0
C      1  0.5063120000000  0.4327510000000  0.4511340000000 1.0
C      1  0.4791660000000  0.5723010000000  0.4741200000000 1.0
C      1  0.4973250000000  0.4272390000000  0.5236220000000 1.0
C      1  0.4892200000000  0.4996120000000  0.4292970000000 1.0
C      1  0.4570900000000  0.5513680000000  0.5415520000000 1.0
C      1  0.4979490000000  0.4783720000000  0.5108950000000 1.0
C      1  0.5083560000000  0.4255370000000  0.4974810000000 1.0
C      1  0.5604100000000  0.5189240000000  0.5344460000000 1.0
END
