TITL C-93042-4968-5 -211.07188687178 125000 -808.047631837631 0 0 114 (C1) n - 1
REM
REM in /rds/project/t2_vol4/rds-t2-cs072/BORA/CARBON/from-Arr/AIRSS/Generating-Clusters/GAP-ML-2020/Only-C1/SD-CG/HFTN-CG
REM
REM
REM
REM
REM
REM ./C.cell (11c1c37f851c82e70ff6c80c92926a4b)
REM AIRSS Version 0.9.1 bugfix July 2018 build 013d7b7c2542+ Fri, 06 Jul 2018 19:26:36 +0100
REM compiler GCC version 9.3.0
REM options -cpp -mtune=generic -march=x86-64 -g -O0
REM seed -1068231504 259385497 -1111866748 1957837768 -784884892 -1069087036 -2024799246 1523000201 -379976224 -1393502705 -172250939 -1962091859 2031238509 220618560 -1234196637 -1438488663 -191094474 651793680 1669172156 -428271347 762078754 1592043160 2122044024 319482992 -1448066046 -732495164 197962029 236586569 1752104175 1809684970 1960271668 673603004 1163627585
REM
CELL 1.54180   50.00000   50.00000   50.00000   90.00000   90.00000   90.00000
LATT -1
SFAC C  
C      1  0.4886760000000  0.5107460000000  0.4190610000000 1.0
C      1  0.4209590000000  0.4858910000000  0.4665990000000 1.0
C      1  0.4642790000000  0.5613800000000  0.5192790000000 1.0
C      1  0.4355620000000  0.4403080000000  0.4906410000000 1.0
C      1  0.4794880000000  0.4399940000000  0.4315530000000 1.0
C      1  0.4930660000000  0.5057610000000  0.4481450000000 1.0
C      1  0.5697280000000  0.4525890000000  0.4859890000000 1.0
C      1  0.4869480000000  0.5251440000000  0.4697860000000 1.0
C      1  0.5159670000000  0.4347380000000  0.5624630000000 1.0
C      1  0.5362360000000  0.5269470000000  0.4442950000000 1.0
C      1  0.4291630000000  0.4733100000000  0.5272990000000 1.0
C      1  0.4784900000000  0.5141570000000  0.5793470000000 1.0
C      1  0.4978090000000  0.5946500000000  0.4607120000000 1.0
C      1  0.5251720000000  0.5890250000000  0.4667320000000 1.0
C      1  0.5653010000000  0.5500680000000  0.5094960000000 1.0
C      1  0.4463760000000  0.5625780000000  0.4754240000000 1.0
C      1  0.4627720000000  0.4848140000000  0.5201690000000 1.0
C      1  0.5140620000000  0.5194240000000  0.5091370000000 1.0
C      1  0.5346510000000  0.4794120000000  0.5792040000000 1.0
C      1  0.5683460000000  0.5024220000000  0.5117150000000 1.0
C      1  0.5456040000000  0.4258430000000  0.5212650000000 1.0
C      1  0.4099100000000  0.5012050000000  0.4874100000000 1.0
C      1  0.4336480000000  0.4833100000000  0.5548400000000 1.0
C      1  0.4827580000000  0.4807360000000  0.4591580000000 1.0
C      1  0.4946690000000  0.4782180000000  0.4837890000000 1.0
C      1  0.4843430000000  0.5786490000000  0.4413420000000 1.0
C      1  0.4805000000000  0.5378930000000  0.4164710000000 1.0
C      1  0.5276080000000  0.5704260000000  0.5376790000000 1.0
C      1  0.5695360000000  0.5387020000000  0.4831310000000 1.0
C      1  0.5739550000000  0.4619560000000  0.4393750000000 1.0
C      1  0.5411840000000  0.4315440000000  0.5494930000000 1.0
C      1  0.4566850000000  0.4243590000000  0.4797430000000 1.0
C      1  0.5254610000000  0.4817800000000  0.4800930000000 1.0
C      1  0.4555980000000  0.5439110000000  0.4303020000000 1.0
C      1  0.5423840000000  0.5278120000000  0.5655020000000 1.0
C      1  0.5677650000000  0.5231460000000  0.5541160000000 1.0
C      1  0.4740280000000  0.4195670000000  0.5266270000000 1.0
C      1  0.4912330000000  0.4365480000000  0.5458980000000 1.0
C      1  0.4180660000000  0.5409850000000  0.5111570000000 1.0
C      1  0.4639550000000  0.4453370000000  0.5579150000000 1.0
C      1  0.4156340000000  0.5184790000000  0.5293260000000 1.0
C      1  0.5450590000000  0.5434480000000  0.4686910000000 1.0
C      1  0.4691010000000  0.5326050000000  0.5286200000000 1.0
C      1  0.4587880000000  0.4726200000000  0.5661820000000 1.0
C      1  0.4594090000000  0.4319350000000  0.4510760000000 1.0
C      1  0.4791560000000  0.5744070000000  0.5423120000000 1.0
C      1  0.4514050000000  0.5297510000000  0.5545840000000 1.0
C      1  0.4321040000000  0.4453660000000  0.5187760000000 1.0
C      1  0.5344460000000  0.4274410000000  0.4748340000000 1.0
C      1  0.4398670000000  0.4510060000000  0.4460190000000 1.0
C      1  0.5035680000000  0.5851210000000  0.5327650000000 1.0
C      1  0.5793940000000  0.5121040000000  0.4845610000000 1.0
C      1  0.5266360000000  0.4509430000000  0.4271810000000 1.0
C      1  0.5408330000000  0.4978710000000  0.4313250000000 1.0
C      1  0.4293190000000  0.5401580000000  0.4657530000000 1.0
C      1  0.4265270000000  0.4577660000000  0.4694840000000 1.0
C      1  0.5613500000000  0.4699090000000  0.5763410000000 1.0
C      1  0.4986130000000  0.5590680000000  0.4247550000000 1.0
C      1  0.5263880000000  0.4755190000000  0.5269930000000 1.0
C      1  0.4658990000000  0.5388980000000  0.5763160000000 1.0
C      1  0.5285470000000  0.4169880000000  0.5006110000000 1.0
C      1  0.4377760000000  0.5252440000000  0.4429220000000 1.0
C      1  0.5221880000000  0.5017980000000  0.4547190000000 1.0
C      1  0.5843160000000  0.4849390000000  0.5813400000000 1.0
C      1  0.4372070000000  0.5613120000000  0.5064450000000 1.0
C      1  0.5682540000000  0.4899600000000  0.4370860000000 1.0
C      1  0.4931860000000  0.4699030000000  0.5920050000000 1.0
C      1  0.4764180000000  0.4137250000000  0.4988070000000 1.0
C      1  0.5427960000000  0.4551710000000  0.4723170000000 1.0
C      1  0.5058220000000  0.4333290000000  0.4367910000000 1.0
C      1  0.4731990000000  0.4653010000000  0.4185020000000 1.0
C      1  0.5070890000000  0.5584580000000  0.5768270000000 1.0
C      1  0.4820710000000  0.4663480000000  0.5065410000000 1.0
C      1  0.5024000000000  0.4113210000000  0.4883900000000 1.0
C      1  0.4119760000000  0.4942650000000  0.5149800000000 1.0
C      1  0.5109710000000  0.4199530000000  0.4614220000000 1.0
C      1  0.5294200000000  0.5541560000000  0.5616300000000 1.0
C      1  0.5828550000000  0.4948140000000  0.4631890000000 1.0
C      1  0.4501250000000  0.4322640000000  0.5363800000000 1.0
C      1  0.4998710000000  0.4647670000000  0.5306130000000 1.0
C      1  0.4348940000000  0.4966780000000  0.4436750000000 1.0
C      1  0.5805780000000  0.4975130000000  0.5576510000000 1.0
C      1  0.5216070000000  0.4768170000000  0.4170570000000 1.0
C      1  0.4820890000000  0.4848240000000  0.5457990000000 1.0
C      1  0.5057660000000  0.5976760000000  0.5071860000000 1.0
C      1  0.4972110000000  0.5497270000000  0.4779440000000 1.0
C      1  0.4477900000000  0.4735300000000  0.4305720000000 1.0
C      1  0.5856390000000  0.4659480000000  0.4669560000000 1.0
C      1  0.4650180000000  0.5108810000000  0.5088200000000 1.0
C      1  0.5371460000000  0.5679820000000  0.4535860000000 1.0
C      1  0.5687040000000  0.4413200000000  0.5117970000000 1.0
C      1  0.5248800000000  0.5521030000000  0.4331340000000 1.0
C      1  0.5393960000000  0.5655570000000  0.5108390000000 1.0
C      1  0.4744690000000  0.5678400000000  0.4908780000000 1.0
C      1  0.5342770000000  0.4943440000000  0.5076740000000 1.0
C      1  0.5227580000000  0.5440400000000  0.4929780000000 1.0
C      1  0.4297920000000  0.5119500000000  0.5529220000000 1.0
C      1  0.4584930000000  0.5673760000000  0.4464540000000 1.0
C      1  0.4854120000000  0.5952500000000  0.4870840000000 1.0
C      1  0.5819520000000  0.4842580000000  0.5322460000000 1.0
C      1  0.5710230000000  0.5287320000000  0.5267830000000 1.0
C      1  0.4819180000000  0.5606470000000  0.5675470000000 1.0
C      1  0.5149780000000  0.4584780000000  0.5815070000000 1.0
C      1  0.5258290000000  0.5051820000000  0.5706040000000 1.0
C      1  0.4723390000000  0.4867080000000  0.5890150000000 1.0
C      1  0.4883420000000  0.5088260000000  0.4922460000000 1.0
C      1  0.5496300000000  0.4499040000000  0.4427400000000 1.0
C      1  0.5778140000000  0.4562130000000  0.5340490000000 1.0
C      1  0.4986260000000  0.5079460000000  0.5574760000000 1.0
C      1  0.4986260000000  0.5269190000000  0.5346740000000 1.0
C      1  0.4131570000000  0.5292080000000  0.4856440000000 1.0
C      1  0.5632020000000  0.4481110000000  0.5572010000000 1.0
C      1  0.4944390000000  0.4837660000000  0.4102200000000 1.0
C      1  0.5302890000000  0.5900300000000  0.4952800000000 1.0
END
