TITL C-93030-4792-3 4.66485272507668 125000 -720.279447736413 0 0 102 (C1) n - 1
REM
REM in /rds/project/t2_vol4/rds-t2-cs072/BORA/CARBON/from-Arr/AIRSS/Generating-Clusters/GAP-ML-2020/Only-C1/SD-CG/HFTN-CG
REM
REM
REM
REM
REM
REM ./C.cell (11c1c37f851c82e70ff6c80c92926a4b)
REM AIRSS Version 0.9.1 bugfix July 2018 build 013d7b7c2542+ Fri, 06 Jul 2018 19:26:36 +0100
REM compiler GCC version 9.3.0
REM options -cpp -mtune=generic -march=x86-64 -g -O0
REM seed 4032952 -629379516 608502375 735154880 -2056104275 1109956370 640906422 -2060385541 -384406469 1912945983 140354124 -1333003154 -499870512 -837402412 -658178771 1055244646 -1605944095 22163168 1797846146 -1651717143 -1255793559 988839784 1008635687 -165576271 -1555037983 1359329955 1072972388 1824953556 -1373843356 -189592258 275957461 398316580 -1362991917
REM
CELL 1.54180   50.00000   50.00000   50.00000   90.00000   90.00000   90.00000
LATT -1
SFAC C  
C      1  0.5434650000000  0.5222150000000  0.5111040000000 1.0
C      1  0.4362000000000  0.5104590000000  0.4367280000000 1.0
C      1  0.5043070000000  0.5751720000000  0.5430180000000 1.0
C      1  0.4404290000000  0.5369810000000  0.4477360000000 1.0
C      1  0.4879920000000  0.5166220000000  0.5809680000000 1.0
C      1  0.4946550000000  0.4697920000000  0.5778400000000 1.0
C      1  0.4566550000000  0.4963060000000  0.4222400000000 1.0
C      1  0.4688510000000  0.5336090000000  0.5276320000000 1.0
C      1  0.4239190000000  0.5391910000000  0.4705170000000 1.0
C      1  0.4606830000000  0.4683030000000  0.4252670000000 1.0
C      1  0.5763770000000  0.4649060000000  0.5319460000000 1.0
C      1  0.4822630000000  0.5624060000000  0.5565330000000 1.0
C      1  0.5209170000000  0.5931220000000  0.4989760000000 1.0
C      1  0.4618200000000  0.5630090000000  0.5326580000000 1.0
C      1  0.4583610000000  0.5267890000000  0.5005720000000 1.0
C      1  0.5681750000000  0.5117470000000  0.5515790000000 1.0
C      1  0.4084840000000  0.5152970000000  0.4739320000000 1.0
C      1  0.5019800000000  0.5000030000000  0.5303560000000 1.0
C      1  0.4124460000000  0.5084910000000  0.5149800000000 1.0
C      1  0.5283500000000  0.4822100000000  0.4882920000000 1.0
C      1  0.4433610000000  0.4401340000000  0.4994850000000 1.0
C      1  0.4603380000000  0.4253650000000  0.4819760000000 1.0
C      1  0.3922880000000  0.5116330000000  0.4961450000000 1.0
C      1  0.5845140000000  0.4680760000000  0.4812470000000 1.0
C      1  0.4673570000000  0.4769820000000  0.5715210000000 1.0
C      1  0.4452160000000  0.4546490000000  0.4451840000000 1.0
C      1  0.5451440000000  0.5207880000000  0.5684920000000 1.0
C      1  0.4841730000000  0.4170230000000  0.4952910000000 1.0
C      1  0.5090420000000  0.4139690000000  0.4811860000000 1.0
C      1  0.4757850000000  0.5846240000000  0.5154570000000 1.0
C      1  0.5026090000000  0.5922320000000  0.5215840000000 1.0
C      1  0.5106720000000  0.4485090000000  0.5645700000000 1.0
C      1  0.4497040000000  0.4645690000000  0.5525110000000 1.0
C      1  0.4276670000000  0.4692460000000  0.4632950000000 1.0
C      1  0.5532560000000  0.4479040000000  0.5212170000000 1.0
C      1  0.4761180000000  0.5862820000000  0.4869320000000 1.0
C      1  0.5589640000000  0.4793050000000  0.4433380000000 1.0
C      1  0.5343430000000  0.4881140000000  0.4297720000000 1.0
C      1  0.4501480000000  0.4865780000000  0.5309540000000 1.0
C      1  0.4992090000000  0.5278720000000  0.4309410000000 1.0
C      1  0.5895550000000  0.5040350000000  0.5059560000000 1.0
C      1  0.5086020000000  0.5505360000000  0.4923440000000 1.0
C      1  0.5254690000000  0.5407950000000  0.5636210000000 1.0
C      1  0.5109020000000  0.5647280000000  0.4621710000000 1.0
C      1  0.4201150000000  0.4959090000000  0.4558440000000 1.0
C      1  0.4970670000000  0.5414740000000  0.5725050000000 1.0
C      1  0.4633740000000  0.5546690000000  0.4514790000000 1.0
C      1  0.4794410000000  0.5087130000000  0.4331660000000 1.0
C      1  0.4979750000000  0.5280200000000  0.5252430000000 1.0
C      1  0.5178490000000  0.4632900000000  0.4268840000000 1.0
C      1  0.5020730000000  0.5235370000000  0.4950000000000 1.0
C      1  0.5051390000000  0.4672890000000  0.4840520000000 1.0
C      1  0.5559430000000  0.4511030000000  0.4492270000000 1.0
C      1  0.4636920000000  0.5055570000000  0.5704500000000 1.0
C      1  0.5789700000000  0.5432780000000  0.4827040000000 1.0
C      1  0.5254590000000  0.5152980000000  0.4341410000000 1.0
C      1  0.5566290000000  0.4325510000000  0.4950080000000 1.0
C      1  0.5070300000000  0.4945890000000  0.5855610000000 1.0
C      1  0.5335910000000  0.5521280000000  0.5110970000000 1.0
C      1  0.4789170000000  0.4866340000000  0.5153240000000 1.0
C      1  0.5582550000000  0.5630720000000  0.4761510000000 1.0
C      1  0.5290270000000  0.5119680000000  0.4858700000000 1.0
C      1  0.4767750000000  0.5083800000000  0.4891480000000 1.0
C      1  0.4288790000000  0.4639010000000  0.4916420000000 1.0
C      1  0.5317390000000  0.4185930000000  0.4986420000000 1.0
C      1  0.4503980000000  0.5144490000000  0.5446350000000 1.0
C      1  0.4913080000000  0.5520170000000  0.4442650000000 1.0
C      1  0.5737470000000  0.5213980000000  0.5236020000000 1.0
C      1  0.4835080000000  0.4333090000000  0.5208030000000 1.0
C      1  0.5817160000000  0.5455520000000  0.5096240000000 1.0
C      1  0.4386180000000  0.4391290000000  0.5488300000000 1.0
C      1  0.5848240000000  0.5137750000000  0.4789540000000 1.0
C      1  0.5890190000000  0.4759920000000  0.5083390000000 1.0
C      1  0.5101840000000  0.4233930000000  0.4532550000000 1.0
C      1  0.4765350000000  0.4969090000000  0.4628370000000 1.0
C      1  0.5391320000000  0.4750620000000  0.5128090000000 1.0
C      1  0.5451130000000  0.5765850000000  0.4993640000000 1.0
C      1  0.5372410000000  0.4528520000000  0.5694150000000 1.0
C      1  0.4886650000000  0.4574820000000  0.4292180000000 1.0
C      1  0.5381080000000  0.5547790000000  0.4589570000000 1.0
C      1  0.4392920000000  0.5519060000000  0.4919920000000 1.0
C      1  0.5303300000000  0.4415300000000  0.4411610000000 1.0
C      1  0.5366260000000  0.5263520000000  0.4575590000000 1.0
C      1  0.5793360000000  0.4900020000000  0.4628810000000 1.0
C      1  0.5506050000000  0.4755970000000  0.5730240000000 1.0
C      1  0.5351130000000  0.4977320000000  0.5822230000000 1.0
C      1  0.5062330000000  0.4320440000000  0.5406110000000 1.0
C      1  0.5699840000000  0.4447220000000  0.4737860000000 1.0
C      1  0.4576690000000  0.5688980000000  0.4758790000000 1.0
C      1  0.4603530000000  0.4319800000000  0.4546920000000 1.0
C      1  0.4257900000000  0.5284130000000  0.5319960000000 1.0
C      1  0.5709940000000  0.4831660000000  0.5541030000000 1.0
C      1  0.4872510000000  0.4618090000000  0.5052990000000 1.0
C      1  0.4857560000000  0.4311330000000  0.4413880000000 1.0
C      1  0.5035630000000  0.5895720000000  0.4766880000000 1.0
C      1  0.4895950000000  0.4730230000000  0.4621470000000 1.0
C      1  0.4338750000000  0.5546590000000  0.5223140000000 1.0
C      1  0.5303650000000  0.4276460000000  0.5261810000000 1.0
C      1  0.5200400000000  0.5519010000000  0.5371370000000 1.0
C      1  0.4274480000000  0.4840260000000  0.5123600000000 1.0
C      1  0.5296240000000  0.4956250000000  0.5287390000000 1.0
C      1  0.4533360000000  0.4350510000000  0.5257310000000 1.0
END
