TITL C-93402-5115-4 -0.140671491036312 125000 -556.41844560179 0 0 80 (C1) n - 1
REM
REM in /rds/project/t2_vol4/rds-t2-cs072/BORA/CARBON/from-Arr/AIRSS/Generating-Clusters/GAP-ML-2020/Only-C1/SD-CG/HFTN-CG
REM
REM
REM
REM
REM
REM ./C.cell (11c1c37f851c82e70ff6c80c92926a4b)
REM AIRSS Version 0.9.1 bugfix July 2018 build 013d7b7c2542+ Fri, 06 Jul 2018 19:26:36 +0100
REM compiler GCC version 9.3.0
REM options -cpp -mtune=generic -march=x86-64 -g -O0
REM seed 314388414 1954263655 209040112 1814997142 -506750916 148770549 -436663480 -229169129 1915054933 -742723226 1453413945 2012519381 1242277150 -462211732 2019975151 -83098133 -336658220 305097549 1150664967 -1855614031 -529457132 1245944780 263428477 -1673735113 1225490372 -126731327 1216803598 -752551331 -603910182 1059443129 1730537332 -2019067009 263432995
REM
CELL 1.54180   50.00000   50.00000   50.00000   90.00000   90.00000   90.00000
LATT -1
SFAC C  
C      1  0.5179380000000  0.5258090000000  0.4649340000000 1.0
C      1  0.5621360000000  0.4990270000000  0.5170500000000 1.0
C      1  0.4989170000000  0.4114920000000  0.4953550000000 1.0
C      1  0.5397850000000  0.4579610000000  0.5041590000000 1.0
C      1  0.5342300000000  0.5065540000000  0.4490670000000 1.0
C      1  0.4645600000000  0.5453370000000  0.5071740000000 1.0
C      1  0.4196930000000  0.5485610000000  0.4887920000000 1.0
C      1  0.5455170000000  0.4503150000000  0.4741610000000 1.0
C      1  0.5327560000000  0.5834640000000  0.4636970000000 1.0
C      1  0.5557280000000  0.5716490000000  0.4737660000000 1.0
C      1  0.5330970000000  0.4574140000000  0.5747710000000 1.0
C      1  0.4578860000000  0.5647180000000  0.4640090000000 1.0
C      1  0.5092750000000  0.4712860000000  0.5837400000000 1.0
C      1  0.4971850000000  0.5148330000000  0.4840520000000 1.0
C      1  0.5437530000000  0.5367740000000  0.5383740000000 1.0
C      1  0.4624120000000  0.4816810000000  0.4991680000000 1.0
C      1  0.5286250000000  0.4324730000000  0.4598020000000 1.0
C      1  0.5369600000000  0.5335280000000  0.4877530000000 1.0
C      1  0.4477130000000  0.4537740000000  0.4675430000000 1.0
C      1  0.5584530000000  0.5006200000000  0.4616030000000 1.0
C      1  0.5667490000000  0.5251180000000  0.4774140000000 1.0
C      1  0.5499670000000  0.5623590000000  0.5016450000000 1.0
C      1  0.4856950000000  0.5630150000000  0.5169610000000 1.0
C      1  0.4233550000000  0.5106610000000  0.4793570000000 1.0
C      1  0.4903070000000  0.4672060000000  0.4877160000000 1.0
C      1  0.5270930000000  0.4642650000000  0.4228550000000 1.0
C      1  0.4991990000000  0.5421150000000  0.4468960000000 1.0
C      1  0.4743600000000  0.4310130000000  0.5311800000000 1.0
C      1  0.4159540000000  0.5235350000000  0.5053700000000 1.0
C      1  0.5483810000000  0.4650650000000  0.5514790000000 1.0
C      1  0.4452880000000  0.5608440000000  0.4906410000000 1.0
C      1  0.4703520000000  0.5232580000000  0.4818390000000 1.0
C      1  0.4595790000000  0.4327600000000  0.5068620000000 1.0
C      1  0.4833360000000  0.5235450000000  0.4316330000000 1.0
C      1  0.4812780000000  0.5331270000000  0.5517070000000 1.0
C      1  0.5065340000000  0.5020270000000  0.5091840000000 1.0
C      1  0.4849840000000  0.4483420000000  0.4410780000000 1.0
C      1  0.4966570000000  0.5546070000000  0.5419780000000 1.0
C      1  0.5069030000000  0.5795500000000  0.4736070000000 1.0
C      1  0.5710160000000  0.5500100000000  0.4642440000000 1.0
C      1  0.4394530000000  0.5147920000000  0.5463060000000 1.0
C      1  0.4678780000000  0.4351370000000  0.4605860000000 1.0
C      1  0.5135140000000  0.4447490000000  0.4371460000000 1.0
C      1  0.5414220000000  0.4460120000000  0.5308040000000 1.0
C      1  0.5324670000000  0.5166930000000  0.5123970000000 1.0
C      1  0.4865970000000  0.5649980000000  0.4593360000000 1.0
C      1  0.5121550000000  0.4744380000000  0.5020350000000 1.0
C      1  0.4750500000000  0.4956890000000  0.5226260000000 1.0
C      1  0.4466620000000  0.4557400000000  0.4960430000000 1.0
C      1  0.5293980000000  0.5744390000000  0.5165860000000 1.0
C      1  0.5051320000000  0.5781950000000  0.5023940000000 1.0
C      1  0.5197810000000  0.4896450000000  0.4314950000000 1.0
C      1  0.5628550000000  0.4763580000000  0.5008000000000 1.0
C      1  0.5654260000000  0.5453790000000  0.5199470000000 1.0
C      1  0.4664340000000  0.4784120000000  0.5466150000000 1.0
C      1  0.4742400000000  0.4515490000000  0.5520700000000 1.0
C      1  0.5564040000000  0.4915870000000  0.5448740000000 1.0
C      1  0.5615860000000  0.4744880000000  0.4721010000000 1.0
C      1  0.5176320000000  0.4130330000000  0.4757490000000 1.0
C      1  0.4809080000000  0.5118310000000  0.5704250000000 1.0
C      1  0.4927760000000  0.4480830000000  0.5738720000000 1.0
C      1  0.5756760000000  0.5230480000000  0.5062670000000 1.0
C      1  0.5052450000000  0.4996010000000  0.5818250000000 1.0
C      1  0.4512890000000  0.4998480000000  0.4777120000000 1.0
C      1  0.4558690000000  0.4976610000000  0.5638940000000 1.0
C      1  0.4424050000000  0.5459680000000  0.4476900000000 1.0
C      1  0.5249720000000  0.5588310000000  0.5398290000000 1.0
C      1  0.4169040000000  0.5181680000000  0.5320030000000 1.0
C      1  0.4744280000000  0.4752190000000  0.4374740000000 1.0
C      1  0.5460100000000  0.5147520000000  0.5584830000000 1.0
C      1  0.5299970000000  0.5129170000000  0.5802400000000 1.0
C      1  0.4568510000000  0.5289920000000  0.4325540000000 1.0
C      1  0.4211890000000  0.5348350000000  0.4638200000000 1.0
C      1  0.4735250000000  0.4206670000000  0.4851340000000 1.0
C      1  0.4917440000000  0.4963260000000  0.4298370000000 1.0
C      1  0.4626280000000  0.5246270000000  0.5300620000000 1.0
C      1  0.4521330000000  0.4789570000000  0.4551080000000 1.0
C      1  0.4993540000000  0.4181100000000  0.5243260000000 1.0
C      1  0.5218380000000  0.4266920000000  0.5401820000000 1.0
C      1  0.5165680000000  0.4338420000000  0.5667360000000 1.0
END
