TITL C-93395-4981-3 -19.2669232383414 125000 -130.69801058853 0 0 20 (C1) n - 1
REM
REM in /rds/project/t2_vol4/rds-t2-cs072/BORA/CARBON/from-Arr/AIRSS/Generating-Clusters/GAP-ML-2020/Only-C1/SD-CG/HFTN-CG
REM
REM
REM
REM
REM
REM ./C.cell (11c1c37f851c82e70ff6c80c92926a4b)
REM AIRSS Version 0.9.1 bugfix July 2018 build 013d7b7c2542+ Fri, 06 Jul 2018 19:26:36 +0100
REM compiler GCC version 9.3.0
REM options -cpp -mtune=generic -march=x86-64 -g -O0
REM seed -296204390 -231350880 531014050 1133286413 388383998 -830084936 1826420335 -1672212594 402859703 1948790035 1995485020 1393461752 966491718 -678267633 216126007 -454962720 -1741160253 238835646 1470683702 1863472731 -264945717 -2115612693 1617650200 -1870440696 -876916903 781717602 695379933 354437874 -1163037553 1408670083 686679100 355317843 1376774369
REM
CELL 1.54180   50.00000   50.00000   50.00000   90.00000   90.00000   90.00000
LATT -1
SFAC C  
C      1  0.4829400000000  0.4677540000000  0.4520550000000 1.0
C      1  0.5008350000000  0.5457960000000  0.5108450000000 1.0
C      1  0.4808080000000  0.4937810000000  0.4505410000000 1.0
C      1  0.5441900000000  0.4896130000000  0.5127440000000 1.0
C      1  0.4754000000000  0.4379580000000  0.4927120000000 1.0
C      1  0.4977040000000  0.4638510000000  0.5623000000000 1.0
C      1  0.4842310000000  0.4586990000000  0.5381650000000 1.0
C      1  0.5269170000000  0.5345640000000  0.5046790000000 1.0
C      1  0.4772520000000  0.4440830000000  0.5176080000000 1.0
C      1  0.4771000000000  0.5181990000000  0.4559430000000 1.0
C      1  0.5433450000000  0.4693430000000  0.4975920000000 1.0
C      1  0.5294050000000  0.5114390000000  0.5206350000000 1.0
C      1  0.4793400000000  0.4483960000000  0.4689720000000 1.0
C      1  0.4947610000000  0.4863120000000  0.5473950000000 1.0
C      1  0.5148680000000  0.5556620000000  0.4674150000000 1.0
C      1  0.5051700000000  0.5100200000000  0.5372910000000 1.0
C      1  0.5325620000000  0.5394460000000  0.4776600000000 1.0
C      1  0.4714910000000  0.5401530000000  0.4687900000000 1.0
C      1  0.4914470000000  0.5516080000000  0.4837780000000 1.0
C      1  0.4902330000000  0.5333210000000  0.5328820000000 1.0
END
