TITL C-93042-4968-3 -0.000276944925582401 125000 -201.295478660533 0 0 31 (C1) n - 1
REM
REM in /rds/project/t2_vol4/rds-t2-cs072/BORA/CARBON/from-Arr/AIRSS/Generating-Clusters/GAP-ML-2020/Only-C1/SD-CG/HFTN-CG
REM
REM
REM
REM
REM
REM ./C.cell (11c1c37f851c82e70ff6c80c92926a4b)
REM AIRSS Version 0.9.1 bugfix July 2018 build 013d7b7c2542+ Fri, 06 Jul 2018 19:26:36 +0100
REM compiler GCC version 9.3.0
REM options -cpp -mtune=generic -march=x86-64 -g -O0
REM seed -517022085 -137554674 -820329166 926842683 1199902756 442177354 1169437399 -1927851716 978865038 1265976802 -1418320043 -2119923007 1191227143 -931038853 -106012703 1348443744 -2111103994 1400545862 1953197919 -558670767 1399626437 -965716752 -1337927331 1856555445 1874618670 -532326899 1817805319 2031439569 -297934812 -1532733791 1419012889 19122067 515032847
REM
CELL 1.54180   50.00000   50.00000   50.00000   90.00000   90.00000   90.00000
LATT -1
SFAC C  
C      1  0.5282450000000  0.5250730000000  0.5511260000000 1.0
C      1  0.4892160000000  0.4856240000000  0.5054790000000 1.0
C      1  0.4667060000000  0.4491450000000  0.4887820000000 1.0
C      1  0.5161080000000  0.5424790000000  0.5323930000000 1.0
C      1  0.4426890000000  0.4576760000000  0.4871240000000 1.0
C      1  0.4941610000000  0.4576530000000  0.4938690000000 1.0
C      1  0.4914910000000  0.5318500000000  0.5240890000000 1.0
C      1  0.5310290000000  0.4830980000000  0.5454870000000 1.0
C      1  0.5319210000000  0.4976000000000  0.4891790000000 1.0
C      1  0.5069860000000  0.5512650000000  0.4572010000000 1.0
C      1  0.5032640000000  0.5029240000000  0.4881500000000 1.0
C      1  0.4769920000000  0.5094950000000  0.4482880000000 1.0
C      1  0.5039310000000  0.4649620000000  0.4659840000000 1.0
C      1  0.5440890000000  0.5160100000000  0.5070640000000 1.0
C      1  0.4924490000000  0.4913270000000  0.4639380000000 1.0
C      1  0.5452760000000  0.5076070000000  0.5348500000000 1.0
C      1  0.4914030000000  0.5328890000000  0.4481490000000 1.0
C      1  0.5128510000000  0.4458890000000  0.5141050000000 1.0
C      1  0.5296890000000  0.4600300000000  0.4559280000000 1.0
C      1  0.4621020000000  0.4991940000000  0.5099740000000 1.0
C      1  0.5397640000000  0.4790090000000  0.4705910000000 1.0
C      1  0.4633960000000  0.5227940000000  0.4910260000000 1.0
C      1  0.4486380000000  0.4846910000000  0.4887450000000 1.0
C      1  0.4909610000000  0.5307090000000  0.4956170000000 1.0
C      1  0.5240730000000  0.4607440000000  0.5317530000000 1.0
C      1  0.4565160000000  0.5063950000000  0.4690950000000 1.0
C      1  0.5114430000000  0.5492550000000  0.4845460000000 1.0
C      1  0.4850490000000  0.4997270000000  0.5577030000000 1.0
C      1  0.5122300000000  0.5015090000000  0.5599920000000 1.0
C      1  0.5317650000000  0.5428790000000  0.5052130000000 1.0
C      1  0.4755650000000  0.5104970000000  0.5345600000000 1.0
END
