TITL C-93040-5170-5 0.10812583602915 125000 -717.14679364662 0 0 103 (C1) n - 1
REM
REM in /rds/project/t2_vol4/rds-t2-cs072/BORA/CARBON/from-Arr/AIRSS/Generating-Clusters/GAP-ML-2020/Only-C1/SD-CG/HFTN-CG
REM
REM
REM
REM
REM
REM ./C.cell (11c1c37f851c82e70ff6c80c92926a4b)
REM AIRSS Version 0.9.1 bugfix July 2018 build 013d7b7c2542+ Fri, 06 Jul 2018 19:26:36 +0100
REM compiler GCC version 9.3.0
REM options -cpp -mtune=generic -march=x86-64 -g -O0
REM seed 1028064070 -144409875 1088022115 896302355 -147196744 -1735024415 316007278 -244343035 -618820396 253381199 459001651 -900000764 -390380904 -1621554232 -211593365 598279901 -1369652101 -941460035 -234887050 1165924285 2124750706 -1524107527 -723907471 -1957429734 1117998547 2056008348 675511514 1001030402 -413771073 -1381458455 -960940636 217973382 948640629
REM
CELL 1.54180   50.00000   50.00000   50.00000   90.00000   90.00000   90.00000
LATT -1
SFAC C  
C      1  0.5079630000000  0.5380250000000  0.5769760000000 1.0
C      1  0.5120490000000  0.5315520000000  0.4270180000000 1.0
C      1  0.4866110000000  0.5457720000000  0.4810970000000 1.0
C      1  0.4933020000000  0.5525600000000  0.4346320000000 1.0
C      1  0.5154140000000  0.4209610000000  0.4596800000000 1.0
C      1  0.4210800000000  0.4686150000000  0.4797480000000 1.0
C      1  0.5765240000000  0.5212930000000  0.5009070000000 1.0
C      1  0.4426070000000  0.4884960000000  0.5551560000000 1.0
C      1  0.4720590000000  0.4439820000000  0.5346290000000 1.0
C      1  0.4454470000000  0.4870260000000  0.4851560000000 1.0
C      1  0.5293520000000  0.5081500000000  0.4757360000000 1.0
C      1  0.4814890000000  0.5086400000000  0.4605530000000 1.0
C      1  0.5306780000000  0.4777310000000  0.5284830000000 1.0
C      1  0.5142070000000  0.4156880000000  0.5223140000000 1.0
C      1  0.5210330000000  0.5742780000000  0.4724590000000 1.0
C      1  0.4633230000000  0.4505800000000  0.4332980000000 1.0
C      1  0.5480960000000  0.4826200000000  0.5057360000000 1.0
C      1  0.4549960000000  0.5143210000000  0.5191140000000 1.0
C      1  0.5911390000000  0.5151220000000  0.4777550000000 1.0
C      1  0.4124610000000  0.5136020000000  0.5244640000000 1.0
C      1  0.4862790000000  0.5565220000000  0.5706680000000 1.0
C      1  0.4595310000000  0.5499170000000  0.5750450000000 1.0
C      1  0.5754050000000  0.4810620000000  0.5433280000000 1.0
C      1  0.4350060000000  0.5160290000000  0.5438880000000 1.0
C      1  0.5470150000000  0.5128700000000  0.4992570000000 1.0
C      1  0.5746940000000  0.4730360000000  0.5153000000000 1.0
C      1  0.4703530000000  0.4829430000000  0.5595820000000 1.0
C      1  0.5383610000000  0.5034420000000  0.5396970000000 1.0
C      1  0.4007150000000  0.4752670000000  0.4966270000000 1.0
C      1  0.5313890000000  0.4781180000000  0.4799030000000 1.0
C      1  0.4525730000000  0.4340770000000  0.4541230000000 1.0
C      1  0.4336890000000  0.4717780000000  0.5313890000000 1.0
C      1  0.4682520000000  0.5176810000000  0.4174420000000 1.0
C      1  0.5460720000000  0.4613330000000  0.4576050000000 1.0
C      1  0.5577810000000  0.5456070000000  0.4495350000000 1.0
C      1  0.5579780000000  0.4647930000000  0.5596300000000 1.0
C      1  0.5505780000000  0.5022130000000  0.4302200000000 1.0
C      1  0.5748100000000  0.4649260000000  0.4682030000000 1.0
C      1  0.4461330000000  0.4428110000000  0.5228350000000 1.0
C      1  0.4802050000000  0.5269110000000  0.5223940000000 1.0
C      1  0.4842300000000  0.5540520000000  0.5093650000000 1.0
C      1  0.4398960000000  0.5423400000000  0.5577270000000 1.0
C      1  0.4784040000000  0.4732170000000  0.5319080000000 1.0
C      1  0.4949180000000  0.5072030000000  0.4302620000000 1.0
C      1  0.4476940000000  0.5483920000000  0.4505880000000 1.0
C      1  0.4508710000000  0.4971740000000  0.4178460000000 1.0
C      1  0.5038500000000  0.4026040000000  0.5012220000000 1.0
C      1  0.4381040000000  0.5664010000000  0.5402960000000 1.0
C      1  0.4470250000000  0.4321730000000  0.4957110000000 1.0
C      1  0.5331220000000  0.5425330000000  0.5648100000000 1.0
C      1  0.4324920000000  0.4436340000000  0.4733580000000 1.0
C      1  0.5054160000000  0.4321410000000  0.4374230000000 1.0
C      1  0.5675020000000  0.5102660000000  0.5466180000000 1.0
C      1  0.5398410000000  0.4290960000000  0.5206550000000 1.0
C      1  0.5132330000000  0.4650760000000  0.5760720000000 1.0
C      1  0.5145380000000  0.4432990000000  0.5583600000000 1.0
C      1  0.5740100000000  0.4530840000000  0.4952620000000 1.0
C      1  0.5025560000000  0.5171760000000  0.4813660000000 1.0
C      1  0.4927670000000  0.4859510000000  0.5782190000000 1.0
C      1  0.5398470000000  0.5296140000000  0.4316310000000 1.0
C      1  0.4183530000000  0.5550570000000  0.4891560000000 1.0
C      1  0.4667180000000  0.4201120000000  0.4754760000000 1.0
C      1  0.4936890000000  0.4099260000000  0.4772930000000 1.0
C      1  0.4619360000000  0.5310800000000  0.4707840000000 1.0
C      1  0.5514470000000  0.5205500000000  0.5699690000000 1.0
C      1  0.4346620000000  0.5644380000000  0.5107810000000 1.0
C      1  0.4181370000000  0.5282600000000  0.4989820000000 1.0
C      1  0.5767420000000  0.5035890000000  0.4404170000000 1.0
C      1  0.5072280000000  0.4794230000000  0.4268950000000 1.0
C      1  0.5354550000000  0.4780370000000  0.4329720000000 1.0
C      1  0.5022590000000  0.5117260000000  0.5126060000000 1.0
C      1  0.4961260000000  0.4293580000000  0.5417000000000 1.0
C      1  0.4258970000000  0.5590200000000  0.4622900000000 1.0
C      1  0.5397290000000  0.4336570000000  0.4689890000000 1.0
C      1  0.5530690000000  0.4331190000000  0.4951070000000 1.0
C      1  0.5803950000000  0.5288410000000  0.4538370000000 1.0
C      1  0.4627740000000  0.5819620000000  0.5381540000000 1.0
C      1  0.5876860000000  0.4886360000000  0.4630170000000 1.0
C      1  0.5240080000000  0.5779040000000  0.5011720000000 1.0
C      1  0.4885410000000  0.5752740000000  0.5479970000000 1.0
C      1  0.4666430000000  0.5446160000000  0.4283210000000 1.0
C      1  0.5082630000000  0.5674360000000  0.5247040000000 1.0
C      1  0.4530970000000  0.4765270000000  0.4353180000000 1.0
C      1  0.4552380000000  0.4845090000000  0.5152270000000 1.0
C      1  0.5759350000000  0.5315380000000  0.5271590000000 1.0
C      1  0.5511010000000  0.5683330000000  0.4995450000000 1.0
C      1  0.4434750000000  0.5166460000000  0.4903570000000 1.0
C      1  0.5390370000000  0.4492070000000  0.5425460000000 1.0
C      1  0.4098230000000  0.4863200000000  0.5199750000000 1.0
C      1  0.5318560000000  0.5504070000000  0.5364450000000 1.0
C      1  0.5033950000000  0.4819610000000  0.5173350000000 1.0
C      1  0.5488230000000  0.5649920000000  0.4696250000000 1.0
C      1  0.4972550000000  0.5641320000000  0.4609390000000 1.0
C      1  0.4665650000000  0.4831430000000  0.4646460000000 1.0
C      1  0.4844550000000  0.4624560000000  0.4746380000000 1.0
C      1  0.5586110000000  0.5553610000000  0.5242790000000 1.0
C      1  0.5285200000000  0.5225240000000  0.5211930000000 1.0
C      1  0.5400700000000  0.4753860000000  0.5792400000000 1.0
C      1  0.4620050000000  0.5740830000000  0.5105210000000 1.0
C      1  0.5086520000000  0.5098930000000  0.5849670000000 1.0
C      1  0.5372190000000  0.5023230000000  0.5864740000000 1.0
C      1  0.5056150000000  0.4687200000000  0.4905480000000 1.0
C      1  0.4925290000000  0.4537430000000  0.4281240000000 1.0
END
