TITL C-93043-5099-5 180.730458509633 125000 -339.425966126356 0 0 51 (C1) n - 1
REM
REM in /rds/project/t2_vol4/rds-t2-cs072/BORA/CARBON/from-Arr/AIRSS/Generating-Clusters/GAP-ML-2020/Only-C1/SD-CG/HFTN-CG
REM
REM
REM
REM
REM
REM ./C.cell (11c1c37f851c82e70ff6c80c92926a4b)
REM AIRSS Version 0.9.1 bugfix July 2018 build 013d7b7c2542+ Fri, 06 Jul 2018 19:26:36 +0100
REM compiler GCC version 9.3.0
REM options -cpp -mtune=generic -march=x86-64 -g -O0
REM seed -1690723968 1169883689 317489071 -783639513 -1051071905 -1579775054 691430067 -1948341306 955413549 -705875054 -1239868484 -2050216641 1319244020 1580993813 -527314169 -1293207593 -1386939654 -399145615 1112024257 2112419558 -2074654205 -992827724 321732225 -1178447843 944367309 1727086013 1119920372 -706396852 1580160639 526957067 716937231 2124267548 1826472782
REM
CELL 1.54180   50.00000   50.00000   50.00000   90.00000   90.00000   90.00000
LATT -1
SFAC C  
C      1  0.4970440000000  0.4576500000000  0.5524970000000 1.0
C      1  0.5259560000000  0.4616780000000  0.4485330000000 1.0
C      1  0.5287860000000  0.4782560000000  0.4998290000000 1.0
C      1  0.4847920000000  0.4979940000000  0.5703210000000 1.0
C      1  0.4631400000000  0.5134860000000  0.5284310000000 1.0
C      1  0.4869160000000  0.5391960000000  0.4794630000000 1.0
C      1  0.5467200000000  0.5483250000000  0.4667090000000 1.0
C      1  0.4450220000000  0.5072260000000  0.4724880000000 1.0
C      1  0.5048940000000  0.5403240000000  0.5444830000000 1.0
C      1  0.5251720000000  0.5676370000000  0.4721440000000 1.0
C      1  0.4800440000000  0.4799390000000  0.4448080000000 1.0
C      1  0.5329650000000  0.4671700000000  0.5275650000000 1.0
C      1  0.4972310000000  0.4358240000000  0.4936630000000 1.0
C      1  0.4620680000000  0.4828850000000  0.4674760000000 1.0
C      1  0.4486250000000  0.5259090000000  0.5075600000000 1.0
C      1  0.4555140000000  0.4544800000000  0.4756340000000 1.0
C      1  0.5029830000000  0.4672900000000  0.4867450000000 1.0
C      1  0.5050370000000  0.5530000000000  0.4585220000000 1.0
C      1  0.5207600000000  0.5670900000000  0.4999460000000 1.0
C      1  0.5403250000000  0.5509200000000  0.5131760000000 1.0
C      1  0.5503700000000  0.4872830000000  0.4820410000000 1.0
C      1  0.4371480000000  0.4794510000000  0.5087670000000 1.0
C      1  0.5382130000000  0.4853830000000  0.4564140000000 1.0
C      1  0.5278760000000  0.4891700000000  0.5477980000000 1.0
C      1  0.4818620000000  0.4869180000000  0.4904230000000 1.0
C      1  0.4798110000000  0.4397060000000  0.4718090000000 1.0
C      1  0.4622140000000  0.4831390000000  0.5676450000000 1.0
C      1  0.4985950000000  0.4598820000000  0.4565530000000 1.0
C      1  0.4996390000000  0.5109820000000  0.4833310000000 1.0
C      1  0.4316930000000  0.5041310000000  0.4968040000000 1.0
C      1  0.4949330000000  0.5054160000000  0.4371800000000 1.0
C      1  0.5170540000000  0.5070020000000  0.5052910000000 1.0
C      1  0.5078560000000  0.4254840000000  0.5155660000000 1.0
C      1  0.5093160000000  0.4797040000000  0.5684410000000 1.0
C      1  0.5173640000000  0.5078220000000  0.4562250000000 1.0
C      1  0.5152170000000  0.4454370000000  0.5337910000000 1.0
C      1  0.5635080000000  0.5058010000000  0.5232630000000 1.0
C      1  0.5332750000000  0.5383000000000  0.5379290000000 1.0
C      1  0.4935720000000  0.5587030000000  0.5026500000000 1.0
C      1  0.4898600000000  0.5567760000000  0.5287860000000 1.0
C      1  0.4710880000000  0.4690140000000  0.5446590000000 1.0
C      1  0.5633350000000  0.5096380000000  0.4959680000000 1.0
C      1  0.5558520000000  0.5373530000000  0.4919240000000 1.0
C      1  0.5266720000000  0.5346050000000  0.4509800000000 1.0
C      1  0.4804600000000  0.4928370000000  0.4191320000000 1.0
C      1  0.4588360000000  0.5319610000000  0.4810300000000 1.0
C      1  0.5456140000000  0.5121810000000  0.5424700000000 1.0
C      1  0.4644820000000  0.4846710000000  0.5194050000000 1.0
C      1  0.4867890000000  0.5175610000000  0.5470360000000 1.0
C      1  0.4371860000000  0.4555190000000  0.4951790000000 1.0
C      1  0.5063170000000  0.5018890000000  0.5315170000000 1.0
END
