TITL C-93383-5180-4 7.30858581626877 125000 -327.508942864093 0 0 50 (C1) n - 1
REM
REM in /rds/project/t2_vol4/rds-t2-cs072/BORA/CARBON/from-Arr/AIRSS/Generating-Clusters/GAP-ML-2020/Only-C1/SD-CG/HFTN-CG
REM
REM
REM
REM
REM
REM ./C.cell (11c1c37f851c82e70ff6c80c92926a4b)
REM AIRSS Version 0.9.1 bugfix July 2018 build 013d7b7c2542+ Fri, 06 Jul 2018 19:26:36 +0100
REM compiler GCC version 9.3.0
REM options -cpp -mtune=generic -march=x86-64 -g -O0
REM seed 2051583004 1725295669 158305169 1911948892 534022127 -542587797 457521975 849763257 191197867 713484244 -80058098 1673807347 95162842 -1442638752 1599169604 1396257310 638015192 612461700 342512695 1907930061 -868494987 -1061471793 -1612529471 -426279086 -419413585 2132363976 491099444 1683550448 -278609648 -168732087 -1252724017 -715812343 -1737266072
REM
CELL 1.54180   50.00000   50.00000   50.00000   90.00000   90.00000   90.00000
LATT -1
SFAC C  
C      1  0.4985050000000  0.5507140000000  0.5425040000000 1.0
C      1  0.4498190000000  0.5376470000000  0.5005150000000 1.0
C      1  0.5414860000000  0.5228210000000  0.5433480000000 1.0
C      1  0.4705870000000  0.4883950000000  0.4403260000000 1.0
C      1  0.5332580000000  0.4472560000000  0.4972100000000 1.0
C      1  0.5590200000000  0.5047750000000  0.4527750000000 1.0
C      1  0.5238270000000  0.4925790000000  0.4952680000000 1.0
C      1  0.5538400000000  0.4881070000000  0.5003680000000 1.0
C      1  0.4726650000000  0.4839810000000  0.5511280000000 1.0
C      1  0.5219600000000  0.5426790000000  0.4787840000000 1.0
C      1  0.4795850000000  0.5615350000000  0.4668660000000 1.0
C      1  0.5327840000000  0.4689510000000  0.5388940000000 1.0
C      1  0.4951540000000  0.4572070000000  0.4674200000000 1.0
C      1  0.5325580000000  0.5507710000000  0.5037720000000 1.0
C      1  0.5181490000000  0.5211360000000  0.4284370000000 1.0
C      1  0.4782480000000  0.5294990000000  0.5426850000000 1.0
C      1  0.4941810000000  0.4722900000000  0.4435170000000 1.0
C      1  0.4847820000000  0.5131850000000  0.4788750000000 1.0
C      1  0.4816840000000  0.4483970000000  0.5358950000000 1.0
C      1  0.4466750000000  0.4769220000000  0.4511290000000 1.0
C      1  0.5122210000000  0.4359920000000  0.5117130000000 1.0
C      1  0.5112840000000  0.4486090000000  0.5389040000000 1.0
C      1  0.5224370000000  0.4649620000000  0.4756960000000 1.0
C      1  0.5673330000000  0.5132920000000  0.5032520000000 1.0
C      1  0.4424690000000  0.4871210000000  0.5031650000000 1.0
C      1  0.5489960000000  0.4632050000000  0.5153070000000 1.0
C      1  0.4775930000000  0.5198640000000  0.5712480000000 1.0
C      1  0.4971590000000  0.5326180000000  0.4394890000000 1.0
C      1  0.5244350000000  0.5450330000000  0.5500490000000 1.0
C      1  0.4751070000000  0.4933450000000  0.5004570000000 1.0
C      1  0.5220060000000  0.4765190000000  0.4480880000000 1.0
C      1  0.5306480000000  0.5038170000000  0.4475580000000 1.0
C      1  0.4688330000000  0.5400900000000  0.4804030000000 1.0
C      1  0.4388580000000  0.4681520000000  0.5234840000000 1.0
C      1  0.5151750000000  0.5142400000000  0.4776250000000 1.0
C      1  0.4477980000000  0.4705820000000  0.4769750000000 1.0
C      1  0.4841010000000  0.4417980000000  0.5075010000000 1.0
C      1  0.5127610000000  0.4952530000000  0.5218350000000 1.0
C      1  0.4729580000000  0.4955190000000  0.5770810000000 1.0
C      1  0.5507950000000  0.5314940000000  0.5162090000000 1.0
C      1  0.5670440000000  0.5014840000000  0.4773430000000 1.0
C      1  0.5303260000000  0.4973370000000  0.5444920000000 1.0
C      1  0.4583490000000  0.4620580000000  0.5415780000000 1.0
C      1  0.4761750000000  0.4620900000000  0.4881150000000 1.0
C      1  0.4853920000000  0.4998110000000  0.5278630000000 1.0
C      1  0.5040290000000  0.5532300000000  0.4590610000000 1.0
C      1  0.4377370000000  0.5151010000000  0.5115040000000 1.0
C      1  0.5187710000000  0.5614750000000  0.5269200000000 1.0
C      1  0.4523100000000  0.5329060000000  0.5275280000000 1.0
C      1  0.4781330000000  0.5141570000000  0.4498400000000 1.0
END
