TITL C-93027-7368-6 13.8452679174667 125000 -662.784764671764 0 0 93 (C1) n - 1
REM
REM in /rds/project/t2_vol4/rds-t2-cs072/BORA/CARBON/from-Arr/AIRSS/Generating-Clusters/GAP-ML-2020/Only-C1/SD-CG/HFTN-CG
REM
REM
REM
REM
REM
REM ./C.cell (11c1c37f851c82e70ff6c80c92926a4b)
REM AIRSS Version 0.9.1 bugfix July 2018 build 013d7b7c2542+ Fri, 06 Jul 2018 19:26:36 +0100
REM compiler GCC version 9.3.0
REM options -cpp -mtune=generic -march=x86-64 -g -O0
REM seed 576674679 -1288782365 1117067879 865702266 1874444378 153701685 10144522 1131633745 956838908 2086729746 -116381923 1037941107 354644495 2030700468 -1661827393 210768537 1585020587 955475659 1321430345 -1802177821 535985142 -1503967113 1925341810 302399122 -1332144359 -130575892 -1275134544 -1385121820 -211876720 1619747582 32670912 1105050898 -1835184757
REM
CELL 1.54180   50.00000   50.00000   50.00000   90.00000   90.00000   90.00000
LATT -1
SFAC C  
C      1  0.5517830000000  0.5616430000000  0.4700130000000 1.0
C      1  0.4952470000000  0.5779550000000  0.5583950000000 1.0
C      1  0.4367830000000  0.4969100000000  0.5498640000000 1.0
C      1  0.4699490000000  0.4865950000000  0.4413660000000 1.0
C      1  0.5576620000000  0.5173290000000  0.5476800000000 1.0
C      1  0.5387020000000  0.4432520000000  0.4450310000000 1.0
C      1  0.4352180000000  0.5597770000000  0.4964600000000 1.0
C      1  0.5380670000000  0.4257550000000  0.4684240000000 1.0
C      1  0.4432190000000  0.4999840000000  0.4446030000000 1.0
C      1  0.5076540000000  0.5731960000000  0.4630540000000 1.0
C      1  0.5210200000000  0.5083890000000  0.5008910000000 1.0
C      1  0.4243830000000  0.4925730000000  0.4663980000000 1.0
C      1  0.4768860000000  0.4753310000000  0.5658480000000 1.0
C      1  0.4658810000000  0.5221760000000  0.5791800000000 1.0
C      1  0.4830730000000  0.4764420000000  0.5136640000000 1.0
C      1  0.5442940000000  0.4876380000000  0.4314450000000 1.0
C      1  0.4939490000000  0.5177370000000  0.5375440000000 1.0
C      1  0.4596260000000  0.5339610000000  0.4758220000000 1.0
C      1  0.5809650000000  0.4945520000000  0.5055210000000 1.0
C      1  0.5143220000000  0.4515530000000  0.4314590000000 1.0
C      1  0.4677460000000  0.4618320000000  0.5408720000000 1.0
C      1  0.4333550000000  0.4593600000000  0.5106630000000 1.0
C      1  0.5380590000000  0.5374090000000  0.5530890000000 1.0
C      1  0.5157290000000  0.5832090000000  0.4893770000000 1.0
C      1  0.4169630000000  0.5204320000000  0.4722860000000 1.0
C      1  0.5703230000000  0.5175170000000  0.4618140000000 1.0
C      1  0.4843490000000  0.5335100000000  0.5150120000000 1.0
C      1  0.5300970000000  0.5337280000000  0.4371250000000 1.0
C      1  0.4475330000000  0.5635110000000  0.5214550000000 1.0
C      1  0.4918160000000  0.4176290000000  0.4562970000000 1.0
C      1  0.5798860000000  0.4953460000000  0.4761220000000 1.0
C      1  0.4967090000000  0.4088750000000  0.4974230000000 1.0
C      1  0.5306160000000  0.5585010000000  0.4516880000000 1.0
C      1  0.4843110000000  0.5412450000000  0.4433070000000 1.0
C      1  0.4153570000000  0.5381410000000  0.4943580000000 1.0
C      1  0.5199020000000  0.4537610000000  0.5547490000000 1.0
C      1  0.4890820000000  0.4399710000000  0.4394550000000 1.0
C      1  0.5053250000000  0.4943460000000  0.5236900000000 1.0
C      1  0.5041940000000  0.5294710000000  0.4922300000000 1.0
C      1  0.4389360000000  0.4727710000000  0.4837990000000 1.0
C      1  0.4622420000000  0.5621440000000  0.4812760000000 1.0
C      1  0.5480260000000  0.4937300000000  0.5618660000000 1.0
C      1  0.5142820000000  0.4127150000000  0.4736800000000 1.0
C      1  0.4607830000000  0.5191340000000  0.5029090000000 1.0
C      1  0.5230280000000  0.4720770000000  0.5320710000000 1.0
C      1  0.5125580000000  0.5241920000000  0.5639490000000 1.0
C      1  0.5779460000000  0.4666280000000  0.5115720000000 1.0
C      1  0.4824870000000  0.4945040000000  0.4688550000000 1.0
C      1  0.4944050000000  0.4581390000000  0.4943850000000 1.0
C      1  0.5688500000000  0.5406840000000  0.4778090000000 1.0
C      1  0.4695470000000  0.4338060000000  0.5295380000000 1.0
C      1  0.4809170000000  0.5605860000000  0.5716550000000 1.0
C      1  0.4918310000000  0.5349370000000  0.5815630000000 1.0
C      1  0.5034770000000  0.5249700000000  0.4309420000000 1.0
C      1  0.5218160000000  0.4972320000000  0.5720790000000 1.0
C      1  0.5738350000000  0.4516820000000  0.4876360000000 1.0
C      1  0.4750550000000  0.5644650000000  0.5098120000000 1.0
C      1  0.5569200000000  0.4652330000000  0.4438320000000 1.0
C      1  0.4750320000000  0.4116710000000  0.4786940000000 1.0
C      1  0.4403120000000  0.4724720000000  0.5354390000000 1.0
C      1  0.5505560000000  0.5139970000000  0.4404930000000 1.0
C      1  0.4993420000000  0.5820220000000  0.5124490000000 1.0
C      1  0.5477620000000  0.4676390000000  0.5510440000000 1.0
C      1  0.4868210000000  0.5236360000000  0.4677260000000 1.0
C      1  0.5535480000000  0.4320520000000  0.4917700000000 1.0
C      1  0.5624690000000  0.4535310000000  0.5316890000000 1.0
C      1  0.5277730000000  0.4886460000000  0.4836970000000 1.0
C      1  0.4080240000000  0.5272950000000  0.5187260000000 1.0
C      1  0.5749420000000  0.4692480000000  0.4653890000000 1.0
C      1  0.4584980000000  0.4970920000000  0.5694220000000 1.0
C      1  0.4952400000000  0.4208460000000  0.5234150000000 1.0
C      1  0.4664090000000  0.4568040000000  0.4440440000000 1.0
C      1  0.5196060000000  0.4314750000000  0.5349130000000 1.0
C      1  0.4392330000000  0.5266120000000  0.4555940000000 1.0
C      1  0.4403470000000  0.5472680000000  0.5444350000000 1.0
C      1  0.4538080000000  0.4280580000000  0.4831000000000 1.0
C      1  0.5055410000000  0.4752040000000  0.4756250000000 1.0
C      1  0.4810010000000  0.5663900000000  0.4571490000000 1.0
C      1  0.4555390000000  0.5467720000000  0.5675160000000 1.0
C      1  0.5128420000000  0.5778840000000  0.5375160000000 1.0
C      1  0.5374270000000  0.5620830000000  0.5386800000000 1.0
C      1  0.4957950000000  0.4974500000000  0.4257600000000 1.0
C      1  0.4497860000000  0.4507780000000  0.4663560000000 1.0
C      1  0.5698080000000  0.5407890000000  0.5068220000000 1.0
C      1  0.4653410000000  0.4919930000000  0.4942270000000 1.0
C      1  0.5428920000000  0.5757220000000  0.4927780000000 1.0
C      1  0.5171560000000  0.4792770000000  0.4238770000000 1.0
C      1  0.5449070000000  0.4340710000000  0.5198620000000 1.0
C      1  0.4486510000000  0.4351980000000  0.5100030000000 1.0
C      1  0.5733910000000  0.5172590000000  0.5222830000000 1.0
C      1  0.4249110000000  0.5224690000000  0.5397550000000 1.0
C      1  0.5535860000000  0.5627250000000  0.5155780000000 1.0
C      1  0.5047250000000  0.4733990000000  0.5712700000000 1.0
END
