TITL C-93386-4964-2 0.0354996209233066 125000 -207.586567694974 0 0 32 (C1) n - 1
REM
REM in /rds/project/t2_vol4/rds-t2-cs072/BORA/CARBON/from-Arr/AIRSS/Generating-Clusters/GAP-ML-2020/Only-C1/SD-CG/HFTN-CG
REM
REM
REM
REM
REM
REM ./C.cell (11c1c37f851c82e70ff6c80c92926a4b)
REM AIRSS Version 0.9.1 bugfix July 2018 build 013d7b7c2542+ Fri, 06 Jul 2018 19:26:36 +0100
REM compiler GCC version 9.3.0
REM options -cpp -mtune=generic -march=x86-64 -g -O0
REM seed -1621703307 -1105742446 -1877145405 1028380199 -1302525291 1029622653 1466191646 -1871939912 1528684211 1988265483 1895445382 289132198 143127156 -1850676870 1622524733 -907551644 -1862924093 247564789 -1187939662 -1139139670 -1400222924 -1362168214 -1444672252 595628282 -2144981624 -898639182 347796746 -890778467 919485547 791054420 -382876711 1228281492 -34863621
REM
CELL 1.54180   50.00000   50.00000   50.00000   90.00000   90.00000   90.00000
LATT -1
SFAC C  
C      1  0.5299340000000  0.5465880000000  0.4771890000000 1.0
C      1  0.5542010000000  0.4901700000000  0.5173380000000 1.0
C      1  0.5018180000000  0.5303470000000  0.5289390000000 1.0
C      1  0.4472120000000  0.5120030000000  0.5179620000000 1.0
C      1  0.4914900000000  0.5144070000000  0.5060340000000 1.0
C      1  0.5075750000000  0.5010570000000  0.5393140000000 1.0
C      1  0.4746260000000  0.4450200000000  0.5043120000000 1.0
C      1  0.5500250000000  0.4628710000000  0.5119160000000 1.0
C      1  0.4786420000000  0.4876350000000  0.4641520000000 1.0
C      1  0.4980420000000  0.4602460000000  0.5104940000000 1.0
C      1  0.5246850000000  0.4543300000000  0.5044490000000 1.0
C      1  0.4915780000000  0.5273370000000  0.4592510000000 1.0
C      1  0.4591020000000  0.4855780000000  0.5214940000000 1.0
C      1  0.4648840000000  0.4645640000000  0.4608090000000 1.0
C      1  0.5378980000000  0.5267910000000  0.4948750000000 1.0
C      1  0.5456290000000  0.4593360000000  0.4838170000000 1.0
C      1  0.5348710000000  0.5038030000000  0.5332620000000 1.0
C      1  0.4572590000000  0.4525470000000  0.4837230000000 1.0
C      1  0.4397650000000  0.5303900000000  0.5368100000000 1.0
C      1  0.5325120000000  0.4944280000000  0.4512400000000 1.0
C      1  0.4507700000000  0.4614890000000  0.5102720000000 1.0
C      1  0.4590550000000  0.5470210000000  0.5457380000000 1.0
C      1  0.4673160000000  0.5139680000000  0.4689550000000 1.0
C      1  0.5493990000000  0.4846790000000  0.4706030000000 1.0
C      1  0.5559650000000  0.5036070000000  0.4918310000000 1.0
C      1  0.5141010000000  0.5079510000000  0.4890760000000 1.0
C      1  0.4846110000000  0.5483150000000  0.5420560000000 1.0
C      1  0.5048100000000  0.5465610000000  0.4713800000000 1.0
C      1  0.5312480000000  0.5305390000000  0.5239400000000 1.0
C      1  0.4652220000000  0.5185490000000  0.4962880000000 1.0
C      1  0.5067070000000  0.5010340000000  0.4612570000000 1.0
C      1  0.4890470000000  0.4868370000000  0.5212230000000 1.0
END
