TITL C-93021-4853-1 132.81556264858 125000 -849.215538229294 0 0 123 (C1) n - 1
REM
REM in /rds/project/t2_vol4/rds-t2-cs072/BORA/CARBON/from-Arr/AIRSS/Generating-Clusters/GAP-ML-2020/Only-C1/SD-CG/HFTN-CG
REM
REM
REM
REM
REM
REM ./C.cell (11c1c37f851c82e70ff6c80c92926a4b)
REM AIRSS Version 0.9.1 bugfix July 2018 build 013d7b7c2542+ Fri, 06 Jul 2018 19:26:36 +0100
REM compiler GCC version 9.3.0
REM options -cpp -mtune=generic -march=x86-64 -g -O0
REM seed 1802364126 -803044368 2043548781 131899803 -1769120754 -1086674959 -1706387611 2125315754 -657633968 550126759 330737046 -1981441669 362059230 1259723571 290021422 1674578622 -1349416627 -68801699 -1097108042 -1223046354 162245928 1380814310 -854727107 1667705727 -873501107 -1656189189 -306573801 -1512945581 1073790731 -19072758 2140708808 -870942554 1084364977
REM
CELL 1.54180   50.00000   50.00000   50.00000   90.00000   90.00000   90.00000
LATT -1
SFAC C  
C      1  0.5830150000000  0.5287670000000  0.5062630000000 1.0
C      1  0.5544010000000  0.5044860000000  0.4853480000000 1.0
C      1  0.5058870000000  0.5276430000000  0.4684510000000 1.0
C      1  0.5046580000000  0.4688440000000  0.5858180000000 1.0
C      1  0.5438520000000  0.5843130000000  0.5274370000000 1.0
C      1  0.5046140000000  0.3971500000000  0.5266620000000 1.0
C      1  0.5739280000000  0.4561280000000  0.4911890000000 1.0
C      1  0.5237790000000  0.4678390000000  0.4673570000000 1.0
C      1  0.4873370000000  0.5521430000000  0.5899710000000 1.0
C      1  0.5546510000000  0.5572160000000  0.4671220000000 1.0
C      1  0.5954400000000  0.5096010000000  0.4621190000000 1.0
C      1  0.5519340000000  0.5608270000000  0.5430830000000 1.0
C      1  0.5609020000000  0.5400710000000  0.4414370000000 1.0
C      1  0.5652240000000  0.5826510000000  0.4810380000000 1.0
C      1  0.5096940000000  0.5811530000000  0.4786360000000 1.0
C      1  0.5576980000000  0.5927670000000  0.5032150000000 1.0
C      1  0.4976650000000  0.4473320000000  0.5054330000000 1.0
C      1  0.4557740000000  0.4246460000000  0.4504760000000 1.0
C      1  0.4380480000000  0.4351510000000  0.5245100000000 1.0
C      1  0.5887090000000  0.5327440000000  0.5340120000000 1.0
C      1  0.4564400000000  0.4598950000000  0.4829310000000 1.0
C      1  0.5391280000000  0.5277930000000  0.4274180000000 1.0
C      1  0.4730930000000  0.4680330000000  0.4580970000000 1.0
C      1  0.4864940000000  0.4928510000000  0.4927320000000 1.0
C      1  0.4268590000000  0.5330760000000  0.5581040000000 1.0
C      1  0.4322030000000  0.4765360000000  0.4826040000000 1.0
C      1  0.4220200000000  0.4802760000000  0.5119380000000 1.0
C      1  0.4717820000000  0.5788030000000  0.5022720000000 1.0
C      1  0.4646950000000  0.5327630000000  0.5243180000000 1.0
C      1  0.5053850000000  0.4160410000000  0.4497290000000 1.0
C      1  0.5300710000000  0.4181770000000  0.4897410000000 1.0
C      1  0.4390900000000  0.4441030000000  0.4378970000000 1.0
C      1  0.4798740000000  0.4938710000000  0.4098190000000 1.0
C      1  0.4665640000000  0.5181090000000  0.4929110000000 1.0
C      1  0.4139430000000  0.5205450000000  0.4892950000000 1.0
C      1  0.5482750000000  0.5102610000000  0.5805560000000 1.0
C      1  0.5122560000000  0.5649350000000  0.4363860000000 1.0
C      1  0.4973580000000  0.4707930000000  0.4109370000000 1.0
C      1  0.5313080000000  0.5002390000000  0.4370020000000 1.0
C      1  0.4749750000000  0.5069810000000  0.5783200000000 1.0
C      1  0.4270690000000  0.4661370000000  0.4518190000000 1.0
C      1  0.4952330000000  0.4833020000000  0.4649550000000 1.0
C      1  0.4533650000000  0.4543090000000  0.4151000000000 1.0
C      1  0.4330000000000  0.5328450000000  0.5291490000000 1.0
C      1  0.4172110000000  0.5089050000000  0.5146300000000 1.0
C      1  0.5489820000000  0.4850410000000  0.5618350000000 1.0
C      1  0.5247990000000  0.4498990000000  0.4920470000000 1.0
C      1  0.5093060000000  0.5398940000000  0.5512300000000 1.0
C      1  0.4797030000000  0.4074750000000  0.5225270000000 1.0
C      1  0.4297440000000  0.5101410000000  0.5738760000000 1.0
C      1  0.5148470000000  0.5858540000000  0.5271480000000 1.0
C      1  0.5278610000000  0.4095050000000  0.5195040000000 1.0
C      1  0.4426580000000  0.5762100000000  0.4980830000000 1.0
C      1  0.4907390000000  0.5726280000000  0.5731920000000 1.0
C      1  0.5117360000000  0.5398030000000  0.5809840000000 1.0
C      1  0.5374710000000  0.4273330000000  0.5397320000000 1.0
C      1  0.4566810000000  0.4277290000000  0.4802990000000 1.0
C      1  0.4354830000000  0.4294210000000  0.4981420000000 1.0
C      1  0.5150410000000  0.5412870000000  0.4208110000000 1.0
C      1  0.5043190000000  0.4109080000000  0.4772950000000 1.0
C      1  0.5832330000000  0.5234880000000  0.4448000000000 1.0
C      1  0.5504120000000  0.4202200000000  0.4675420000000 1.0
C      1  0.4892300000000  0.5203200000000  0.4216140000000 1.0
C      1  0.4335430000000  0.4884410000000  0.4354770000000 1.0
C      1  0.4392830000000  0.5618560000000  0.4455350000000 1.0
C      1  0.4601550000000  0.4235430000000  0.5398610000000 1.0
C      1  0.5639990000000  0.5325720000000  0.5764490000000 1.0
C      1  0.4397580000000  0.5352500000000  0.4348870000000 1.0
C      1  0.4380470000000  0.5075390000000  0.4781620000000 1.0
C      1  0.5566670000000  0.4465700000000  0.5326020000000 1.0
C      1  0.4141510000000  0.5488280000000  0.4873410000000 1.0
C      1  0.4757480000000  0.4686450000000  0.5036410000000 1.0
C      1  0.4518100000000  0.4681920000000  0.5534420000000 1.0
C      1  0.5099330000000  0.5011140000000  0.5092730000000 1.0
C      1  0.4643740000000  0.5655450000000  0.4301360000000 1.0
C      1  0.4667580000000  0.5325370000000  0.5906000000000 1.0
C      1  0.4803700000000  0.4459600000000  0.4152900000000 1.0
C      1  0.4744540000000  0.5618810000000  0.5255060000000 1.0
C      1  0.5289180000000  0.4657070000000  0.5709540000000 1.0
C      1  0.5006370000000  0.5917670000000  0.5034060000000 1.0
C      1  0.5425160000000  0.4899130000000  0.4628900000000 1.0
C      1  0.5297220000000  0.4544050000000  0.4408730000000 1.0
C      1  0.4308490000000  0.4619680000000  0.5325200000000 1.0
C      1  0.5565920000000  0.5354930000000  0.4908880000000 1.0
C      1  0.5489310000000  0.5059180000000  0.5364860000000 1.0
C      1  0.4817870000000  0.5377290000000  0.4773250000000 1.0
C      1  0.4956280000000  0.4977910000000  0.5351010000000 1.0
C      1  0.4402630000000  0.5362250000000  0.5822060000000 1.0
C      1  0.4994080000000  0.4960270000000  0.5904350000000 1.0
C      1  0.4993350000000  0.4532530000000  0.5344740000000 1.0
C      1  0.4653460000000  0.4414310000000  0.5620550000000 1.0
C      1  0.5242030000000  0.4742640000000  0.4217670000000 1.0
C      1  0.4334230000000  0.5124410000000  0.4489380000000 1.0
C      1  0.5911810000000  0.4764300000000  0.5025950000000 1.0
C      1  0.5876710000000  0.4802470000000  0.5306920000000 1.0
C      1  0.5866440000000  0.5029500000000  0.4893840000000 1.0
C      1  0.4783960000000  0.4741760000000  0.5342770000000 1.0
C      1  0.4256610000000  0.5575270000000  0.5122410000000 1.0
C      1  0.5696830000000  0.4659320000000  0.5480390000000 1.0
C      1  0.5033940000000  0.5076750000000  0.4481710000000 1.0
C      1  0.5477210000000  0.4616230000000  0.5071340000000 1.0
C      1  0.5335910000000  0.5408230000000  0.5074630000000 1.0
C      1  0.5406390000000  0.4921180000000  0.5098190000000 1.0
C      1  0.4918100000000  0.4458020000000  0.5739570000000 1.0
C      1  0.5793410000000  0.5069260000000  0.5367710000000 1.0
C      1  0.5174830000000  0.4436490000000  0.5552490000000 1.0
C      1  0.4839280000000  0.5677730000000  0.4745960000000 1.0
C      1  0.4974260000000  0.5680630000000  0.5445790000000 1.0
C      1  0.4505080000000  0.4908190000000  0.5722470000000 1.0
C      1  0.4657850000000  0.5381500000000  0.4217020000000 1.0
C      1  0.5288140000000  0.5709500000000  0.4600240000000 1.0
C      1  0.5210520000000  0.5147550000000  0.5900020000000 1.0
C      1  0.4842570000000  0.5213080000000  0.5466200000000 1.0
C      1  0.5359040000000  0.5351750000000  0.5364150000000 1.0
C      1  0.5321950000000  0.4265450000000  0.4448860000000 1.0
C      1  0.4816200000000  0.4249070000000  0.4362720000000 1.0
C      1  0.4863590000000  0.5732850000000  0.4446750000000 1.0
C      1  0.5126110000000  0.5270510000000  0.4962010000000 1.0
C      1  0.4827220000000  0.4202100000000  0.4946660000000 1.0
C      1  0.4305850000000  0.5676330000000  0.4712100000000 1.0
C      1  0.4526720000000  0.4826190000000  0.4143310000000 1.0
C      1  0.5725820000000  0.4354480000000  0.4735030000000 1.0
C      1  0.5740130000000  0.5484150000000  0.5548540000000 1.0
END
