TITL C-95747-4402-8 -11.6085563590877 125000 -458.392102134278 0 0 67 (C1) n - 1
REM
REM in /rds/project/t2_vol4/rds-t2-cs072/BORA/CARBON/from-Arr/AIRSS/Generating-Clusters/GAP-ML-2020/Only-C1/SD-CG/HFTN-CG
REM
REM
REM
REM
REM
REM ./C.cell (11c1c37f851c82e70ff6c80c92926a4b)
REM AIRSS Version 0.9.1 bugfix July 2018 build 013d7b7c2542+ Fri, 06 Jul 2018 19:26:36 +0100
REM compiler GCC version 9.3.0
REM options -cpp -mtune=generic -march=x86-64 -g -O0
REM seed 703559852 2062438071 388231940 1496873105 70202676 943609912 1727331289 -127394769 -93862427 1533504343 1868757559 284108603 -2130339232 -1336772769 -1491792469 2050911397 1479832834 -1660102714 -2101885897 -586124054 1689701647 -1189039206 -1154127585 446541492 -1047662176 960898813 -1419571566 1150679666 868258902 -1178646861 -45366584 371199449 1322469455
REM
CELL 1.54180   50.00000   50.00000   50.00000   90.00000   90.00000   90.00000
LATT -1
SFAC C  
C      1  0.5066780000000  0.5130460000000  0.5667750000000 1.0
C      1  0.5512600000000  0.4886620000000  0.4716100000000 1.0
C      1  0.5774760000000  0.5050170000000  0.5063940000000 1.0
C      1  0.4912400000000  0.4881540000000  0.5618690000000 1.0
C      1  0.4687510000000  0.4607420000000  0.4357540000000 1.0
C      1  0.4645650000000  0.4275190000000  0.5012070000000 1.0
C      1  0.4392640000000  0.4911570000000  0.5071910000000 1.0
C      1  0.5099100000000  0.5931620000000  0.5127960000000 1.0
C      1  0.5225610000000  0.4998780000000  0.4751730000000 1.0
C      1  0.4807440000000  0.4782860000000  0.4183080000000 1.0
C      1  0.5105990000000  0.4304440000000  0.5190930000000 1.0
C      1  0.5494230000000  0.4539140000000  0.5344600000000 1.0
C      1  0.5202790000000  0.5460630000000  0.4966280000000 1.0
C      1  0.4710200000000  0.4965420000000  0.4994960000000 1.0
C      1  0.4557240000000  0.5147790000000  0.4579410000000 1.0
C      1  0.4446080000000  0.5341250000000  0.4754090000000 1.0
C      1  0.5202550000000  0.4284000000000  0.4940580000000 1.0
C      1  0.4545870000000  0.5157030000000  0.5415530000000 1.0
C      1  0.5636450000000  0.4578950000000  0.5080370000000 1.0
C      1  0.5672450000000  0.5348990000000  0.4727570000000 1.0
C      1  0.5778650000000  0.4807200000000  0.5197180000000 1.0
C      1  0.4766100000000  0.4477670000000  0.5440810000000 1.0
C      1  0.4495450000000  0.5400760000000  0.5555070000000 1.0
C      1  0.5627300000000  0.4778450000000  0.5444620000000 1.0
C      1  0.4822140000000  0.4298460000000  0.5228690000000 1.0
C      1  0.5048510000000  0.5365530000000  0.5490670000000 1.0
C      1  0.4734000000000  0.5343670000000  0.4452090000000 1.0
C      1  0.4644510000000  0.4903260000000  0.5527080000000 1.0
C      1  0.4339550000000  0.5151190000000  0.5191950000000 1.0
C      1  0.5286980000000  0.4465780000000  0.4756180000000 1.0
C      1  0.5730190000000  0.5064930000000  0.4772800000000 1.0
C      1  0.4773310000000  0.5637140000000  0.4898670000000 1.0
C      1  0.4441000000000  0.4490380000000  0.4724530000000 1.0
C      1  0.5514470000000  0.4622760000000  0.4823780000000 1.0
C      1  0.4546360000000  0.4656070000000  0.5430380000000 1.0
C      1  0.4391720000000  0.5369510000000  0.5021080000000 1.0
C      1  0.4632940000000  0.5508810000000  0.5123260000000 1.0
C      1  0.4382280000000  0.4657720000000  0.5190690000000 1.0
C      1  0.4407880000000  0.4447950000000  0.5008830000000 1.0
C      1  0.4634550000000  0.5587030000000  0.5414380000000 1.0
C      1  0.5551180000000  0.5215760000000  0.5134950000000 1.0
C      1  0.5165350000000  0.4898730000000  0.5033870000000 1.0
C      1  0.5082470000000  0.4570920000000  0.4588790000000 1.0
C      1  0.5090730000000  0.5283310000000  0.5214300000000 1.0
C      1  0.4848620000000  0.4425300000000  0.4519550000000 1.0
C      1  0.4787720000000  0.5222790000000  0.5156240000000 1.0
C      1  0.5226770000000  0.4470390000000  0.5395940000000 1.0
C      1  0.4971120000000  0.5257710000000  0.4327750000000 1.0
C      1  0.4712700000000  0.4924420000000  0.4696690000000 1.0
C      1  0.5045740000000  0.5713520000000  0.4946790000000 1.0
C      1  0.5206400000000  0.5373010000000  0.4448460000000 1.0
C      1  0.5302770000000  0.5071860000000  0.5227260000000 1.0
C      1  0.4911580000000  0.5614400000000  0.5498610000000 1.0
C      1  0.5499210000000  0.5418730000000  0.4950230000000 1.0
C      1  0.5672110000000  0.5487870000000  0.4492080000000 1.0
C      1  0.4915390000000  0.4794450000000  0.5081350000000 1.0
C      1  0.5023100000000  0.4863670000000  0.4579140000000 1.0
C      1  0.5004170000000  0.4610570000000  0.5533160000000 1.0
C      1  0.4662110000000  0.5520890000000  0.4667230000000 1.0
C      1  0.4968420000000  0.4965960000000  0.4296970000000 1.0
C      1  0.4528380000000  0.4711610000000  0.4574300000000 1.0
C      1  0.5198270000000  0.5289280000000  0.4730000000000 1.0
C      1  0.5440440000000  0.5492460000000  0.4370830000000 1.0
C      1  0.5335590000000  0.5089140000000  0.5720920000000 1.0
C      1  0.5438610000000  0.4981730000000  0.5498570000000 1.0
C      1  0.5029140000000  0.5792950000000  0.5332380000000 1.0
C      1  0.4685650000000  0.4320410000000  0.4725810000000 1.0
END
