TITL C-95115-8525-6 -30.2321558961576 125000 -804.757293708288 0 0 117 (C1) n - 1
REM
REM in /rds/project/t2_vol4/rds-t2-cs072/BORA/CARBON/from-Arr/AIRSS/Generating-Clusters/GAP-ML-2020/Only-C1/SD-CG/HFTN-CG
REM
REM
REM
REM
REM
REM ./C.cell (11c1c37f851c82e70ff6c80c92926a4b)
REM AIRSS Version 0.9.1 bugfix July 2018 build 013d7b7c2542+ Fri, 06 Jul 2018 19:26:36 +0100
REM compiler GCC version 9.3.0
REM options -cpp -mtune=generic -march=x86-64 -g -O0
REM seed 1028005508 -835651337 412515169 1009539552 1402867351 -1732487483 163799207 -1076205436 -1120331070 -1031374217 -1727017338 -1945886434 375247606 190930765 921978199 1384504123 -434844438 -751786580 158567981 -2079115717 -1984329215 376144075 1599482036 -1705628192 -438074264 -445034375 -134639756 -967832456 8633483 -1848326944 32197629 717738625 -1451374027
REM
CELL 1.54180   50.00000   50.00000   50.00000   90.00000   90.00000   90.00000
LATT -1
SFAC C  
C      1  0.4735810000000  0.5591600000000  0.5495940000000 1.0
C      1  0.5680660000000  0.5579440000000  0.4735960000000 1.0
C      1  0.5731740000000  0.5601790000000  0.5032580000000 1.0
C      1  0.4425840000000  0.5673810000000  0.4648110000000 1.0
C      1  0.5205520000000  0.5233810000000  0.4214990000000 1.0
C      1  0.4917440000000  0.4976780000000  0.4541810000000 1.0
C      1  0.4175420000000  0.5370640000000  0.4940450000000 1.0
C      1  0.4546120000000  0.4599150000000  0.5736180000000 1.0
C      1  0.4531980000000  0.5004370000000  0.5603290000000 1.0
C      1  0.4483510000000  0.4586340000000  0.4414110000000 1.0
C      1  0.5995720000000  0.5174200000000  0.4992760000000 1.0
C      1  0.5910350000000  0.4901400000000  0.5043880000000 1.0
C      1  0.5902770000000  0.5450530000000  0.4598780000000 1.0
C      1  0.5426680000000  0.5351450000000  0.5654570000000 1.0
C      1  0.5274450000000  0.4759670000000  0.5251360000000 1.0
C      1  0.5067140000000  0.4001150000000  0.5215750000000 1.0
C      1  0.4625660000000  0.5000450000000  0.4583840000000 1.0
C      1  0.4329780000000  0.5622390000000  0.4906710000000 1.0
C      1  0.5272360000000  0.4606280000000  0.5794620000000 1.0
C      1  0.5011460000000  0.5845310000000  0.5152190000000 1.0
C      1  0.5306910000000  0.5237780000000  0.4526560000000 1.0
C      1  0.4102570000000  0.4997460000000  0.5624050000000 1.0
C      1  0.4515080000000  0.5344130000000  0.4240980000000 1.0
C      1  0.4579750000000  0.4857420000000  0.4824390000000 1.0
C      1  0.5048840000000  0.4810970000000  0.5783570000000 1.0
C      1  0.5543120000000  0.4570400000000  0.5266770000000 1.0
C      1  0.5398720000000  0.4320450000000  0.5421590000000 1.0
C      1  0.4209700000000  0.5240580000000  0.5213640000000 1.0
C      1  0.5148780000000  0.5225370000000  0.5115080000000 1.0
C      1  0.5029650000000  0.4793260000000  0.4759240000000 1.0
C      1  0.5019690000000  0.5239300000000  0.4645080000000 1.0
C      1  0.5245390000000  0.5739750000000  0.4803430000000 1.0
C      1  0.5724510000000  0.4539930000000  0.4804130000000 1.0
C      1  0.5453890000000  0.5745690000000  0.4609570000000 1.0
C      1  0.5323610000000  0.4972070000000  0.5048420000000 1.0
C      1  0.4480040000000  0.5061030000000  0.4153800000000 1.0
C      1  0.5752280000000  0.4953870000000  0.4570350000000 1.0
C      1  0.4510890000000  0.4302410000000  0.4789260000000 1.0
C      1  0.4827140000000  0.4909860000000  0.4954300000000 1.0
C      1  0.5588110000000  0.5466880000000  0.5460830000000 1.0
C      1  0.4623390000000  0.5631650000000  0.4997470000000 1.0
C      1  0.5262160000000  0.5807010000000  0.5307470000000 1.0
C      1  0.4217210000000  0.5413940000000  0.5488210000000 1.0
C      1  0.5213940000000  0.4532740000000  0.4329690000000 1.0
C      1  0.5163640000000  0.4959710000000  0.4137880000000 1.0
C      1  0.4411820000000  0.4888790000000  0.4398390000000 1.0
C      1  0.5178390000000  0.4939490000000  0.5502110000000 1.0
C      1  0.4776210000000  0.5728660000000  0.5249270000000 1.0
C      1  0.4083720000000  0.4987190000000  0.5324550000000 1.0
C      1  0.5395290000000  0.5769630000000  0.4334960000000 1.0
C      1  0.4649670000000  0.4309650000000  0.5306370000000 1.0
C      1  0.5014500000000  0.4543920000000  0.4882530000000 1.0
C      1  0.6063220000000  0.5266350000000  0.4732230000000 1.0
C      1  0.5447110000000  0.4962820000000  0.4526370000000 1.0
C      1  0.4206080000000  0.4727240000000  0.5315580000000 1.0
C      1  0.4269630000000  0.4580790000000  0.5082510000000 1.0
C      1  0.5455200000000  0.5036280000000  0.5625900000000 1.0
C      1  0.4660080000000  0.4373160000000  0.5609230000000 1.0
C      1  0.4303860000000  0.4724050000000  0.4816980000000 1.0
C      1  0.5309890000000  0.5472070000000  0.4999610000000 1.0
C      1  0.4943010000000  0.4542610000000  0.4227960000000 1.0
C      1  0.4873590000000  0.4114270000000  0.5380070000000 1.0
C      1  0.4581650000000  0.5280660000000  0.4668170000000 1.0
C      1  0.5224680000000  0.5687880000000  0.4164000000000 1.0
C      1  0.5265010000000  0.4168270000000  0.4717920000000 1.0
C      1  0.4749410000000  0.4824020000000  0.5211530000000 1.0
C      1  0.4198660000000  0.5232720000000  0.4687890000000 1.0
C      1  0.5325970000000  0.4798450000000  0.4294400000000 1.0
C      1  0.4726470000000  0.4430630000000  0.4387750000000 1.0
C      1  0.4675370000000  0.4919420000000  0.4009710000000 1.0
C      1  0.5489850000000  0.5617530000000  0.5212470000000 1.0
C      1  0.5198960000000  0.5521610000000  0.5683150000000 1.0
C      1  0.5426800000000  0.4184950000000  0.4967230000000 1.0
C      1  0.4918380000000  0.5202450000000  0.4935180000000 1.0
C      1  0.4526150000000  0.5249470000000  0.5227080000000 1.0
C      1  0.4992430000000  0.5846190000000  0.4857560000000 1.0
C      1  0.4832060000000  0.4564860000000  0.5275200000000 1.0
C      1  0.4706380000000  0.5053620000000  0.5365960000000 1.0
C      1  0.5328270000000  0.4382380000000  0.4543130000000 1.0
C      1  0.4774770000000  0.5459350000000  0.4270240000000 1.0
C      1  0.4945620000000  0.3976060000000  0.4971690000000 1.0
C      1  0.4978430000000  0.4095880000000  0.4733200000000 1.0
C      1  0.5068790000000  0.5065620000000  0.5946820000000 1.0
C      1  0.4746860000000  0.4252410000000  0.4625150000000 1.0
C      1  0.4654630000000  0.5042620000000  0.5854110000000 1.0
C      1  0.5226170000000  0.4360870000000  0.5647790000000 1.0
C      1  0.5044560000000  0.5469700000000  0.4151160000000 1.0
C      1  0.5478240000000  0.4789160000000  0.5788790000000 1.0
C      1  0.5447400000000  0.5388090000000  0.4746810000000 1.0
C      1  0.4822400000000  0.5458310000000  0.4561260000000 1.0
C      1  0.4866570000000  0.5233840000000  0.5867040000000 1.0
C      1  0.5704510000000  0.5016570000000  0.5458350000000 1.0
C      1  0.4209670000000  0.4948750000000  0.4618960000000 1.0
C      1  0.5764880000000  0.4801370000000  0.5285120000000 1.0
C      1  0.5221420000000  0.5771570000000  0.5571900000000 1.0
C      1  0.5468480000000  0.4572530000000  0.4701680000000 1.0
C      1  0.4367780000000  0.5419740000000  0.4510650000000 1.0
C      1  0.4748910000000  0.5711480000000  0.4735980000000 1.0
C      1  0.4940650000000  0.4259270000000  0.5617930000000 1.0
C      1  0.4748950000000  0.4778500000000  0.5846140000000 1.0
C      1  0.5878130000000  0.5377820000000  0.5139470000000 1.0
C      1  0.5006420000000  0.5168350000000  0.5400440000000 1.0
C      1  0.5914850000000  0.5175970000000  0.4515770000000 1.0
C      1  0.4341100000000  0.4774970000000  0.5591640000000 1.0
C      1  0.5853930000000  0.4783380000000  0.4793210000000 1.0
C      1  0.4655560000000  0.5334040000000  0.4970250000000 1.0
C      1  0.4489410000000  0.5471720000000  0.5443010000000 1.0
C      1  0.5325200000000  0.4841750000000  0.4774740000000 1.0
C      1  0.5329650000000  0.4120190000000  0.5227090000000 1.0
C      1  0.4910280000000  0.4796710000000  0.4080600000000 1.0
C      1  0.4940020000000  0.5401350000000  0.5630690000000 1.0
C      1  0.5780640000000  0.5280430000000  0.5382670000000 1.0
C      1  0.4108060000000  0.5261610000000  0.5694270000000 1.0
C      1  0.5080420000000  0.4548140000000  0.5149810000000 1.0
C      1  0.4447870000000  0.4347220000000  0.5074970000000 1.0
C      1  0.4367110000000  0.4497930000000  0.4648980000000 1.0
C      1  0.5594460000000  0.4410440000000  0.5015070000000 1.0
END
