TITL C-95756-4460-4 -14.584131423072 125000 -574.726322220384 0 0 82 (C1) n - 1
REM
REM in /rds/project/t2_vol4/rds-t2-cs072/BORA/CARBON/from-Arr/AIRSS/Generating-Clusters/GAP-ML-2020/Only-C1/SD-CG/HFTN-CG
REM
REM
REM
REM
REM
REM ./C.cell (11c1c37f851c82e70ff6c80c92926a4b)
REM AIRSS Version 0.9.1 bugfix July 2018 build 013d7b7c2542+ Fri, 06 Jul 2018 19:26:36 +0100
REM compiler GCC version 9.3.0
REM options -cpp -mtune=generic -march=x86-64 -g -O0
REM seed -1602042177 -977106805 -1224014981 242513222 226466469 703251853 1988190101 -1650290481 590958740 -489257481 494267571 485496129 -1908930190 1653872702 -1156780398 1897561961 -838692728 470824332 71621619 1827882392 1591703773 -262760578 -1942899571 44261108 -1780002251 1743513333 1173529356 -1580638051 736129497 1599723865 -599002739 -990427430 -769544427
REM
CELL 1.54180   50.00000   50.00000   50.00000   90.00000   90.00000   90.00000
LATT -1
SFAC C  
C      1  0.5074800000000  0.5208900000000  0.5284490000000 1.0
C      1  0.4890000000000  0.4993510000000  0.4284860000000 1.0
C      1  0.5283580000000  0.4420190000000  0.5502970000000 1.0
C      1  0.4624390000000  0.5508510000000  0.5148660000000 1.0
C      1  0.4891130000000  0.5038200000000  0.4855190000000 1.0
C      1  0.4522260000000  0.5242040000000  0.4466070000000 1.0
C      1  0.4694570000000  0.5652620000000  0.4634750000000 1.0
C      1  0.4836080000000  0.5807000000000  0.4842050000000 1.0
C      1  0.4269650000000  0.5235010000000  0.5335050000000 1.0
C      1  0.4426090000000  0.5128690000000  0.5560800000000 1.0
C      1  0.4178650000000  0.4969170000000  0.5264990000000 1.0
C      1  0.5174340000000  0.4539770000000  0.5723490000000 1.0
C      1  0.4325650000000  0.4850640000000  0.5487410000000 1.0
C      1  0.5159500000000  0.5627700000000  0.4556400000000 1.0
C      1  0.4826440000000  0.4323980000000  0.5344470000000 1.0
C      1  0.5579420000000  0.4820170000000  0.5403930000000 1.0
C      1  0.5672490000000  0.4955030000000  0.4685150000000 1.0
C      1  0.5109460000000  0.4281730000000  0.5317800000000 1.0
C      1  0.4802180000000  0.4808030000000  0.5215940000000 1.0
C      1  0.5784310000000  0.5223360000000  0.4758830000000 1.0
C      1  0.5161220000000  0.4897040000000  0.4217220000000 1.0
C      1  0.4694770000000  0.5212700000000  0.5575910000000 1.0
C      1  0.4984310000000  0.4885420000000  0.5826310000000 1.0
C      1  0.4891120000000  0.5532620000000  0.4449500000000 1.0
C      1  0.4312530000000  0.4620570000000  0.4967420000000 1.0
C      1  0.5003110000000  0.5772590000000  0.5268840000000 1.0
C      1  0.4469350000000  0.5448280000000  0.4660600000000 1.0
C      1  0.5167220000000  0.5365970000000  0.5041690000000 1.0
C      1  0.5192810000000  0.4622870000000  0.4288980000000 1.0
C      1  0.5192390000000  0.4288740000000  0.4794330000000 1.0
C      1  0.4960520000000  0.5306480000000  0.4845850000000 1.0
C      1  0.5600590000000  0.4830570000000  0.4416200000000 1.0
C      1  0.5697880000000  0.5211410000000  0.5066610000000 1.0
C      1  0.4711690000000  0.4493050000000  0.5557930000000 1.0
C      1  0.4418310000000  0.4483550000000  0.5194970000000 1.0
C      1  0.4651020000000  0.4343380000000  0.5116440000000 1.0
C      1  0.5408540000000  0.4463110000000  0.4675520000000 1.0
C      1  0.5259660000000  0.4276900000000  0.5073000000000 1.0
C      1  0.5055490000000  0.5653570000000  0.5508170000000 1.0
C      1  0.5456800000000  0.5596310000000  0.5292780000000 1.0
C      1  0.4510610000000  0.4751740000000  0.4526100000000 1.0
C      1  0.4929220000000  0.4350980000000  0.4675390000000 1.0
C      1  0.5422040000000  0.5274660000000  0.4923840000000 1.0
C      1  0.5265520000000  0.4806660000000  0.5781150000000 1.0
C      1  0.5368550000000  0.5063700000000  0.4727520000000 1.0
C      1  0.5147130000000  0.4887540000000  0.4827640000000 1.0
C      1  0.4688570000000  0.4383050000000  0.4830170000000 1.0
C      1  0.4775880000000  0.5276870000000  0.5296520000000 1.0
C      1  0.4237910000000  0.5071620000000  0.4793130000000 1.0
C      1  0.5513400000000  0.4539050000000  0.5377720000000 1.0
C      1  0.5416950000000  0.5018290000000  0.4276660000000 1.0
C      1  0.4278390000000  0.5343410000000  0.4862020000000 1.0
C      1  0.5210410000000  0.5217810000000  0.5557530000000 1.0
C      1  0.4755680000000  0.4752920000000  0.4382340000000 1.0
C      1  0.5205160000000  0.4772860000000  0.5080780000000 1.0
C      1  0.4715180000000  0.5030790000000  0.5086410000000 1.0
C      1  0.4450530000000  0.4594790000000  0.5457240000000 1.0
C      1  0.5463290000000  0.4580940000000  0.4412900000000 1.0
C      1  0.5700050000000  0.4924920000000  0.5160060000000 1.0
C      1  0.5404320000000  0.5497220000000  0.4501830000000 1.0
C      1  0.4711600000000  0.5457230000000  0.4864940000000 1.0
C      1  0.5512930000000  0.4405130000000  0.5125920000000 1.0
C      1  0.4891520000000  0.4607790000000  0.5750660000000 1.0
C      1  0.4941710000000  0.5136250000000  0.5710630000000 1.0
C      1  0.5362800000000  0.5222920000000  0.4455640000000 1.0
C      1  0.4388050000000  0.5007190000000  0.4557400000000 1.0
C      1  0.5600460000000  0.4522120000000  0.4889650000000 1.0
C      1  0.5213910000000  0.5674790000000  0.5083170000000 1.0
C      1  0.5673520000000  0.5460760000000  0.5214950000000 1.0
C      1  0.5113450000000  0.5768210000000  0.4805900000000 1.0
C      1  0.4759590000000  0.5772430000000  0.5124430000000 1.0
C      1  0.4956950000000  0.4545120000000  0.4441330000000 1.0
C      1  0.5584360000000  0.5436490000000  0.4716710000000 1.0
C      1  0.5714390000000  0.4774900000000  0.4916120000000 1.0
C      1  0.4480990000000  0.4562430000000  0.4743040000000 1.0
C      1  0.4784910000000  0.5263970000000  0.4355110000000 1.0
C      1  0.5152330000000  0.4641820000000  0.4660950000000 1.0
C      1  0.4339710000000  0.5417590000000  0.5139320000000 1.0
C      1  0.5403500000000  0.4966780000000  0.5599700000000 1.0
C      1  0.5059010000000  0.4890920000000  0.5275600000000 1.0
C      1  0.5288760000000  0.5509170000000  0.5522970000000 1.0
C      1  0.4192400000000  0.4876800000000  0.4997340000000 1.0
END
