TITL C-95117-8395-7 -36.8507352627174 125000 -593.077869632898 0 0 85 (C1) n - 1
REM
REM in /rds/project/t2_vol4/rds-t2-cs072/BORA/CARBON/from-Arr/AIRSS/Generating-Clusters/GAP-ML-2020/Only-C1/SD-CG/HFTN-CG
REM
REM
REM
REM
REM
REM ./C.cell (11c1c37f851c82e70ff6c80c92926a4b)
REM AIRSS Version 0.9.1 bugfix July 2018 build 013d7b7c2542+ Fri, 06 Jul 2018 19:26:36 +0100
REM compiler GCC version 9.3.0
REM options -cpp -mtune=generic -march=x86-64 -g -O0
REM seed 1257672987 -1901779102 1352882937 -1335445181 1416735435 1813871198 390772027 -1275146436 -641795549 1562996763 819487859 -1203783484 -1488566253 -1521005346 147493264 865669343 2022973356 1873156699 -949379990 919855436 1868148985 -619134506 -1796204101 1687711548 -1702379471 -1038977618 405377815 -347865165 1077421760 2134323456 -130851887 -1457342202 -1264093429
REM
CELL 1.54180   50.00000   50.00000   50.00000   90.00000   90.00000   90.00000
LATT -1
SFAC C  
C      1  0.5358800000000  0.5289050000000  0.4434290000000 1.0
C      1  0.5280990000000  0.5718720000000  0.5246650000000 1.0
C      1  0.5295390000000  0.5549370000000  0.4537540000000 1.0
C      1  0.5155260000000  0.4767040000000  0.5229700000000 1.0
C      1  0.5850860000000  0.4825440000000  0.5059150000000 1.0
C      1  0.5033540000000  0.4132610000000  0.4757880000000 1.0
C      1  0.5786770000000  0.5119280000000  0.4671450000000 1.0
C      1  0.4353610000000  0.5548180000000  0.5239020000000 1.0
C      1  0.4471940000000  0.5302110000000  0.5617660000000 1.0
C      1  0.5210780000000  0.4930920000000  0.4661680000000 1.0
C      1  0.4173460000000  0.5320920000000  0.5269850000000 1.0
C      1  0.5014450000000  0.5587550000000  0.4494990000000 1.0
C      1  0.5835150000000  0.4851130000000  0.4766180000000 1.0
C      1  0.4482720000000  0.5621290000000  0.5005200000000 1.0
C      1  0.4657920000000  0.4441250000000  0.4886250000000 1.0
C      1  0.5248750000000  0.4698660000000  0.4306510000000 1.0
C      1  0.4142900000000  0.5132100000000  0.5059800000000 1.0
C      1  0.5211910000000  0.4159430000000  0.5198820000000 1.0
C      1  0.4259940000000  0.4686100000000  0.4976260000000 1.0
C      1  0.4590920000000  0.5240960000000  0.4444680000000 1.0
C      1  0.4264950000000  0.4887430000000  0.5439770000000 1.0
C      1  0.5151770000000  0.5096280000000  0.5562270000000 1.0
C      1  0.5632730000000  0.4686010000000  0.4674150000000 1.0
C      1  0.4826780000000  0.5321110000000  0.4852560000000 1.0
C      1  0.4427480000000  0.5597340000000  0.4722530000000 1.0
C      1  0.4447880000000  0.4500730000000  0.5078600000000 1.0
C      1  0.5566480000000  0.4499170000000  0.5385050000000 1.0
C      1  0.5486370000000  0.5221470000000  0.5028540000000 1.0
C      1  0.5453560000000  0.4834320000000  0.4489880000000 1.0
C      1  0.4728040000000  0.4901080000000  0.4994690000000 1.0
C      1  0.4379920000000  0.5338170000000  0.4617080000000 1.0
C      1  0.5421430000000  0.4269950000000  0.5336610000000 1.0
C      1  0.5100640000000  0.5126620000000  0.4442920000000 1.0
C      1  0.4890710000000  0.5184130000000  0.5417320000000 1.0
C      1  0.4832730000000  0.5498950000000  0.5337320000000 1.0
C      1  0.4944350000000  0.5793870000000  0.4905470000000 1.0
C      1  0.5521890000000  0.5385880000000  0.5443800000000 1.0
C      1  0.4486400000000  0.4726540000000  0.5530880000000 1.0
C      1  0.4550420000000  0.4508100000000  0.5355680000000 1.0
C      1  0.5104710000000  0.5580980000000  0.5426170000000 1.0
C      1  0.5576600000000  0.5133070000000  0.5315110000000 1.0
C      1  0.4781560000000  0.4878170000000  0.4193140000000 1.0
C      1  0.4288550000000  0.4841810000000  0.4722440000000 1.0
C      1  0.5136040000000  0.4492620000000  0.4488260000000 1.0
C      1  0.4991630000000  0.4827060000000  0.5672880000000 1.0
C      1  0.5492890000000  0.4233730000000  0.4873910000000 1.0
C      1  0.4693590000000  0.5138270000000  0.5641290000000 1.0
C      1  0.5369310000000  0.4929890000000  0.5421410000000 1.0
C      1  0.5444860000000  0.4685430000000  0.5576330000000 1.0
C      1  0.5782190000000  0.5271950000000  0.4917840000000 1.0
C      1  0.5699900000000  0.4599850000000  0.5140890000000 1.0
C      1  0.5574960000000  0.5111390000000  0.4472150000000 1.0
C      1  0.4303940000000  0.5132690000000  0.4813180000000 1.0
C      1  0.5065690000000  0.4231560000000  0.4496700000000 1.0
C      1  0.5534120000000  0.4516280000000  0.4904710000000 1.0
C      1  0.4776370000000  0.5590860000000  0.5042090000000 1.0
C      1  0.4817840000000  0.4409680000000  0.5386810000000 1.0
C      1  0.4792030000000  0.4682920000000  0.4816680000000 1.0
C      1  0.4604200000000  0.5740420000000  0.4583040000000 1.0
C      1  0.4938560000000  0.4980900000000  0.5173000000000 1.0
C      1  0.4703050000000  0.4862110000000  0.5686400000000 1.0
C      1  0.5261640000000  0.5377060000000  0.5559550000000 1.0
C      1  0.4608800000000  0.5134790000000  0.4907070000000 1.0
C      1  0.5402330000000  0.5652930000000  0.4791970000000 1.0
C      1  0.4162110000000  0.4867440000000  0.5171070000000 1.0
C      1  0.4247990000000  0.5171680000000  0.5506940000000 1.0
C      1  0.4877270000000  0.5323890000000  0.4522380000000 1.0
C      1  0.5213510000000  0.5779630000000  0.4973190000000 1.0
C      1  0.5267580000000  0.4097140000000  0.4916740000000 1.0
C      1  0.5044620000000  0.4904620000000  0.4239780000000 1.0
C      1  0.5076550000000  0.4670370000000  0.4744120000000 1.0
C      1  0.5830700000000  0.5090440000000  0.5158260000000 1.0
C      1  0.5228300000000  0.4607700000000  0.4989070000000 1.0
C      1  0.5590520000000  0.5510630000000  0.4972010000000 1.0
C      1  0.4930120000000  0.4220750000000  0.5207120000000 1.0
C      1  0.5049790000000  0.5189330000000  0.4996220000000 1.0
C      1  0.5536410000000  0.5596080000000  0.5247650000000 1.0
C      1  0.5031170000000  0.4597050000000  0.5461420000000 1.0
C      1  0.4864240000000  0.5790740000000  0.4627930000000 1.0
C      1  0.4832340000000  0.4222020000000  0.4936930000000 1.0
C      1  0.5194360000000  0.4624900000000  0.5697580000000 1.0
C      1  0.5279230000000  0.5099120000000  0.4882550000000 1.0
C      1  0.4552380000000  0.5519400000000  0.5444820000000 1.0
C      1  0.4357130000000  0.4809370000000  0.4465310000000 1.0
C      1  0.4557730000000  0.4972000000000  0.4337190000000 1.0
END
