TITL C-95096-8383-1 0.0916356808749537 125000 -249.304035654492 0 0 38 (C1) n - 1
REM
REM in /rds/project/t2_vol4/rds-t2-cs072/BORA/CARBON/from-Arr/AIRSS/Generating-Clusters/GAP-ML-2020/Only-C1/SD-CG/HFTN-CG
REM
REM
REM
REM
REM
REM ./C.cell (11c1c37f851c82e70ff6c80c92926a4b)
REM AIRSS Version 0.9.1 bugfix July 2018 build 013d7b7c2542+ Fri, 06 Jul 2018 19:26:36 +0100
REM compiler GCC version 9.3.0
REM options -cpp -mtune=generic -march=x86-64 -g -O0
REM seed -1851875197 -675764485 -424321043 -158854155 -1900574088 1707092939 -1130463019 290388442 1335682207 223464065 1883903910 781408524 -1770798720 -1950793900 1490358676 793215514 1569767283 -1549776508 -897891648 38942684 -1379303769 -863682709 2042465966 815040026 -371105976 -1235615663 -967576832 2028431172 17596183 2081285859 509658453 -1665895251 -1973273308
REM
CELL 1.54180   50.00000   50.00000   50.00000   90.00000   90.00000   90.00000
LATT -1
SFAC C  
C      1  0.5492470000000  0.4892090000000  0.5511480000000 1.0
C      1  0.5184470000000  0.4504160000000  0.5003410000000 1.0
C      1  0.4534000000000  0.5180270000000  0.5197100000000 1.0
C      1  0.4860310000000  0.5244940000000  0.5510430000000 1.0
C      1  0.4494980000000  0.4792010000000  0.5123070000000 1.0
C      1  0.5190720000000  0.5168900000000  0.5299410000000 1.0
C      1  0.5025390000000  0.5212230000000  0.4368590000000 1.0
C      1  0.4705600000000  0.4800320000000  0.4588750000000 1.0
C      1  0.5250360000000  0.4881130000000  0.5361770000000 1.0
C      1  0.5225530000000  0.5452580000000  0.4972460000000 1.0
C      1  0.5228420000000  0.4787930000000  0.5070020000000 1.0
C      1  0.4722680000000  0.4644390000000  0.5056090000000 1.0
C      1  0.4464950000000  0.5030130000000  0.4960720000000 1.0
C      1  0.4619370000000  0.5063230000000  0.4727140000000 1.0
C      1  0.4993160000000  0.4992130000000  0.4203530000000 1.0
C      1  0.5362440000000  0.5416740000000  0.5231810000000 1.0
C      1  0.4932630000000  0.4881480000000  0.5023780000000 1.0
C      1  0.5338940000000  0.4971980000000  0.4639610000000 1.0
C      1  0.4593960000000  0.5281380000000  0.4532340000000 1.0
C      1  0.5722230000000  0.4935970000000  0.5599510000000 1.0
C      1  0.4977470000000  0.4756590000000  0.5455080000000 1.0
C      1  0.4788960000000  0.4955910000000  0.5506480000000 1.0
C      1  0.4795380000000  0.4611060000000  0.4776600000000 1.0
C      1  0.4891600000000  0.4534490000000  0.5278370000000 1.0
C      1  0.4936660000000  0.4840750000000  0.4417420000000 1.0
C      1  0.4787290000000  0.5370670000000  0.4397320000000 1.0
C      1  0.5168200000000  0.4753330000000  0.4567910000000 1.0
C      1  0.4996910000000  0.5267030000000  0.5063320000000 1.0
C      1  0.5115850000000  0.5334570000000  0.5551320000000 1.0
C      1  0.4540320000000  0.4944480000000  0.5367580000000 1.0
C      1  0.4769380000000  0.5328960000000  0.5242530000000 1.0
C      1  0.5068740000000  0.4549030000000  0.4739160000000 1.0
C      1  0.5265200000000  0.5242530000000  0.4532000000000 1.0
C      1  0.5303920000000  0.5450180000000  0.4712940000000 1.0
C      1  0.4911400000000  0.5093670000000  0.4836650000000 1.0
C      1  0.5070820000000  0.4351330000000  0.5196310000000 1.0
C      1  0.5282790000000  0.5540330000000  0.5477680000000 1.0
C      1  0.5386490000000  0.4941120000000  0.4900320000000 1.0
END
