TITL C-95114-8518-8 -115.311103098878 125000 -304.142521123884 0 0 45 (C1) n - 1
REM
REM in /rds/project/t2_vol4/rds-t2-cs072/BORA/CARBON/from-Arr/AIRSS/Generating-Clusters/GAP-ML-2020/Only-C1/SD-CG/HFTN-CG
REM
REM
REM
REM
REM
REM ./C.cell (11c1c37f851c82e70ff6c80c92926a4b)
REM AIRSS Version 0.9.1 bugfix July 2018 build 013d7b7c2542+ Fri, 06 Jul 2018 19:26:36 +0100
REM compiler GCC version 9.3.0
REM options -cpp -mtune=generic -march=x86-64 -g -O0
REM seed 1818124229 -174472766 809446354 -201585442 1190329322 -1086153700 -392465648 579644181 195669245 2010531546 2082904339 -1281067559 -83170479 681942293 851493880 -1598868088 -2033350528 258435479 -1666304034 2053975231 -1893899276 1194206403 -320877218 -2125698846 -892495341 -218081485 -1608091009 1740791626 -1437486546 -1985364756 1212767190 69907817 1415027088
REM
CELL 1.54180   50.00000   50.00000   50.00000   90.00000   90.00000   90.00000
LATT -1
SFAC C  
C      1  0.5101360000000  0.5159630000000  0.4883180000000 1.0
C      1  0.5168210000000  0.5179840000000  0.5532870000000 1.0
C      1  0.5493840000000  0.4629740000000  0.5296120000000 1.0
C      1  0.4803310000000  0.4875810000000  0.4918720000000 1.0
C      1  0.5251370000000  0.4704520000000  0.4737900000000 1.0
C      1  0.4565320000000  0.5025820000000  0.4566190000000 1.0
C      1  0.5319660000000  0.4355350000000  0.5041380000000 1.0
C      1  0.4873820000000  0.5330110000000  0.4789360000000 1.0
C      1  0.5544880000000  0.4917180000000  0.5289550000000 1.0
C      1  0.5401390000000  0.5466200000000  0.4863470000000 1.0
C      1  0.4812490000000  0.4664970000000  0.4658340000000 1.0
C      1  0.5230660000000  0.4479120000000  0.5291610000000 1.0
C      1  0.4894670000000  0.4437760000000  0.4833700000000 1.0
C      1  0.5321110000000  0.5250000000000  0.4683950000000 1.0
C      1  0.4399340000000  0.4670340000000  0.4843590000000 1.0
C      1  0.4814380000000  0.5476330000000  0.5424070000000 1.0
C      1  0.5036850000000  0.4984440000000  0.4360790000000 1.0
C      1  0.4924960000000  0.5566870000000  0.4962450000000 1.0
C      1  0.4818500000000  0.4773100000000  0.5446950000000 1.0
C      1  0.5207700000000  0.5597040000000  0.5039080000000 1.0
C      1  0.4782720000000  0.4469020000000  0.5091410000000 1.0
C      1  0.4527190000000  0.4735710000000  0.4608220000000 1.0
C      1  0.5100120000000  0.5459940000000  0.5462360000000 1.0
C      1  0.5410580000000  0.5070670000000  0.5469670000000 1.0
C      1  0.5594240000000  0.4988390000000  0.4993840000000 1.0
C      1  0.4470990000000  0.5230450000000  0.5068880000000 1.0
C      1  0.5567390000000  0.5241270000000  0.4867100000000 1.0
C      1  0.4574100000000  0.4674850000000  0.5065290000000 1.0
C      1  0.5254940000000  0.5626060000000  0.5306920000000 1.0
C      1  0.4765630000000  0.5109310000000  0.4385700000000 1.0
C      1  0.5530710000000  0.4737600000000  0.4850450000000 1.0
C      1  0.5170170000000  0.4429420000000  0.4821920000000 1.0
C      1  0.4909040000000  0.5035300000000  0.5547320000000 1.0
C      1  0.4641420000000  0.5132720000000  0.4838970000000 1.0
C      1  0.4702720000000  0.5222480000000  0.5487260000000 1.0
C      1  0.5176360000000  0.5237010000000  0.4435970000000 1.0
C      1  0.4912340000000  0.5335460000000  0.4491310000000 1.0
C      1  0.4725200000000  0.5578190000000  0.5171900000000 1.0
C      1  0.4509640000000  0.5095090000000  0.5321840000000 1.0
C      1  0.5560650000000  0.4523650000000  0.5037380000000 1.0
C      1  0.5055760000000  0.4756820000000  0.4516770000000 1.0
C      1  0.4951830000000  0.4549930000000  0.5310750000000 1.0
C      1  0.4568420000000  0.4821380000000  0.5317380000000 1.0
C      1  0.4466120000000  0.5504000000000  0.5113030000000 1.0
C      1  0.5087930000000  0.4891090000000  0.4955120000000 1.0
END
