TITL C-95736-4337-5 0.0726404860671739 125000 -600.193265477969 0 0 88 (C1) n - 1
REM
REM in /rds/project/t2_vol4/rds-t2-cs072/BORA/CARBON/from-Arr/AIRSS/Generating-Clusters/GAP-ML-2020/Only-C1/SD-CG/HFTN-CG
REM
REM
REM
REM
REM
REM ./C.cell (11c1c37f851c82e70ff6c80c92926a4b)
REM AIRSS Version 0.9.1 bugfix July 2018 build 013d7b7c2542+ Fri, 06 Jul 2018 19:26:36 +0100
REM compiler GCC version 9.3.0
REM options -cpp -mtune=generic -march=x86-64 -g -O0
REM seed 2128953792 1239593494 -914422353 -1490634906 -1741625250 1875035806 -1812307670 1373510692 2067415590 1528639695 1214070840 -163632346 -418252322 1150035677 -523171594 2043272703 820513949 -685922028 861470770 -1887954672 722331334 1020791889 -1537599466 -133716470 -1942128665 -1269836348 792477327 -226391990 708337731 133566534 -1147476514 1532732383 -1128221139
REM
CELL 1.54180   50.00000   50.00000   50.00000   90.00000   90.00000   90.00000
LATT -1
SFAC C  
C      1  0.5322950000000  0.4385920000000  0.4507890000000 1.0
C      1  0.5853790000000  0.4987910000000  0.4608930000000 1.0
C      1  0.5105090000000  0.4933270000000  0.4111190000000 1.0
C      1  0.4660760000000  0.4673220000000  0.5831890000000 1.0
C      1  0.5021530000000  0.5882050000000  0.5061760000000 1.0
C      1  0.5301000000000  0.4725410000000  0.4177250000000 1.0
C      1  0.4608110000000  0.5664410000000  0.5089530000000 1.0
C      1  0.5726360000000  0.5359650000000  0.5409920000000 1.0
C      1  0.4255760000000  0.4652130000000  0.5179190000000 1.0
C      1  0.5674370000000  0.4863450000000  0.5340210000000 1.0
C      1  0.4797750000000  0.5476020000000  0.5586550000000 1.0
C      1  0.5150820000000  0.5142860000000  0.5213530000000 1.0
C      1  0.4402100000000  0.5299880000000  0.4797880000000 1.0
C      1  0.5226930000000  0.5660510000000  0.5040650000000 1.0
C      1  0.5498940000000  0.4514820000000  0.5060070000000 1.0
C      1  0.5763800000000  0.4869170000000  0.4844100000000 1.0
C      1  0.5175410000000  0.5168010000000  0.4262060000000 1.0
C      1  0.4825180000000  0.5554580000000  0.5285990000000 1.0
C      1  0.4408210000000  0.4769960000000  0.4707840000000 1.0
C      1  0.5634240000000  0.4617560000000  0.4821900000000 1.0
C      1  0.4965660000000  0.4466330000000  0.5540340000000 1.0
C      1  0.5514210000000  0.5526200000000  0.5476190000000 1.0
C      1  0.4264520000000  0.4870720000000  0.4479900000000 1.0
C      1  0.4364490000000  0.5076310000000  0.4330910000000 1.0
C      1  0.5727140000000  0.5295540000000  0.5141460000000 1.0
C      1  0.5045730000000  0.5441720000000  0.4599280000000 1.0
C      1  0.4781220000000  0.4350770000000  0.5369350000000 1.0
C      1  0.4961160000000  0.5290550000000  0.4839610000000 1.0
C      1  0.4950950000000  0.5293990000000  0.4379950000000 1.0
C      1  0.4257870000000  0.5312940000000  0.5180290000000 1.0
C      1  0.5530430000000  0.4570980000000  0.4563070000000 1.0
C      1  0.5357050000000  0.4267590000000  0.4986020000000 1.0
C      1  0.5622700000000  0.5543020000000  0.5022140000000 1.0
C      1  0.4975860000000  0.5826600000000  0.5342180000000 1.0
C      1  0.4895390000000  0.4577450000000  0.4314060000000 1.0
C      1  0.4384450000000  0.5510370000000  0.5013170000000 1.0
C      1  0.4365280000000  0.4635530000000  0.5458460000000 1.0
C      1  0.5245360000000  0.4690180000000  0.5123700000000 1.0
C      1  0.4661190000000  0.5085110000000  0.5158020000000 1.0
C      1  0.4951980000000  0.4689770000000  0.5047720000000 1.0
C      1  0.5078740000000  0.5851930000000  0.5584780000000 1.0
C      1  0.5438840000000  0.5256010000000  0.4417020000000 1.0
C      1  0.5288670000000  0.5407830000000  0.5608840000000 1.0
C      1  0.5145780000000  0.5005080000000  0.4776760000000 1.0
C      1  0.5070680000000  0.4906450000000  0.5522050000000 1.0
C      1  0.4750490000000  0.5093240000000  0.4423620000000 1.0
C      1  0.5273280000000  0.5130510000000  0.5496590000000 1.0
C      1  0.5466170000000  0.5667020000000  0.5229950000000 1.0
C      1  0.5184230000000  0.4631360000000  0.5414330000000 1.0
C      1  0.5415730000000  0.4756230000000  0.5750190000000 1.0
C      1  0.5254660000000  0.4222270000000  0.4734300000000 1.0
C      1  0.5044720000000  0.5413160000000  0.5105540000000 1.0
C      1  0.4249500000000  0.4841890000000  0.4963400000000 1.0
C      1  0.4446990000000  0.5176590000000  0.5340220000000 1.0
C      1  0.4610720000000  0.5308460000000  0.5685440000000 1.0
C      1  0.5675580000000  0.5048620000000  0.4411310000000 1.0
C      1  0.4899020000000  0.4941550000000  0.5236930000000 1.0
C      1  0.4685320000000  0.4959950000000  0.4689700000000 1.0
C      1  0.5315070000000  0.4976180000000  0.5031450000000 1.0
C      1  0.5488480000000  0.4804490000000  0.4388210000000 1.0
C      1  0.5624180000000  0.4586050000000  0.5327510000000 1.0
C      1  0.4474400000000  0.5090200000000  0.5612050000000 1.0
C      1  0.4334870000000  0.5345770000000  0.4493650000000 1.0
C      1  0.4924870000000  0.4787440000000  0.4766970000000 1.0
C      1  0.4481330000000  0.4802970000000  0.5663860000000 1.0
C      1  0.4770660000000  0.5841630000000  0.4954730000000 1.0
C      1  0.4679610000000  0.5177720000000  0.4876540000000 1.0
C      1  0.5523680000000  0.4971070000000  0.5572540000000 1.0
C      1  0.4385360000000  0.4398370000000  0.5123350000000 1.0
C      1  0.5338500000000  0.5478980000000  0.4578750000000 1.0
C      1  0.5135770000000  0.4797080000000  0.5813930000000 1.0
C      1  0.4920870000000  0.4597240000000  0.5797200000000 1.0
C      1  0.4289650000000  0.5589780000000  0.4399790000000 1.0
C      1  0.4808170000000  0.4564450000000  0.4582440000000 1.0
C      1  0.4220170000000  0.5120260000000  0.4971420000000 1.0
C      1  0.5065710000000  0.5568320000000  0.5670770000000 1.0
C      1  0.5167040000000  0.4497940000000  0.4286690000000 1.0
C      1  0.5293460000000  0.5008330000000  0.4515530000000 1.0
C      1  0.5428130000000  0.5602560000000  0.4813550000000 1.0
C      1  0.4606000000000  0.4996970000000  0.4196920000000 1.0
C      1  0.4853280000000  0.4365940000000  0.5077110000000 1.0
C      1  0.4504970000000  0.4391520000000  0.5388050000000 1.0
C      1  0.5085600000000  0.4209310000000  0.4964700000000 1.0
C      1  0.4584300000000  0.4361290000000  0.4935630000000 1.0
C      1  0.5442310000000  0.4572650000000  0.5546830000000 1.0
C      1  0.5641440000000  0.5012980000000  0.5078770000000 1.0
C      1  0.4840060000000  0.4835470000000  0.4173740000000 1.0
C      1  0.4557200000000  0.4506420000000  0.4702160000000 1.0
END
