TITL C-95103-8399-3 -239.457158524749 125000 -385.49277584547 0 0 56 (C1) n - 1
REM
REM in /rds/project/t2_vol4/rds-t2-cs072/BORA/CARBON/from-Arr/AIRSS/Generating-Clusters/GAP-ML-2020/Only-C1/SD-CG/HFTN-CG
REM
REM
REM
REM
REM
REM ./C.cell (11c1c37f851c82e70ff6c80c92926a4b)
REM AIRSS Version 0.9.1 bugfix July 2018 build 013d7b7c2542+ Fri, 06 Jul 2018 19:26:36 +0100
REM compiler GCC version 9.3.0
REM options -cpp -mtune=generic -march=x86-64 -g -O0
REM seed 758948434 -1118683554 741744377 -1050486939 -1939921186 -1064276214 -1169723312 1574710376 933704830 -1565569960 218567638 -1263872084 -1589190259 -200125031 -1571176673 -307223364 -1016986482 33270716 1486976913 1796115554 301750679 -914610565 -662807253 498003945 -1259855489 -1955342802 -1234167320 -1954094919 -1713795873 -271169850 561581047 1955375008 -1091015732
REM
CELL 1.54180   50.00000   50.00000   50.00000   90.00000   90.00000   90.00000
LATT -1
SFAC C  
C      1  0.4926640000000  0.5451080000000  0.5129460000000 1.0
C      1  0.5111150000000  0.5002040000000  0.4428520000000 1.0
C      1  0.5462250000000  0.4458240000000  0.5003180000000 1.0
C      1  0.5191140000000  0.4840730000000  0.5319600000000 1.0
C      1  0.5480800000000  0.5570550000000  0.4710080000000 1.0
C      1  0.5258150000000  0.4852490000000  0.5027400000000 1.0
C      1  0.4375270000000  0.5357540000000  0.4752340000000 1.0
C      1  0.4791830000000  0.4716920000000  0.4916740000000 1.0
C      1  0.5078870000000  0.4638660000000  0.4929390000000 1.0
C      1  0.5188830000000  0.5490050000000  0.5282960000000 1.0
C      1  0.5107370000000  0.4552530000000  0.5358710000000 1.0
C      1  0.4636830000000  0.4491760000000  0.5032680000000 1.0
C      1  0.4979370000000  0.4999650000000  0.5793020000000 1.0
C      1  0.4740300000000  0.5588890000000  0.4938680000000 1.0
C      1  0.5430960000000  0.4498770000000  0.4703220000000 1.0
C      1  0.4561820000000  0.4965850000000  0.4580300000000 1.0
C      1  0.5194260000000  0.4411250000000  0.5120510000000 1.0
C      1  0.5067890000000  0.5385280000000  0.5525180000000 1.0
C      1  0.4803440000000  0.5400970000000  0.5415380000000 1.0
C      1  0.4553490000000  0.5425000000000  0.4539290000000 1.0
C      1  0.4537560000000  0.4999240000000  0.5537270000000 1.0
C      1  0.4981040000000  0.4293440000000  0.4718290000000 1.0
C      1  0.5562440000000  0.5424130000000  0.4929240000000 1.0
C      1  0.5004930000000  0.4751610000000  0.4500670000000 1.0
C      1  0.5175860000000  0.5164460000000  0.5679650000000 1.0
C      1  0.4905460000000  0.4908170000000  0.5338620000000 1.0
C      1  0.4774030000000  0.4273440000000  0.4925340000000 1.0
C      1  0.5529590000000  0.5156640000000  0.5313690000000 1.0
C      1  0.5582590000000  0.5012200000000  0.4648950000000 1.0
C      1  0.4391640000000  0.5075690000000  0.4793240000000 1.0
C      1  0.4448240000000  0.5029780000000  0.5086690000000 1.0
C      1  0.5576400000000  0.4739490000000  0.4711810000000 1.0
C      1  0.5656220000000  0.5000770000000  0.5107580000000 1.0
C      1  0.4578070000000  0.4581250000000  0.5297440000000 1.0
C      1  0.4832260000000  0.4611810000000  0.5433620000000 1.0
C      1  0.5345520000000  0.5022870000000  0.5486120000000 1.0
C      1  0.4749580000000  0.4766310000000  0.4626880000000 1.0
C      1  0.5139500000000  0.4528820000000  0.4649280000000 1.0
C      1  0.5037950000000  0.4210080000000  0.4981630000000 1.0
C      1  0.4467170000000  0.5493530000000  0.4994390000000 1.0
C      1  0.4928730000000  0.5213290000000  0.4373970000000 1.0
C      1  0.4769050000000  0.4968430000000  0.5081750000000 1.0
C      1  0.4419020000000  0.5303900000000  0.5202540000000 1.0
C      1  0.5198800000000  0.5101240000000  0.4901540000000 1.0
C      1  0.5298600000000  0.5434330000000  0.4557970000000 1.0
C      1  0.4649800000000  0.5182190000000  0.4416560000000 1.0
C      1  0.5543340000000  0.4739890000000  0.5011990000000 1.0
C      1  0.5677640000000  0.5163750000000  0.4879240000000 1.0
C      1  0.4941750000000  0.5179480000000  0.4976500000000 1.0
C      1  0.5317810000000  0.5129550000000  0.4591320000000 1.0
C      1  0.4782000000000  0.5562090000000  0.4644380000000 1.0
C      1  0.5015900000000  0.5466270000000  0.4496070000000 1.0
C      1  0.4796530000000  0.4886740000000  0.5620040000000 1.0
C      1  0.5452620000000  0.5414380000000  0.5205130000000 1.0
C      1  0.4433230000000  0.4833720000000  0.5321970000000 1.0
C      1  0.4558490000000  0.5278760000000  0.5451970000000 1.0
END
