TITL C-95752-3848-6 -0.195552937470949 125000 -94.3366591616978 0 0 15 (C1) n - 1
REM
REM in /rds/project/t2_vol4/rds-t2-cs072/BORA/CARBON/from-Arr/AIRSS/Generating-Clusters/GAP-ML-2020/Only-C1/SD-CG/HFTN-CG
REM
REM
REM
REM
REM
REM ./C.cell (11c1c37f851c82e70ff6c80c92926a4b)
REM AIRSS Version 0.9.1 bugfix July 2018 build 013d7b7c2542+ Fri, 06 Jul 2018 19:26:36 +0100
REM compiler GCC version 9.3.0
REM options -cpp -mtune=generic -march=x86-64 -g -O0
REM seed -878651514 -323190402 91232158 2003358506 -66355080 1635557504 -1797381479 1939507530 -514826263 -145321307 -176606229 -342133074 165041800 919034261 385456903 -1323770097 -1058459340 -151449087 -690533068 1971635150 1467965087 1489969879 -1585598036 -1432674288 -413697419 52166375 1542896888 802904541 2007875657 1317540203 -1702954324 1352877566 -1681779597
REM
CELL 1.54180   50.00000   50.00000   50.00000   90.00000   90.00000   90.00000
LATT -1
SFAC C  
C      1  0.5055540000000  0.5074050000000  0.4659630000000 1.0
C      1  0.4602050000000  0.5197780000000  0.5230300000000 1.0
C      1  0.4656290000000  0.4619120000000  0.4951620000000 1.0
C      1  0.4553660000000  0.4948120000000  0.5313360000000 1.0
C      1  0.4712240000000  0.4754790000000  0.5198450000000 1.0
C      1  0.5147220000000  0.4989470000000  0.5124990000000 1.0
C      1  0.5495050000000  0.5205980000000  0.5449130000000 1.0
C      1  0.5291050000000  0.5166720000000  0.4563440000000 1.0
C      1  0.4992630000000  0.5176480000000  0.4931480000000 1.0
C      1  0.5004240000000  0.4746140000000  0.5115710000000 1.0
C      1  0.5500950000000  0.5254970000000  0.4664730000000 1.0
C      1  0.4786520000000  0.5272480000000  0.5064640000000 1.0
C      1  0.5331780000000  0.5091470000000  0.5295320000000 1.0
C      1  0.4907790000000  0.4687360000000  0.4837470000000 1.0
C      1  0.4962970000000  0.4815070000000  0.4599740000000 1.0
END
