TITL C-95753-4113-3 -16.4336749930578 125000 -148.884522179779 0 0 23 (C1) n - 1
REM
REM in /rds/project/t2_vol4/rds-t2-cs072/BORA/CARBON/from-Arr/AIRSS/Generating-Clusters/GAP-ML-2020/Only-C1/SD-CG/HFTN-CG
REM
REM
REM
REM
REM
REM ./C.cell (11c1c37f851c82e70ff6c80c92926a4b)
REM AIRSS Version 0.9.1 bugfix July 2018 build 013d7b7c2542+ Fri, 06 Jul 2018 19:26:36 +0100
REM compiler GCC version 9.3.0
REM options -cpp -mtune=generic -march=x86-64 -g -O0
REM seed -503808820 -1180440002 -1325274117 -1238459904 1336315441 610037483 -326709735 543695359 -264816694 -1593856152 1825487060 -974089290 -854797319 1491188794 -277919276 -1868899784 -1086454046 -147448989 -738021231 -1877414048 -73470111 -1085552633 -1200038194 -671104999 -2103946112 -37520214 -777508323 -1993271740 1828441437 -156539093 -278861843 -1926217678 -960328706
REM
CELL 1.54180   50.00000   50.00000   50.00000   90.00000   90.00000   90.00000
LATT -1
SFAC C  
C      1  0.5377610000000  0.4522260000000  0.4851380000000 1.0
C      1  0.5345990000000  0.4505270000000  0.5108510000000 1.0
C      1  0.5173410000000  0.5295140000000  0.5561640000000 1.0
C      1  0.4649470000000  0.5398240000000  0.4912560000000 1.0
C      1  0.5150630000000  0.5257130000000  0.4531550000000 1.0
C      1  0.4987880000000  0.5455660000000  0.4570070000000 1.0
C      1  0.4780010000000  0.5516510000000  0.4725480000000 1.0
C      1  0.4674730000000  0.5321120000000  0.5482660000000 1.0
C      1  0.4639440000000  0.5139110000000  0.5026590000000 1.0
C      1  0.5198980000000  0.5018270000000  0.4647700000000 1.0
C      1  0.4775610000000  0.4788860000000  0.4682280000000 1.0
C      1  0.5208130000000  0.4706930000000  0.5242790000000 1.0
C      1  0.4971480000000  0.4743070000000  0.5385320000000 1.0
C      1  0.4875320000000  0.4676200000000  0.4471830000000 1.0
C      1  0.5238070000000  0.4990850000000  0.5152370000000 1.0
C      1  0.4907720000000  0.5201150000000  0.5584220000000 1.0
C      1  0.4810480000000  0.4953740000000  0.4893620000000 1.0
C      1  0.5143820000000  0.4744420000000  0.4535790000000 1.0
C      1  0.5101010000000  0.5015000000000  0.4913370000000 1.0
C      1  0.5333380000000  0.4549010000000  0.4596350000000 1.0
C      1  0.4611780000000  0.5100610000000  0.5314010000000 1.0
C      1  0.4801140000000  0.4922610000000  0.5466830000000 1.0
C      1  0.5243920000000  0.5178840000000  0.5343100000000 1.0
END
