TITL C-95097-8459-3 0.0158651771819222 125000 -114.322378667974 0 0 18 (C1) n - 1
REM
REM in /rds/project/t2_vol4/rds-t2-cs072/BORA/CARBON/from-Arr/AIRSS/Generating-Clusters/GAP-ML-2020/Only-C1/SD-CG/HFTN-CG
REM
REM
REM
REM
REM
REM ./C.cell (11c1c37f851c82e70ff6c80c92926a4b)
REM AIRSS Version 0.9.1 bugfix July 2018 build 013d7b7c2542+ Fri, 06 Jul 2018 19:26:36 +0100
REM compiler GCC version 9.3.0
REM options -cpp -mtune=generic -march=x86-64 -g -O0
REM seed 1876772014 1181609457 -1147081260 804707193 -1155286209 425871610 1014833365 1623746295 -122397878 -1211687109 703467913 -606338953 421233557 870341178 1149991217 -18459516 437825558 -208012215 -1480416528 -1597237674 -1530604865 1478559731 -942508750 1714921206 -1442264886 -1099720111 -1174119658 928518316 1228448684 -648435098 -882083568 260407767 -1295927039
REM
CELL 1.54180   50.00000   50.00000   50.00000   90.00000   90.00000   90.00000
LATT -1
SFAC C  
C      1  0.4842080000000  0.5336940000000  0.4842970000000 1.0
C      1  0.5148750000000  0.5220500000000  0.5390270000000 1.0
C      1  0.4808090000000  0.5342820000000  0.5117220000000 1.0
C      1  0.5469100000000  0.5051430000000  0.4733180000000 1.0
C      1  0.4724680000000  0.4901970000000  0.5281620000000 1.0
C      1  0.5647880000000  0.5230680000000  0.4715140000000 1.0
C      1  0.5267860000000  0.4986420000000  0.5418680000000 1.0
C      1  0.4995380000000  0.5411350000000  0.5316010000000 1.0
C      1  0.4781540000000  0.5089560000000  0.4745360000000 1.0
C      1  0.4678420000000  0.4737820000000  0.5053710000000 1.0
C      1  0.4619660000000  0.5135420000000  0.5168840000000 1.0
C      1  0.4910800000000  0.4624650000000  0.4930890000000 1.0
C      1  0.5244490000000  0.4780520000000  0.5263620000000 1.0
C      1  0.4568240000000  0.4986430000000  0.4926910000000 1.0
C      1  0.5247310000000  0.4902620000000  0.4777480000000 1.0
C      1  0.4978000000000  0.4901180000000  0.4649910000000 1.0
C      1  0.5176150000000  0.4721370000000  0.5007720000000 1.0
C      1  0.4891570000000  0.4638340000000  0.4660470000000 1.0
END
