TITL C-95734-3637-1 0.043881896673764 125000 -312.958710321307 0 0 47 (C1) n - 1
REM
REM in /rds/project/t2_vol4/rds-t2-cs072/BORA/CARBON/from-Arr/AIRSS/Generating-Clusters/GAP-ML-2020/Only-C1/SD-CG/HFTN-CG
REM
REM
REM
REM
REM
REM ./C.cell (11c1c37f851c82e70ff6c80c92926a4b)
REM AIRSS Version 0.9.1 bugfix July 2018 build 013d7b7c2542+ Fri, 06 Jul 2018 19:26:36 +0100
REM compiler GCC version 9.3.0
REM options -cpp -mtune=generic -march=x86-64 -g -O0
REM seed 1646091982 -857726284 -1146175422 -89612922 84699648 -268707897 1304717272 1276042338 977533763 838770290 495850630 -1259114281 -29653280 409723419 244380066 1085664406 1675307711 227808607 -2128730413 -1358562871 -1818363926 268729181 -178580446 -1077960865 1155135705 -1620773289 1764600523 1314209470 2110107810 1429578801 -1141510056 1926866817 -1006153213
REM
CELL 1.54180   50.00000   50.00000   50.00000   90.00000   90.00000   90.00000
LATT -1
SFAC C  
C      1  0.4322380000000  0.4889470000000  0.4988190000000 1.0
C      1  0.4735880000000  0.4963200000000  0.5522170000000 1.0
C      1  0.4508440000000  0.4547710000000  0.4730760000000 1.0
C      1  0.5215880000000  0.4780010000000  0.5513380000000 1.0
C      1  0.5677780000000  0.5124060000000  0.4987420000000 1.0
C      1  0.4978960000000  0.5634590000000  0.5439530000000 1.0
C      1  0.4557100000000  0.4787730000000  0.5424130000000 1.0
C      1  0.5253920000000  0.4614540000000  0.4657510000000 1.0
C      1  0.5151830000000  0.5605190000000  0.5216290000000 1.0
C      1  0.5367680000000  0.4488570000000  0.5148340000000 1.0
C      1  0.5582960000000  0.5375640000000  0.5083920000000 1.0
C      1  0.5527360000000  0.4954260000000  0.4587350000000 1.0
C      1  0.4417310000000  0.5133770000000  0.4847620000000 1.0
C      1  0.5220610000000  0.4535530000000  0.5381590000000 1.0
C      1  0.5256140000000  0.4902120000000  0.5063400000000 1.0
C      1  0.5431400000000  0.5225360000000  0.4601430000000 1.0
C      1  0.5391890000000  0.5442810000000  0.5278080000000 1.0
C      1  0.4664850000000  0.4717830000000  0.4321020000000 1.0
C      1  0.5123420000000  0.5194480000000  0.4947030000000 1.0
C      1  0.5408010000000  0.4681320000000  0.4936290000000 1.0
C      1  0.4983000000000  0.4531770000000  0.4691690000000 1.0
C      1  0.4320790000000  0.4758980000000  0.4725700000000 1.0
C      1  0.4861680000000  0.5100080000000  0.5061930000000 1.0
C      1  0.4762000000000  0.5214680000000  0.4381510000000 1.0
C      1  0.4601620000000  0.4989980000000  0.4392180000000 1.0
C      1  0.4807610000000  0.5467370000000  0.4819230000000 1.0
C      1  0.4976010000000  0.4824140000000  0.5080290000000 1.0
C      1  0.4903120000000  0.5337390000000  0.4574720000000 1.0
C      1  0.5353610000000  0.4961010000000  0.5338910000000 1.0
C      1  0.5599070000000  0.5339990000000  0.4814600000000 1.0
C      1  0.5397770000000  0.4744410000000  0.4465540000000 1.0
C      1  0.5005290000000  0.4949780000000  0.5626980000000 1.0
C      1  0.5613390000000  0.4877790000000  0.4855550000000 1.0
C      1  0.4766820000000  0.5442820000000  0.5439510000000 1.0
C      1  0.4612150000000  0.4542480000000  0.4992360000000 1.0
C      1  0.4386750000000  0.5005210000000  0.4587610000000 1.0
C      1  0.4656580000000  0.5256390000000  0.4924030000000 1.0
C      1  0.5158250000000  0.5236520000000  0.4664160000000 1.0
C      1  0.4908920000000  0.4550180000000  0.4978760000000 1.0
C      1  0.4964330000000  0.5446950000000  0.5646790000000 1.0
C      1  0.5333950000000  0.5223470000000  0.5449270000000 1.0
C      1  0.5048630000000  0.5502730000000  0.4976980000000 1.0
C      1  0.4469610000000  0.4721860000000  0.5174130000000 1.0
C      1  0.4749030000000  0.5188420000000  0.5317630000000 1.0
C      1  0.4736190000000  0.4564920000000  0.4539810000000 1.0
C      1  0.5105040000000  0.4404810000000  0.5166600000000 1.0
C      1  0.5124990000000  0.5217700000000  0.5638070000000 1.0
END
