TITL C-95739-3409-5 -89.3530736200951 125000 -570.876717174448 0 0 83 (C1) n - 1
REM
REM in /rds/project/t2_vol4/rds-t2-cs072/BORA/CARBON/from-Arr/AIRSS/Generating-Clusters/GAP-ML-2020/Only-C1/SD-CG/HFTN-CG
REM
REM
REM
REM
REM
REM ./C.cell (11c1c37f851c82e70ff6c80c92926a4b)
REM AIRSS Version 0.9.1 bugfix July 2018 build 013d7b7c2542+ Fri, 06 Jul 2018 19:26:36 +0100
REM compiler GCC version 9.3.0
REM options -cpp -mtune=generic -march=x86-64 -g -O0
REM seed 2064607949 1309078899 -88320307 -742917090 -366700128 -159728432 -1346890738 1066009496 -504101744 -881929989 1116084166 -1807880551 240632619 1883855591 -285401466 -684345967 253543571 -136819080 -166712623 -933729104 -1267535426 1944985650 1878031994 -755119561 -593009063 509250469 -445269477 1388987601 -1382456840 217060972 -187158675 -539525618 1834253210
REM
CELL 1.54180   50.00000   50.00000   50.00000   90.00000   90.00000   90.00000
LATT -1
SFAC C  
C      1  0.4471880000000  0.4433970000000  0.4596120000000 1.0
C      1  0.5219570000000  0.4303060000000  0.5273010000000 1.0
C      1  0.5203970000000  0.5160540000000  0.4248050000000 1.0
C      1  0.5566860000000  0.4618120000000  0.5420040000000 1.0
C      1  0.5296700000000  0.5547630000000  0.4562080000000 1.0
C      1  0.5464020000000  0.5034370000000  0.4314060000000 1.0
C      1  0.4398280000000  0.4626720000000  0.4416500000000 1.0
C      1  0.4748700000000  0.5272670000000  0.5607820000000 1.0
C      1  0.4454950000000  0.4966870000000  0.4888200000000 1.0
C      1  0.5133580000000  0.4293920000000  0.4787110000000 1.0
C      1  0.5656370000000  0.5305160000000  0.5408110000000 1.0
C      1  0.4917870000000  0.4493630000000  0.4423400000000 1.0
C      1  0.4545350000000  0.4496660000000  0.5402400000000 1.0
C      1  0.4626960000000  0.5286120000000  0.4568450000000 1.0
C      1  0.5087060000000  0.5744380000000  0.4600940000000 1.0
C      1  0.5780920000000  0.4936700000000  0.5139190000000 1.0
C      1  0.4461560000000  0.5057550000000  0.4598140000000 1.0
C      1  0.5090650000000  0.5369880000000  0.4422970000000 1.0
C      1  0.4666420000000  0.4235020000000  0.5290990000000 1.0
C      1  0.4645380000000  0.5721970000000  0.4786510000000 1.0
C      1  0.4910000000000  0.5237310000000  0.4641500000000 1.0
C      1  0.4651410000000  0.5569670000000  0.4534420000000 1.0
C      1  0.4464920000000  0.5193640000000  0.5112510000000 1.0
C      1  0.4864650000000  0.4792190000000  0.4389240000000 1.0
C      1  0.4416170000000  0.5544200000000  0.5392360000000 1.0
C      1  0.4775070000000  0.5282400000000  0.5119430000000 1.0
C      1  0.4766350000000  0.4857660000000  0.4876270000000 1.0
C      1  0.4330420000000  0.4701770000000  0.4988910000000 1.0
C      1  0.5749040000000  0.4812470000000  0.4628830000000 1.0
C      1  0.5132920000000  0.5037490000000  0.5825880000000 1.0
C      1  0.4943070000000  0.4315470000000  0.5326340000000 1.0
C      1  0.4873590000000  0.5008780000000  0.5099740000000 1.0
C      1  0.5391470000000  0.4413390000000  0.5457220000000 1.0
C      1  0.4336530000000  0.5465580000000  0.5123640000000 1.0
C      1  0.5167850000000  0.4420880000000  0.4533910000000 1.0
C      1  0.5688930000000  0.5403670000000  0.5148660000000 1.0
C      1  0.5319430000000  0.5770090000000  0.5117640000000 1.0
C      1  0.5467880000000  0.5548680000000  0.5010970000000 1.0
C      1  0.5258060000000  0.5034060000000  0.4999660000000 1.0
C      1  0.4821340000000  0.4583350000000  0.5259000000000 1.0
C      1  0.5557200000000  0.4498830000000  0.4936770000000 1.0
C      1  0.4730700000000  0.4333190000000  0.4557560000000 1.0
C      1  0.5772720000000  0.5189330000000  0.4978280000000 1.0
C      1  0.4893190000000  0.4849310000000  0.5339810000000 1.0
C      1  0.4900380000000  0.5395090000000  0.5390200000000 1.0
C      1  0.5395260000000  0.4565390000000  0.4463200000000 1.0
C      1  0.5375480000000  0.5054470000000  0.5701910000000 1.0
C      1  0.4502380000000  0.4675890000000  0.5650670000000 1.0
C      1  0.5136930000000  0.4982160000000  0.5255290000000 1.0
C      1  0.4841290000000  0.4280660000000  0.4819470000000 1.0
C      1  0.5398940000000  0.5296140000000  0.5528280000000 1.0
C      1  0.5084430000000  0.4891580000000  0.4215170000000 1.0
C      1  0.5051310000000  0.5792630000000  0.5130620000000 1.0
C      1  0.5693680000000  0.5260940000000  0.4708160000000 1.0
C      1  0.4593300000000  0.5736150000000  0.5281830000000 1.0
C      1  0.5520690000000  0.5490410000000  0.4717840000000 1.0
C      1  0.4673760000000  0.4844250000000  0.5783710000000 1.0
C      1  0.4430230000000  0.5086680000000  0.5398340000000 1.0
C      1  0.5342810000000  0.4772760000000  0.4280200000000 1.0
C      1  0.4951610000000  0.4939970000000  0.4662150000000 1.0
C      1  0.5672130000000  0.4662880000000  0.5144770000000 1.0
C      1  0.5321740000000  0.4339830000000  0.4994170000000 1.0
C      1  0.4863400000000  0.5067410000000  0.5836180000000 1.0
C      1  0.4437300000000  0.4451900000000  0.4880640000000 1.0
C      1  0.4553610000000  0.4847220000000  0.4416470000000 1.0
C      1  0.4603120000000  0.4232710000000  0.5004170000000 1.0
C      1  0.4771330000000  0.4581370000000  0.4966890000000 1.0
C      1  0.5222550000000  0.5335760000000  0.5041990000000 1.0
C      1  0.5599610000000  0.4591090000000  0.4667390000000 1.0
C      1  0.4706440000000  0.4985700000000  0.5509110000000 1.0
C      1  0.4305870000000  0.4832720000000  0.5474900000000 1.0
C      1  0.5220090000000  0.4905570000000  0.4762990000000 1.0
C      1  0.4482640000000  0.5692780000000  0.5007810000000 1.0
C      1  0.5580200000000  0.4873620000000  0.5572070000000 1.0
C      1  0.4940710000000  0.5713530000000  0.4857170000000 1.0
C      1  0.5167590000000  0.5284890000000  0.5342940000000 1.0
C      1  0.4867240000000  0.5685410000000  0.5325660000000 1.0
C      1  0.4905440000000  0.5618680000000  0.4410960000000 1.0
C      1  0.4465600000000  0.5337580000000  0.5558510000000 1.0
C      1  0.4960160000000  0.5389160000000  0.4904010000000 1.0
C      1  0.5747890000000  0.5036170000000  0.5408690000000 1.0
C      1  0.5674340000000  0.5051260000000  0.4511190000000 1.0
C      1  0.4318540000000  0.4649250000000  0.5261620000000 1.0
END
