TITL C-95734-3637-12 -3.35239311247156 125000 -658.134516736407 0 0 94 (C1) n - 1
REM
REM in /rds/project/t2_vol4/rds-t2-cs072/BORA/CARBON/from-Arr/AIRSS/Generating-Clusters/GAP-ML-2020/Only-C1/SD-CG/HFTN-CG
REM
REM
REM
REM
REM
REM ./C.cell (11c1c37f851c82e70ff6c80c92926a4b)
REM AIRSS Version 0.9.1 bugfix July 2018 build 013d7b7c2542+ Fri, 06 Jul 2018 19:26:36 +0100
REM compiler GCC version 9.3.0
REM options -cpp -mtune=generic -march=x86-64 -g -O0
REM seed -541696975 120090789 -1617586051 1173100921 180641520 -1307936396 -1366330219 -694911901 304304739 -1425613530 1341590622 827341216 -1050763974 -1180484384 -144077183 -1158867039 110579061 -1617357504 -203201177 166142257 1101140896 -1967596683 -1806837326 314407331 -1215411090 -54046112 864428924 2117161574 -277491821 914300152 2083171140 886363664 772136129
REM
CELL 1.54180   50.00000   50.00000   50.00000   90.00000   90.00000   90.00000
LATT -1
SFAC C  
C      1  0.4805360000000  0.4919900000000  0.4886040000000 1.0
C      1  0.4753630000000  0.5323240000000  0.5721730000000 1.0
C      1  0.5216140000000  0.4304550000000  0.5379660000000 1.0
C      1  0.5477050000000  0.5499260000000  0.5687110000000 1.0
C      1  0.4492190000000  0.5605510000000  0.4799180000000 1.0
C      1  0.5170930000000  0.5818630000000  0.4839870000000 1.0
C      1  0.4748460000000  0.5797440000000  0.5145070000000 1.0
C      1  0.4824760000000  0.5190690000000  0.5008090000000 1.0
C      1  0.5554480000000  0.4408730000000  0.4670090000000 1.0
C      1  0.5193400000000  0.5550000000000  0.5706370000000 1.0
C      1  0.5365280000000  0.5732600000000  0.5299240000000 1.0
C      1  0.4685000000000  0.5456740000000  0.5461340000000 1.0
C      1  0.5329300000000  0.4725230000000  0.4386990000000 1.0
C      1  0.4396780000000  0.4442580000000  0.5231460000000 1.0
C      1  0.4675490000000  0.4924960000000  0.4632050000000 1.0
C      1  0.4259230000000  0.5184330000000  0.4931430000000 1.0
C      1  0.5735140000000  0.4874400000000  0.4758990000000 1.0
C      1  0.4371310000000  0.4729000000000  0.5115640000000 1.0
C      1  0.5125360000000  0.5709770000000  0.5475520000000 1.0
C      1  0.5020450000000  0.5346300000000  0.5815080000000 1.0
C      1  0.5490140000000  0.5265110000000  0.4449590000000 1.0
C      1  0.4354910000000  0.5362110000000  0.4713590000000 1.0
C      1  0.5050820000000  0.5165860000000  0.4442210000000 1.0
C      1  0.4271160000000  0.5298610000000  0.5182150000000 1.0
C      1  0.4925790000000  0.5642910000000  0.4491740000000 1.0
C      1  0.4882040000000  0.4892920000000  0.5853970000000 1.0
C      1  0.4878830000000  0.4932710000000  0.4429770000000 1.0
C      1  0.4626710000000  0.4528610000000  0.4328280000000 1.0
C      1  0.5385520000000  0.5739700000000  0.5011300000000 1.0
C      1  0.4397780000000  0.4794820000000  0.5402210000000 1.0
C      1  0.5557540000000  0.5085150000000  0.5715110000000 1.0
C      1  0.4789350000000  0.4503170000000  0.5543260000000 1.0
C      1  0.5387200000000  0.4497000000000  0.5518070000000 1.0
C      1  0.5056680000000  0.4415370000000  0.4510050000000 1.0
C      1  0.4910060000000  0.4296660000000  0.4740770000000 1.0
C      1  0.5467060000000  0.4570510000000  0.5083450000000 1.0
C      1  0.4889280000000  0.5849620000000  0.4899870000000 1.0
C      1  0.4812650000000  0.4181830000000  0.5180860000000 1.0
C      1  0.5238900000000  0.5259000000000  0.5203180000000 1.0
C      1  0.4267830000000  0.4889100000000  0.4894560000000 1.0
C      1  0.4863780000000  0.5399680000000  0.4361520000000 1.0
C      1  0.5613220000000  0.5328160000000  0.5846810000000 1.0
C      1  0.4684110000000  0.4697580000000  0.5045210000000 1.0
C      1  0.5195530000000  0.5691330000000  0.4583880000000 1.0
C      1  0.5540650000000  0.5117820000000  0.4708120000000 1.0
C      1  0.5335910000000  0.4916260000000  0.5817580000000 1.0
C      1  0.4522500000000  0.4546880000000  0.4595750000000 1.0
C      1  0.5589960000000  0.4605130000000  0.5336390000000 1.0
C      1  0.4319500000000  0.4970830000000  0.4394280000000 1.0
C      1  0.4569520000000  0.4279250000000  0.5072960000000 1.0
C      1  0.5017090000000  0.4712240000000  0.4097450000000 1.0
C      1  0.5269740000000  0.4227250000000  0.5100280000000 1.0
C      1  0.4500740000000  0.5668120000000  0.5079350000000 1.0
C      1  0.4852160000000  0.5697950000000  0.5390290000000 1.0
C      1  0.5062700000000  0.5102520000000  0.5344310000000 1.0
C      1  0.5220770000000  0.4739410000000  0.5055500000000 1.0
C      1  0.5080690000000  0.4829930000000  0.5282680000000 1.0
C      1  0.5754690000000  0.4613100000000  0.4683120000000 1.0
C      1  0.5431320000000  0.5525800000000  0.4579790000000 1.0
C      1  0.4300200000000  0.4874470000000  0.4138610000000 1.0
C      1  0.5203920000000  0.5117050000000  0.4743060000000 1.0
C      1  0.4685530000000  0.5041060000000  0.5722840000000 1.0
C      1  0.4425910000000  0.5492690000000  0.5290630000000 1.0
C      1  0.4933070000000  0.4275850000000  0.5421070000000 1.0
C      1  0.4811680000000  0.4723420000000  0.5316770000000 1.0
C      1  0.4735150000000  0.5734590000000  0.4688340000000 1.0
C      1  0.5104810000000  0.5070850000000  0.5890760000000 1.0
C      1  0.4799420000000  0.4887590000000  0.4150910000000 1.0
C      1  0.4389440000000  0.4814370000000  0.4634690000000 1.0
C      1  0.4483390000000  0.4526620000000  0.5482860000000 1.0
C      1  0.5076200000000  0.4728230000000  0.4552450000000 1.0
C      1  0.4605420000000  0.5333720000000  0.4299210000000 1.0
C      1  0.4632340000000  0.4957650000000  0.5447340000000 1.0
C      1  0.5013110000000  0.4176990000000  0.4978350000000 1.0
C      1  0.4902380000000  0.4479620000000  0.4267670000000 1.0
C      1  0.5651760000000  0.5080090000000  0.5437960000000 1.0
C      1  0.5790580000000  0.4989350000000  0.5017880000000 1.0
C      1  0.5292860000000  0.5118020000000  0.4277190000000 1.0
C      1  0.4772900000000  0.5190580000000  0.5300210000000 1.0
C      1  0.4542610000000  0.4759950000000  0.4165310000000 1.0
C      1  0.5270000000000  0.4856630000000  0.4148570000000 1.0
C      1  0.4959490000000  0.4633740000000  0.5757830000000 1.0
C      1  0.4393950000000  0.5252610000000  0.4446670000000 1.0
C      1  0.5543000000000  0.5550800000000  0.4852500000000 1.0
C      1  0.5250110000000  0.4647920000000  0.5729090000000 1.0
C      1  0.4658230000000  0.4424240000000  0.4819880000000 1.0
C      1  0.5358790000000  0.4439470000000  0.4469090000000 1.0
C      1  0.5478480000000  0.4330410000000  0.4939360000000 1.0
C      1  0.5099360000000  0.4849480000000  0.4819090000000 1.0
C      1  0.5543070000000  0.5292140000000  0.5255370000000 1.0
C      1  0.5653250000000  0.5271760000000  0.4964200000000 1.0
C      1  0.5097110000000  0.5282160000000  0.4959050000000 1.0
C      1  0.5727900000000  0.4861170000000  0.5285420000000 1.0
C      1  0.5550020000000  0.5550830000000  0.5409560000000 1.0
END
