TITL C-95757-4194-5 -0.499100014080838 125000 -808.831214768106 0 0 115 (C1) n - 1
REM
REM in /rds/project/t2_vol4/rds-t2-cs072/BORA/CARBON/from-Arr/AIRSS/Generating-Clusters/GAP-ML-2020/Only-C1/SD-CG/HFTN-CG
REM
REM
REM
REM
REM
REM ./C.cell (11c1c37f851c82e70ff6c80c92926a4b)
REM AIRSS Version 0.9.1 bugfix July 2018 build 013d7b7c2542+ Fri, 06 Jul 2018 19:26:36 +0100
REM compiler GCC version 9.3.0
REM options -cpp -mtune=generic -march=x86-64 -g -O0
REM seed -811327016 117343320 -816653114 2087190415 -413710111 294468644 -1033060705 -349205637 2026757040 191477294 -898528547 2017580864 119176723 -877410634 1243399109 -1056042950 -2083133748 998220903 -1085182606 484020899 -1716669525 1043835831 193299617 -2053375143 -1877520106 -1415809589 -687253758 -148811635 -94148367 1860349136 1112956090 984564595 130888530
REM
CELL 1.54180   50.00000   50.00000   50.00000   90.00000   90.00000   90.00000
LATT -1
SFAC C  
C      1  0.4400160000000  0.5473790000000  0.5545630000000 1.0
C      1  0.4701890000000  0.4858240000000  0.4893700000000 1.0
C      1  0.5401410000000  0.4754800000000  0.4998650000000 1.0
C      1  0.4937750000000  0.4579270000000  0.5605320000000 1.0
C      1  0.5333450000000  0.5620060000000  0.5358320000000 1.0
C      1  0.5889850000000  0.5009210000000  0.4777040000000 1.0
C      1  0.5625510000000  0.4663410000000  0.5544560000000 1.0
C      1  0.5295390000000  0.5749270000000  0.5117670000000 1.0
C      1  0.4803720000000  0.5419670000000  0.5370320000000 1.0
C      1  0.4335910000000  0.4439430000000  0.4712480000000 1.0
C      1  0.5313540000000  0.5650250000000  0.4384130000000 1.0
C      1  0.5305060000000  0.4249830000000  0.4864740000000 1.0
C      1  0.4969530000000  0.5906860000000  0.4584110000000 1.0
C      1  0.5288220000000  0.4534920000000  0.5180940000000 1.0
C      1  0.4130950000000  0.4963600000000  0.4850680000000 1.0
C      1  0.6026730000000  0.4898250000000  0.4994140000000 1.0
C      1  0.5332510000000  0.5177110000000  0.4087010000000 1.0
C      1  0.4825110000000  0.5387430000000  0.4684980000000 1.0
C      1  0.4993050000000  0.4506130000000  0.5121790000000 1.0
C      1  0.5441110000000  0.4405200000000  0.4675270000000 1.0
C      1  0.4523100000000  0.5342000000000  0.4669900000000 1.0
C      1  0.4819070000000  0.4450220000000  0.4424360000000 1.0
C      1  0.5583180000000  0.4916540000000  0.4389230000000 1.0
C      1  0.4811480000000  0.4285090000000  0.4657320000000 1.0
C      1  0.5068650000000  0.5636180000000  0.4222820000000 1.0
C      1  0.5435390000000  0.4582180000000  0.5750540000000 1.0
C      1  0.4150360000000  0.4824750000000  0.5321240000000 1.0
C      1  0.5407700000000  0.4723730000000  0.4284050000000 1.0
C      1  0.4520130000000  0.5035640000000  0.5601730000000 1.0
C      1  0.5255780000000  0.5830600000000  0.4604480000000 1.0
C      1  0.4612680000000  0.4674500000000  0.4387300000000 1.0
C      1  0.4121280000000  0.4747210000000  0.5046440000000 1.0
C      1  0.4448670000000  0.5712140000000  0.5093780000000 1.0
C      1  0.5150520000000  0.5554890000000  0.4963750000000 1.0
C      1  0.5023840000000  0.5219810000000  0.4592910000000 1.0
C      1  0.5740430000000  0.5357920000000  0.5305990000000 1.0
C      1  0.5612420000000  0.4607010000000  0.4812810000000 1.0
C      1  0.4113270000000  0.5110360000000  0.5391390000000 1.0
C      1  0.5833520000000  0.5292910000000  0.4801110000000 1.0
C      1  0.4657430000000  0.4880470000000  0.4155130000000 1.0
C      1  0.4453140000000  0.5104030000000  0.4506150000000 1.0
C      1  0.4937750000000  0.4993180000000  0.4467080000000 1.0
C      1  0.4105170000000  0.5328140000000  0.5209830000000 1.0
C      1  0.4934700000000  0.5416620000000  0.4092530000000 1.0
C      1  0.5412880000000  0.5812500000000  0.4858800000000 1.0
C      1  0.5071760000000  0.4486620000000  0.4315140000000 1.0
C      1  0.4483730000000  0.5285760000000  0.4952550000000 1.0
C      1  0.5210760000000  0.5119230000000  0.4770600000000 1.0
C      1  0.4862530000000  0.5788850000000  0.4347170000000 1.0
C      1  0.5704200000000  0.4946450000000  0.5613180000000 1.0
C      1  0.4459050000000  0.5624880000000  0.4588540000000 1.0
C      1  0.5909020000000  0.4849910000000  0.5227990000000 1.0
C      1  0.5428120000000  0.5321250000000  0.5712340000000 1.0
C      1  0.5738840000000  0.5063670000000  0.5348700000000 1.0
C      1  0.4845100000000  0.4101580000000  0.5104050000000 1.0
C      1  0.5784950000000  0.4601130000000  0.5298520000000 1.0
C      1  0.4498140000000  0.4446740000000  0.5384850000000 1.0
C      1  0.5203920000000  0.4400090000000  0.5733190000000 1.0
C      1  0.4874650000000  0.5027650000000  0.5935590000000 1.0
C      1  0.4392240000000  0.4331230000000  0.5154310000000 1.0
C      1  0.5767540000000  0.5449620000000  0.5037600000000 1.0
C      1  0.4875270000000  0.5583600000000  0.4896240000000 1.0
C      1  0.5391250000000  0.4141390000000  0.5357780000000 1.0
C      1  0.4504390000000  0.5802080000000  0.4814560000000 1.0
C      1  0.4946410000000  0.4778840000000  0.5017410000000 1.0
C      1  0.4689540000000  0.5461780000000  0.5634370000000 1.0
C      1  0.4659380000000  0.5396960000000  0.4181210000000 1.0
C      1  0.5236280000000  0.5285500000000  0.4985140000000 1.0
C      1  0.5006030000000  0.4259120000000  0.4900620000000 1.0
C      1  0.5088530000000  0.4802980000000  0.5495400000000 1.0
C      1  0.4612090000000  0.5641480000000  0.4343780000000 1.0
C      1  0.4946640000000  0.4931410000000  0.4142100000000 1.0
C      1  0.5144840000000  0.5373910000000  0.5703170000000 1.0
C      1  0.5532920000000  0.5456510000000  0.4401610000000 1.0
C      1  0.4790460000000  0.5856290000000  0.4800200000000 1.0
C      1  0.5107860000000  0.5429010000000  0.5421860000000 1.0
C      1  0.4294600000000  0.5210150000000  0.5586500000000 1.0
C      1  0.4919550000000  0.4160420000000  0.5385270000000 1.0
C      1  0.4457100000000  0.4768490000000  0.5706690000000 1.0
C      1  0.4232200000000  0.4492760000000  0.4971560000000 1.0
C      1  0.4698840000000  0.4896160000000  0.4593250000000 1.0
C      1  0.5519860000000  0.5188850000000  0.4278130000000 1.0
C      1  0.5176610000000  0.4847760000000  0.4846260000000 1.0
C      1  0.4282930000000  0.5566030000000  0.5298790000000 1.0
C      1  0.5082120000000  0.4819500000000  0.5962640000000 1.0
C      1  0.5702390000000  0.4450680000000  0.5072720000000 1.0
C      1  0.5001870000000  0.4548140000000  0.5878070000000 1.0
C      1  0.4671240000000  0.5524180000000  0.5109510000000 1.0
C      1  0.4345370000000  0.4641610000000  0.4518480000000 1.0
C      1  0.5453020000000  0.4285690000000  0.5120490000000 1.0
C      1  0.5515330000000  0.5055580000000  0.5787550000000 1.0
C      1  0.5341590000000  0.4478770000000  0.4425830000000 1.0
C      1  0.4246070000000  0.4907960000000  0.4597850000000 1.0
C      1  0.4538140000000  0.5138400000000  0.4226350000000 1.0
C      1  0.4983400000000  0.4956440000000  0.5285320000000 1.0
C      1  0.4726490000000  0.5103930000000  0.5331390000000 1.0
C      1  0.4581110000000  0.4167080000000  0.5025610000000 1.0
C      1  0.5647700000000  0.5653280000000  0.4856910000000 1.0
C      1  0.5723520000000  0.4829830000000  0.4629010000000 1.0
C      1  0.4610440000000  0.5057550000000  0.5066220000000 1.0
C      1  0.4624450000000  0.4938340000000  0.5854550000000 1.0
C      1  0.5444240000000  0.4959340000000  0.5230060000000 1.0
C      1  0.4334780000000  0.4657230000000  0.5486270000000 1.0
C      1  0.5178390000000  0.4187610000000  0.5524110000000 1.0
C      1  0.4184960000000  0.5226980000000  0.4961670000000 1.0
C      1  0.4554360000000  0.4252790000000  0.4756050000000 1.0
C      1  0.4799630000000  0.4423980000000  0.5403100000000 1.0
C      1  0.5354880000000  0.4830490000000  0.5884450000000 1.0
C      1  0.5210620000000  0.5154490000000  0.5235080000000 1.0
C      1  0.5704290000000  0.5487300000000  0.4625940000000 1.0
C      1  0.5141500000000  0.4721280000000  0.4160330000000 1.0
C      1  0.5548890000000  0.5475940000000  0.5487600000000 1.0
C      1  0.4894510000000  0.5308650000000  0.5813950000000 1.0
C      1  0.5353700000000  0.4720320000000  0.5402720000000 1.0
C      1  0.5069510000000  0.5175170000000  0.4031780000000 1.0
END
