TITL C-95752-3848-8 94.7113650749312 125000 -1114.37086547088 0 0 156 (C1) n - 1
REM
REM in /rds/project/t2_vol4/rds-t2-cs072/BORA/CARBON/from-Arr/AIRSS/Generating-Clusters/GAP-ML-2020/Only-C1/SD-CG/HFTN-CG
REM
REM
REM
REM
REM
REM ./C.cell (11c1c37f851c82e70ff6c80c92926a4b)
REM AIRSS Version 0.9.1 bugfix July 2018 build 013d7b7c2542+ Fri, 06 Jul 2018 19:26:36 +0100
REM compiler GCC version 9.3.0
REM options -cpp -mtune=generic -march=x86-64 -g -O0
REM seed -1590689548 2021254178 -1581068334 -1884874189 -2010159532 500903641 -539601199 1979790101 333445523 256085903 1575705736 -753782873 1435777508 -1045131652 -2080479790 1466393594 -2093881158 -831220727 1032239920 -290747357 1115200240 1822023069 -855706143 -1554515661 1717056956 -269181265 -978783303 -8020158 -781550136 -265043898 744378607 526258722 -1237171149
REM
CELL 1.54180   50.00000   50.00000   50.00000   90.00000   90.00000   90.00000
LATT -1
SFAC C  
C      1  0.5641530000000  0.4863530000000  0.5423900000000 1.0
C      1  0.5639940000000  0.4095050000000  0.4820260000000 1.0
C      1  0.5126510000000  0.4054660000000  0.4850170000000 1.0
C      1  0.5155650000000  0.5540230000000  0.5872530000000 1.0
C      1  0.4483470000000  0.4911880000000  0.4759830000000 1.0
C      1  0.5395010000000  0.5617990000000  0.5740180000000 1.0
C      1  0.5288980000000  0.4917230000000  0.5124700000000 1.0
C      1  0.5749550000000  0.5607130000000  0.4809180000000 1.0
C      1  0.4060590000000  0.5020690000000  0.5316780000000 1.0
C      1  0.5426930000000  0.4545390000000  0.4124500000000 1.0
C      1  0.5145460000000  0.5910190000000  0.5447130000000 1.0
C      1  0.5716790000000  0.5366230000000  0.5467840000000 1.0
C      1  0.5167780000000  0.3971470000000  0.5127160000000 1.0
C      1  0.5691770000000  0.4518970000000  0.4227290000000 1.0
C      1  0.5461030000000  0.4685030000000  0.5228850000000 1.0
C      1  0.5200980000000  0.4828000000000  0.4391760000000 1.0
C      1  0.5551750000000  0.5055150000000  0.4761900000000 1.0
C      1  0.5633520000000  0.4241720000000  0.5575580000000 1.0
C      1  0.5256870000000  0.5451980000000  0.5297050000000 1.0
C      1  0.5523210000000  0.4577320000000  0.5874120000000 1.0
C      1  0.5530040000000  0.5808450000000  0.4824580000000 1.0
C      1  0.4810990000000  0.4032130000000  0.4857110000000 1.0
C      1  0.6038890000000  0.4562110000000  0.5071150000000 1.0
C      1  0.4325460000000  0.4364760000000  0.4988990000000 1.0
C      1  0.4892990000000  0.5062970000000  0.3984410000000 1.0
C      1  0.4907080000000  0.5669840000000  0.5811700000000 1.0
C      1  0.4772140000000  0.5322810000000  0.4002840000000 1.0
C      1  0.5174290000000  0.5254700000000  0.5934050000000 1.0
C      1  0.5816050000000  0.5128380000000  0.4640230000000 1.0
C      1  0.5762640000000  0.5592310000000  0.5302310000000 1.0
C      1  0.4102340000000  0.5214060000000  0.5534610000000 1.0
C      1  0.6000840000000  0.5050040000000  0.4868200000000 1.0
C      1  0.4654120000000  0.4869620000000  0.5478740000000 1.0
C      1  0.4158480000000  0.5711700000000  0.4617690000000 1.0
C      1  0.4487230000000  0.5089600000000  0.5890410000000 1.0
C      1  0.4438530000000  0.4897260000000  0.4179540000000 1.0
C      1  0.4716930000000  0.4041230000000  0.5127010000000 1.0
C      1  0.5712390000000  0.4479500000000  0.5718920000000 1.0
C      1  0.4473160000000  0.4189370000000  0.5184640000000 1.0
C      1  0.5842820000000  0.4658550000000  0.5532050000000 1.0
C      1  0.4037130000000  0.5507830000000  0.4773490000000 1.0
C      1  0.4446470000000  0.5526700000000  0.5715470000000 1.0
C      1  0.5722840000000  0.5127330000000  0.5287620000000 1.0
C      1  0.5805740000000  0.4284380000000  0.4678370000000 1.0
C      1  0.5844410000000  0.4523870000000  0.4859250000000 1.0
C      1  0.4614510000000  0.5181920000000  0.5134030000000 1.0
C      1  0.4852450000000  0.4741950000000  0.4888150000000 1.0
C      1  0.4864260000000  0.5360650000000  0.5087410000000 1.0
C      1  0.4491560000000  0.4637270000000  0.4594380000000 1.0
C      1  0.5021460000000  0.4325400000000  0.4311090000000 1.0
C      1  0.5407980000000  0.5164500000000  0.5798150000000 1.0
C      1  0.5372160000000  0.4506920000000  0.4775440000000 1.0
C      1  0.4901680000000  0.4371730000000  0.4558480000000 1.0
C      1  0.5859950000000  0.5499480000000  0.5052180000000 1.0
C      1  0.5833730000000  0.4987400000000  0.4379880000000 1.0
C      1  0.4693520000000  0.5886070000000  0.5108860000000 1.0
C      1  0.4673600000000  0.5520390000000  0.5886430000000 1.0
C      1  0.5325370000000  0.5807000000000  0.4616780000000 1.0
C      1  0.4135440000000  0.4590700000000  0.5029400000000 1.0
C      1  0.5373090000000  0.5639860000000  0.4379000000000 1.0
C      1  0.4695240000000  0.5249170000000  0.5989390000000 1.0
C      1  0.5829730000000  0.4768820000000  0.4228090000000 1.0
C      1  0.4427310000000  0.4234500000000  0.5465590000000 1.0
C      1  0.4186990000000  0.4747640000000  0.5297550000000 1.0
C      1  0.4459010000000  0.5985400000000  0.4947520000000 1.0
C      1  0.5382240000000  0.4935310000000  0.5606590000000 1.0
C      1  0.4914270000000  0.5546140000000  0.4122040000000 1.0
C      1  0.4604040000000  0.5137330000000  0.4629560000000 1.0
C      1  0.4607540000000  0.4894210000000  0.5019340000000 1.0
C      1  0.4654400000000  0.5836930000000  0.5410150000000 1.0
C      1  0.4925970000000  0.4810670000000  0.5398270000000 1.0
C      1  0.4143640000000  0.5438370000000  0.5056850000000 1.0
C      1  0.4829170000000  0.5299080000000  0.5532880000000 1.0
C      1  0.5614160000000  0.4185660000000  0.5101930000000 1.0
C      1  0.4889070000000  0.4343100000000  0.5716610000000 1.0
C      1  0.4035510000000  0.4748890000000  0.4799930000000 1.0
C      1  0.5393900000000  0.4036300000000  0.4677750000000 1.0
C      1  0.4157580000000  0.4309410000000  0.5518790000000 1.0
C      1  0.4412890000000  0.5687950000000  0.5488090000000 1.0
C      1  0.3977340000000  0.5040040000000  0.4821060000000 1.0
C      1  0.4589730000000  0.4825470000000  0.5818160000000 1.0
C      1  0.5791730000000  0.4243570000000  0.5338570000000 1.0
C      1  0.5178830000000  0.5051020000000  0.3997460000000 1.0
C      1  0.4313230000000  0.5163430000000  0.4167000000000 1.0
C      1  0.4682270000000  0.4207000000000  0.4681660000000 1.0
C      1  0.5287870000000  0.4518180000000  0.5415580000000 1.0
C      1  0.5952640000000  0.4485780000000  0.5332640000000 1.0
C      1  0.5274740000000  0.4320460000000  0.4237300000000 1.0
C      1  0.4730820000000  0.4879110000000  0.4139570000000 1.0
C      1  0.5483070000000  0.5128040000000  0.5041580000000 1.0
C      1  0.4364180000000  0.5241130000000  0.5669750000000 1.0
C      1  0.5327540000000  0.5378890000000  0.5040050000000 1.0
C      1  0.5192970000000  0.5531210000000  0.4171780000000 1.0
C      1  0.5146200000000  0.4999850000000  0.5379110000000 1.0
C      1  0.5324910000000  0.5048490000000  0.4590400000000 1.0
C      1  0.4447310000000  0.4586230000000  0.5741460000000 1.0
C      1  0.5351980000000  0.4837800000000  0.4133220000000 1.0
C      1  0.4098940000000  0.4717750000000  0.4532000000000 1.0
C      1  0.5014670000000  0.4556950000000  0.5296920000000 1.0
C      1  0.4220770000000  0.5583250000000  0.4363900000000 1.0
C      1  0.5301660000000  0.4762490000000  0.4671530000000 1.0
C      1  0.4458990000000  0.4372080000000  0.4738890000000 1.0
C      1  0.4490570000000  0.4758400000000  0.5260770000000 1.0
C      1  0.5187310000000  0.5963780000000  0.5163350000000 1.0
C      1  0.5048320000000  0.5870910000000  0.4699770000000 1.0
C      1  0.4899690000000  0.4848280000000  0.4390890000000 1.0
C      1  0.5586670000000  0.5810160000000  0.5324750000000 1.0
C      1  0.5340780000000  0.4216000000000  0.5483310000000 1.0
C      1  0.4206460000000  0.4576020000000  0.5555960000000 1.0
C      1  0.5046670000000  0.4149100000000  0.5554520000000 1.0
C      1  0.4862160000000  0.5116700000000  0.4532540000000 1.0
C      1  0.4950240000000  0.4014650000000  0.5307160000000 1.0
C      1  0.4963020000000  0.4517260000000  0.5022920000000 1.0
C      1  0.4676460000000  0.5593820000000  0.5013180000000 1.0
C      1  0.4131870000000  0.5308390000000  0.4357670000000 1.0
C      1  0.4737840000000  0.5697280000000  0.4284590000000 1.0
C      1  0.4020810000000  0.5155640000000  0.5074330000000 1.0
C      1  0.5115200000000  0.4358730000000  0.4813700000000 1.0
C      1  0.5564580000000  0.4508560000000  0.4997710000000 1.0
C      1  0.4495190000000  0.5376530000000  0.4708320000000 1.0
C      1  0.5440800000000  0.4166680000000  0.4416930000000 1.0
C      1  0.4626950000000  0.5646790000000  0.4718000000000 1.0
C      1  0.4979440000000  0.5944870000000  0.4977150000000 1.0
C      1  0.5015240000000  0.4590690000000  0.5828070000000 1.0
C      1  0.4004750000000  0.5262170000000  0.4627220000000 1.0
C      1  0.4895040000000  0.5835920000000  0.5571250000000 1.0
C      1  0.4863740000000  0.4813180000000  0.5925250000000 1.0
C      1  0.5310780000000  0.5296590000000  0.4057960000000 1.0
C      1  0.3975100000000  0.5462240000000  0.5508550000000 1.0
C      1  0.4819970000000  0.5778410000000  0.4550800000000 1.0
C      1  0.5398960000000  0.4060840000000  0.5244810000000 1.0
C      1  0.5697130000000  0.4303720000000  0.4417210000000 1.0
C      1  0.5458710000000  0.5903810000000  0.5085700000000 1.0
C      1  0.4468060000000  0.5602730000000  0.4223260000000 1.0
C      1  0.4382540000000  0.5838250000000  0.4739280000000 1.0
C      1  0.5081880000000  0.5152700000000  0.4707500000000 1.0
C      1  0.5399180000000  0.5819520000000  0.5543490000000 1.0
C      1  0.4601330000000  0.5163020000000  0.5441210000000 1.0
C      1  0.5608470000000  0.5473080000000  0.4364020000000 1.0
C      1  0.4497090000000  0.5361290000000  0.4072910000000 1.0
C      1  0.6040790000000  0.4774470000000  0.4904100000000 1.0
C      1  0.5034440000000  0.5293290000000  0.5351360000000 1.0
C      1  0.5291030000000  0.4653740000000  0.5713950000000 1.0
C      1  0.5571160000000  0.5271850000000  0.4160770000000 1.0
C      1  0.5557960000000  0.5385800000000  0.5698650000000 1.0
C      1  0.4162500000000  0.5575920000000  0.5338470000000 1.0
C      1  0.4314730000000  0.4713450000000  0.4364440000000 1.0
C      1  0.4604090000000  0.4359270000000  0.5676070000000 1.0
C      1  0.5931970000000  0.5221530000000  0.5085800000000 1.0
C      1  0.5626320000000  0.4994550000000  0.4170760000000 1.0
C      1  0.4788480000000  0.4651280000000  0.4582810000000 1.0
C      1  0.5766960000000  0.5426280000000  0.4591120000000 1.0
C      1  0.5083470000000  0.5357300000000  0.4892180000000 1.0
C      1  0.4439650000000  0.5388950000000  0.5003720000000 1.0
C      1  0.5110790000000  0.4879070000000  0.4880470000000 1.0
C      1  0.4939440000000  0.5092840000000  0.5989020000000 1.0
END
