TITL C-95753-4113-6 -2.49532575356759 125000 -603.12489923564 0 0 85 (C1) n - 1
REM
REM in /rds/project/t2_vol4/rds-t2-cs072/BORA/CARBON/from-Arr/AIRSS/Generating-Clusters/GAP-ML-2020/Only-C1/SD-CG/HFTN-CG
REM
REM
REM
REM
REM
REM ./C.cell (11c1c37f851c82e70ff6c80c92926a4b)
REM AIRSS Version 0.9.1 bugfix July 2018 build 013d7b7c2542+ Fri, 06 Jul 2018 19:26:36 +0100
REM compiler GCC version 9.3.0
REM options -cpp -mtune=generic -march=x86-64 -g -O0
REM seed 1401188678 -1818774383 -351686881 1242912053 -1305527782 894144895 536923791 352911268 -799584541 385742123 -1488430706 373379510 -1019289683 -1785362619 1070213881 1821290289 -1714964875 -1590476159 852363602 -679489174 -1833120149 1746145439 44319192 -690528179 538482179 880214490 -1642775124 1139456114 -2119652351 -1949361087 -1387096579 -2142883161 1098625528
REM
CELL 1.54180   50.00000   50.00000   50.00000   90.00000   90.00000   90.00000
LATT -1
SFAC C  
C      1  0.5096530000000  0.4453930000000  0.5549750000000 1.0
C      1  0.4215670000000  0.5172370000000  0.5018980000000 1.0
C      1  0.4672950000000  0.5221840000000  0.5756550000000 1.0
C      1  0.5239340000000  0.5565830000000  0.5548950000000 1.0
C      1  0.5587970000000  0.5370280000000  0.4822390000000 1.0
C      1  0.4856760000000  0.5578580000000  0.4489030000000 1.0
C      1  0.5495490000000  0.4529040000000  0.4932330000000 1.0
C      1  0.5711020000000  0.5608960000000  0.5280010000000 1.0
C      1  0.5093880000000  0.5109370000000  0.4590940000000 1.0
C      1  0.4506060000000  0.5302600000000  0.4223480000000 1.0
C      1  0.4770280000000  0.5641620000000  0.4760200000000 1.0
C      1  0.4747220000000  0.5351070000000  0.4350170000000 1.0
C      1  0.4598440000000  0.4499240000000  0.5470450000000 1.0
C      1  0.5360480000000  0.4673170000000  0.4692380000000 1.0
C      1  0.5299870000000  0.4443280000000  0.5350790000000 1.0
C      1  0.5487300000000  0.4657670000000  0.5401630000000 1.0
C      1  0.4587090000000  0.4282110000000  0.5029280000000 1.0
C      1  0.4746990000000  0.5639590000000  0.5553480000000 1.0
C      1  0.4775820000000  0.4977230000000  0.5095590000000 1.0
C      1  0.4379610000000  0.4553790000000  0.4692950000000 1.0
C      1  0.4457940000000  0.4434720000000  0.5231610000000 1.0
C      1  0.5199100000000  0.4503090000000  0.4527840000000 1.0
C      1  0.4540660000000  0.5429380000000  0.5602650000000 1.0
C      1  0.5361650000000  0.5101850000000  0.5692080000000 1.0
C      1  0.5754630000000  0.4415580000000  0.4791550000000 1.0
C      1  0.5279700000000  0.5438780000000  0.4299510000000 1.0
C      1  0.4769750000000  0.5788000000000  0.5332070000000 1.0
C      1  0.5041640000000  0.5045440000000  0.5233270000000 1.0
C      1  0.5618140000000  0.4706080000000  0.5161250000000 1.0
C      1  0.4355810000000  0.5348440000000  0.5426680000000 1.0
C      1  0.5241590000000  0.5721930000000  0.5309880000000 1.0
C      1  0.4285940000000  0.4647810000000  0.5169500000000 1.0
C      1  0.4839110000000  0.5123190000000  0.4487250000000 1.0
C      1  0.5861640000000  0.4868150000000  0.4804200000000 1.0
C      1  0.4649530000000  0.4940890000000  0.4611200000000 1.0
C      1  0.5600810000000  0.5358800000000  0.5318340000000 1.0
C      1  0.5147510000000  0.4681100000000  0.5707950000000 1.0
C      1  0.5341020000000  0.5145920000000  0.4203890000000 1.0
C      1  0.4546540000000  0.4338610000000  0.4759200000000 1.0
C      1  0.5344960000000  0.4873510000000  0.4273040000000 1.0
C      1  0.4858540000000  0.4105440000000  0.5362010000000 1.0
C      1  0.4514560000000  0.4759370000000  0.5564610000000 1.0
C      1  0.5226410000000  0.5707660000000  0.4736120000000 1.0
C      1  0.4991500000000  0.5557500000000  0.5682730000000 1.0
C      1  0.4195060000000  0.4964870000000  0.4828940000000 1.0
C      1  0.4745750000000  0.5274470000000  0.5069240000000 1.0
C      1  0.5732640000000  0.4982940000000  0.4582100000000 1.0
C      1  0.5252610000000  0.5043060000000  0.5041120000000 1.0
C      1  0.4681000000000  0.4928630000000  0.5733900000000 1.0
C      1  0.4706880000000  0.4519720000000  0.4354030000000 1.0
C      1  0.5474890000000  0.5682410000000  0.5154010000000 1.0
C      1  0.4960450000000  0.5315180000000  0.5243880000000 1.0
C      1  0.4241190000000  0.4698870000000  0.4893480000000 1.0
C      1  0.5455270000000  0.5615870000000  0.4874120000000 1.0
C      1  0.5426380000000  0.5342260000000  0.5553280000000 1.0
C      1  0.5557670000000  0.5176170000000  0.5063400000000 1.0
C      1  0.4319940000000  0.5173310000000  0.4341970000000 1.0
C      1  0.4991020000000  0.5763330000000  0.4893260000000 1.0
C      1  0.5137440000000  0.5605890000000  0.4473350000000 1.0
C      1  0.4997480000000  0.5800410000000  0.5177620000000 1.0
C      1  0.4899340000000  0.4601250000000  0.4177390000000 1.0
C      1  0.4373330000000  0.5103570000000  0.4634400000000 1.0
C      1  0.4959310000000  0.4868540000000  0.5805400000000 1.0
C      1  0.5145890000000  0.4912710000000  0.4802910000000 1.0
C      1  0.5737740000000  0.4936940000000  0.5049990000000 1.0
C      1  0.5521400000000  0.5320110000000  0.4329920000000 1.0
C      1  0.5930100000000  0.4598690000000  0.4774210000000 1.0
C      1  0.4525060000000  0.4695100000000  0.4488730000000 1.0
C      1  0.4250740000000  0.5130250000000  0.5298090000000 1.0
C      1  0.4846940000000  0.4186290000000  0.5100590000000 1.0
C      1  0.4368130000000  0.5334540000000  0.4837570000000 1.0
C      1  0.5147570000000  0.4653630000000  0.4284000000000 1.0
C      1  0.4311700000000  0.4850060000000  0.5370720000000 1.0
C      1  0.5655360000000  0.5256270000000  0.4576000000000 1.0
C      1  0.5072400000000  0.4262710000000  0.4938100000000 1.0
C      1  0.5112150000000  0.5110030000000  0.5834860000000 1.0
C      1  0.5521270000000  0.4816630000000  0.4488430000000 1.0
C      1  0.4761500000000  0.4326560000000  0.4566590000000 1.0
C      1  0.5029190000000  0.4319490000000  0.4660920000000 1.0
C      1  0.4933280000000  0.5321770000000  0.5821660000000 1.0
C      1  0.4838280000000  0.4845130000000  0.4861890000000 1.0
C      1  0.5292940000000  0.4371260000000  0.5076260000000 1.0
C      1  0.5390870000000  0.4816240000000  0.5624110000000 1.0
C      1  0.4604180000000  0.5460550000000  0.4911430000000 1.0
C      1  0.4838220000000  0.4341510000000  0.5510340000000 1.0
END
