TITL C-95123-8456-6 -0.0280596267960812 125000 -173.947544779446 0 0 27 (C1) n - 1
REM
REM in /rds/project/t2_vol4/rds-t2-cs072/BORA/CARBON/from-Arr/AIRSS/Generating-Clusters/GAP-ML-2020/Only-C1/SD-CG/HFTN-CG
REM
REM
REM
REM
REM
REM ./C.cell (11c1c37f851c82e70ff6c80c92926a4b)
REM AIRSS Version 0.9.1 bugfix July 2018 build 013d7b7c2542+ Fri, 06 Jul 2018 19:26:36 +0100
REM compiler GCC version 9.3.0
REM options -cpp -mtune=generic -march=x86-64 -g -O0
REM seed 882322138 -1137014369 1436246231 -407838106 568628622 -875138422 719041034 -459210654 1075674767 -976126461 -1762982795 -1814278849 1794381292 -1557221941 -1642342567 1049806558 344743250 1334197505 -871993441 -126367913 -949613624 389172352 1329665591 86219124 1037427508 1598366595 343330028 -2796700 1372765708 216658844 1435606031 218004328 -1049091191
REM
CELL 1.54180   50.00000   50.00000   50.00000   90.00000   90.00000   90.00000
LATT -1
SFAC C  
C      1  0.5176010000000  0.5109830000000  0.5096300000000 1.0
C      1  0.5229710000000  0.5034810000000  0.5367680000000 1.0
C      1  0.5140190000000  0.4915550000000  0.4659360000000 1.0
C      1  0.4765760000000  0.4864160000000  0.4530330000000 1.0
C      1  0.5197940000000  0.4645700000000  0.5094230000000 1.0
C      1  0.4638780000000  0.5182980000000  0.5194000000000 1.0
C      1  0.4897780000000  0.5422240000000  0.4858010000000 1.0
C      1  0.4761850000000  0.4643340000000  0.4742780000000 1.0
C      1  0.5006890000000  0.4908960000000  0.4417750000000 1.0
C      1  0.5559090000000  0.5039230000000  0.4834070000000 1.0
C      1  0.5640540000000  0.4795730000000  0.4908080000000 1.0
C      1  0.4704710000000  0.4900180000000  0.5258580000000 1.0
C      1  0.4598720000000  0.5011270000000  0.4713970000000 1.0
C      1  0.4540530000000  0.4760760000000  0.4878010000000 1.0
C      1  0.5185110000000  0.5398130000000  0.4806940000000 1.0
C      1  0.5462860000000  0.4635230000000  0.5033300000000 1.0
C      1  0.4733810000000  0.5185540000000  0.4892080000000 1.0
C      1  0.4920260000000  0.4982540000000  0.5024120000000 1.0
C      1  0.4900010000000  0.4858620000000  0.5458680000000 1.0
C      1  0.5139120000000  0.4751030000000  0.5351010000000 1.0
C      1  0.4528310000000  0.4728910000000  0.5138030000000 1.0
C      1  0.4946630000000  0.5499360000000  0.5147770000000 1.0
C      1  0.5201870000000  0.5412770000000  0.5094310000000 1.0
C      1  0.5009100000000  0.4741930000000  0.4873740000000 1.0
C      1  0.4833780000000  0.5320760000000  0.5334360000000 1.0
C      1  0.5288460000000  0.5114060000000  0.4798650000000 1.0
C      1  0.4992180000000  0.5136380000000  0.5493870000000 1.0
END
