TITL C-95761-5024-4 48.3386739255103 125000 -157.902383899837 0 0 25 (C1) n - 1
REM
REM in /rds/project/t2_vol4/rds-t2-cs072/BORA/CARBON/from-Arr/AIRSS/Generating-Clusters/GAP-ML-2020/Only-C1/SD-CG/HFTN-CG
REM
REM
REM
REM
REM
REM ./C.cell (11c1c37f851c82e70ff6c80c92926a4b)
REM AIRSS Version 0.9.1 bugfix July 2018 build 013d7b7c2542+ Fri, 06 Jul 2018 19:26:36 +0100
REM compiler GCC version 9.3.0
REM options -cpp -mtune=generic -march=x86-64 -g -O0
REM seed -1477815837 -1614808160 -1258283223 1912603010 -1423890641 -1580739806 660854591 -2065290634 1893016661 1319968644 148428309 1513807309 -1107676020 1386341044 161301651 -1873609381 -1274920957 239723311 1291451830 629879024 -1454578291 -123012040 1861237669 -1928862157 -228509411 -1120078499 1986097486 1294991096 -511301465 911795680 -547425670 -556307825 -970550849
REM
CELL 1.54180   50.00000   50.00000   50.00000   90.00000   90.00000   90.00000
LATT -1
SFAC C  
C      1  0.5234450000000  0.5449540000000  0.4817690000000 1.0
C      1  0.4835710000000  0.4764420000000  0.4639730000000 1.0
C      1  0.4496200000000  0.4635730000000  0.5219960000000 1.0
C      1  0.4728310000000  0.4525150000000  0.5069770000000 1.0
C      1  0.4669960000000  0.5088250000000  0.5116390000000 1.0
C      1  0.5066050000000  0.5612560000000  0.5296400000000 1.0
C      1  0.5328080000000  0.5178090000000  0.4791580000000 1.0
C      1  0.4660150000000  0.4693510000000  0.4837560000000 1.0
C      1  0.4916160000000  0.5072010000000  0.4993040000000 1.0
C      1  0.5576030000000  0.4577910000000  0.4967080000000 1.0
C      1  0.4947620000000  0.5398310000000  0.5368920000000 1.0
C      1  0.5616250000000  0.4833500000000  0.4969260000000 1.0
C      1  0.4945500000000  0.4917640000000  0.5436350000000 1.0
C      1  0.4526050000000  0.4863020000000  0.5048410000000 1.0
C      1  0.4963730000000  0.4628530000000  0.5179770000000 1.0
C      1  0.5091210000000  0.5555520000000  0.5030880000000 1.0
C      1  0.5064120000000  0.4806730000000  0.4998390000000 1.0
C      1  0.4835070000000  0.5151230000000  0.5341910000000 1.0
C      1  0.5535180000000  0.5073840000000  0.4928920000000 1.0
C      1  0.4908440000000  0.5046030000000  0.4581220000000 1.0
C      1  0.4982500000000  0.4669100000000  0.5460940000000 1.0
C      1  0.4825830000000  0.5232580000000  0.4773010000000 1.0
C      1  0.5188690000000  0.5003240000000  0.4610590000000 1.0
C      1  0.5110240000000  0.4746830000000  0.4716840000000 1.0
C      1  0.4948480000000  0.5476700000000  0.4805370000000 1.0
END
