TITL C-95113-8444-7 -0.0288171351679881 125000 -291.702431544988 0 0 44 (C1) n - 1
REM
REM in /rds/project/t2_vol4/rds-t2-cs072/BORA/CARBON/from-Arr/AIRSS/Generating-Clusters/GAP-ML-2020/Only-C1/SD-CG/HFTN-CG
REM
REM
REM
REM
REM
REM ./C.cell (11c1c37f851c82e70ff6c80c92926a4b)
REM AIRSS Version 0.9.1 bugfix July 2018 build 013d7b7c2542+ Fri, 06 Jul 2018 19:26:36 +0100
REM compiler GCC version 9.3.0
REM options -cpp -mtune=generic -march=x86-64 -g -O0
REM seed -136624953 -220449028 -1777150722 -1351870208 1638749519 -2061808093 1504755282 -386610911 -1329220814 2033827066 293387983 2117548782 552511747 -705699952 -846879006 -1045624555 -55124772 2119422351 -1581720811 -650381798 -276562440 888278427 1058503811 -855600666 -966508562 1684212683 -1244047062 996801617 134937881 684091344 -1027268051 -222704637 -917315995
REM
CELL 1.54180   50.00000   50.00000   50.00000   90.00000   90.00000   90.00000
LATT -1
SFAC C  
C      1  0.5398310000000  0.5049310000000  0.4406710000000 1.0
C      1  0.5477240000000  0.5217860000000  0.4973230000000 1.0
C      1  0.4996360000000  0.4493210000000  0.5497010000000 1.0
C      1  0.4726560000000  0.4820040000000  0.4357530000000 1.0
C      1  0.5130940000000  0.5046800000000  0.4460420000000 1.0
C      1  0.4860860000000  0.5549130000000  0.5078200000000 1.0
C      1  0.4977210000000  0.4498210000000  0.4833560000000 1.0
C      1  0.4498960000000  0.5343550000000  0.4806590000000 1.0
C      1  0.4595610000000  0.4633910000000  0.5425260000000 1.0
C      1  0.5333240000000  0.5689560000000  0.5158220000000 1.0
C      1  0.5279570000000  0.5083850000000  0.5355100000000 1.0
C      1  0.4563220000000  0.5276890000000  0.4526240000000 1.0
C      1  0.4949910000000  0.4860590000000  0.5146190000000 1.0
C      1  0.4998300000000  0.4814190000000  0.4881920000000 1.0
C      1  0.4788670000000  0.4997560000000  0.4789530000000 1.0
C      1  0.4570590000000  0.4548560000000  0.5152250000000 1.0
C      1  0.4447630000000  0.4785460000000  0.5262170000000 1.0
C      1  0.5583900000000  0.4753890000000  0.5039900000000 1.0
C      1  0.4990680000000  0.4781520000000  0.4416290000000 1.0
C      1  0.4517960000000  0.5053810000000  0.5227490000000 1.0
C      1  0.4621000000000  0.5001180000000  0.4517660000000 1.0
C      1  0.5570840000000  0.4978870000000  0.4874060000000 1.0
C      1  0.5186420000000  0.5282620000000  0.4909080000000 1.0
C      1  0.4831930000000  0.4716060000000  0.5549440000000 1.0
C      1  0.5326100000000  0.5487690000000  0.5334400000000 1.0
C      1  0.5100060000000  0.4568180000000  0.4573520000000 1.0
C      1  0.5418030000000  0.4560670000000  0.4934680000000 1.0
C      1  0.4805710000000  0.5428160000000  0.4595220000000 1.0
C      1  0.4784470000000  0.4424640000000  0.5043060000000 1.0
C      1  0.4868480000000  0.5377540000000  0.5319730000000 1.0
C      1  0.4687730000000  0.5167320000000  0.5425960000000 1.0
C      1  0.5200750000000  0.4411970000000  0.5025720000000 1.0
C      1  0.5468770000000  0.4892790000000  0.4615330000000 1.0
C      1  0.5122690000000  0.5140500000000  0.5588170000000 1.0
C      1  0.5006750000000  0.5218410000000  0.4674180000000 1.0
C      1  0.4570160000000  0.5115550000000  0.4958400000000 1.0
C      1  0.4702090000000  0.5538240000000  0.4854370000000 1.0
C      1  0.4866290000000  0.4999890000000  0.5582660000000 1.0
C      1  0.5371490000000  0.4630770000000  0.4654140000000 1.0
C      1  0.5066090000000  0.5123940000000  0.5144680000000 1.0
C      1  0.5092730000000  0.5419030000000  0.5508600000000 1.0
C      1  0.5145510000000  0.5561450000000  0.5010020000000 1.0
C      1  0.5016230000000  0.4394240000000  0.5244950000000 1.0
C      1  0.5483990000000  0.5262390000000  0.5268100000000 1.0
END
