TITL C-95749-4392-9 -838.393762485726 125000 -791.179381852996 0 0 110 (C1) n - 1
REM
REM in /rds/project/t2_vol4/rds-t2-cs072/BORA/CARBON/from-Arr/AIRSS/Generating-Clusters/GAP-ML-2020/Only-C1/SD-CG/HFTN-CG
REM
REM
REM
REM
REM
REM ./C.cell (11c1c37f851c82e70ff6c80c92926a4b)
REM AIRSS Version 0.9.1 bugfix July 2018 build 013d7b7c2542+ Fri, 06 Jul 2018 19:26:36 +0100
REM compiler GCC version 9.3.0
REM options -cpp -mtune=generic -march=x86-64 -g -O0
REM seed 403632832 -174873753 -155784496 -535460412 1650576466 96380912 -1633086423 1770713698 322403812 812017739 348003773 1382940240 -1046052316 353855547 -990393428 1105725392 1674196307 425019509 -318993757 1494660013 -1427944414 -157661181 -1576600342 1527082555 -419303519 -2018342281 529500618 -1417295721 -1212159621 445992432 -102302772 -1785404691 376101405
REM
CELL 1.54180   50.00000   50.00000   50.00000   90.00000   90.00000   90.00000
LATT -1
SFAC C  
C      1  0.4156570000000  0.5399640000000  0.4708690000000 1.0
C      1  0.5240510000000  0.5198110000000  0.4918430000000 1.0
C      1  0.5168610000000  0.4400630000000  0.4459920000000 1.0
C      1  0.5766870000000  0.4678430000000  0.4729630000000 1.0
C      1  0.5707990000000  0.5499140000000  0.5061250000000 1.0
C      1  0.4797220000000  0.4676970000000  0.4273390000000 1.0
C      1  0.5256140000000  0.4839260000000  0.4228750000000 1.0
C      1  0.4313100000000  0.5628910000000  0.4704590000000 1.0
C      1  0.4681070000000  0.4712140000000  0.4765200000000 1.0
C      1  0.5664280000000  0.4527210000000  0.5434600000000 1.0
C      1  0.5464230000000  0.5122430000000  0.5787750000000 1.0
C      1  0.4411880000000  0.4798770000000  0.4385570000000 1.0
C      1  0.4468150000000  0.4188380000000  0.5060940000000 1.0
C      1  0.4323540000000  0.5155140000000  0.5482740000000 1.0
C      1  0.5108570000000  0.4027280000000  0.4763950000000 1.0
C      1  0.4783080000000  0.5389830000000  0.5739160000000 1.0
C      1  0.5620920000000  0.4552210000000  0.5153610000000 1.0
C      1  0.4115440000000  0.5053240000000  0.5025490000000 1.0
C      1  0.4492130000000  0.5013490000000  0.5670330000000 1.0
C      1  0.5074900000000  0.4680410000000  0.5818240000000 1.0
C      1  0.4374590000000  0.4664750000000  0.4921340000000 1.0
C      1  0.4776430000000  0.5466580000000  0.4660090000000 1.0
C      1  0.5479140000000  0.5536300000000  0.5517780000000 1.0
C      1  0.5461000000000  0.4380070000000  0.4523770000000 1.0
C      1  0.5723690000000  0.5180200000000  0.4670800000000 1.0
C      1  0.4936210000000  0.4105610000000  0.5296500000000 1.0
C      1  0.4191500000000  0.4869460000000  0.4813940000000 1.0
C      1  0.5020710000000  0.5861730000000  0.4725320000000 1.0
C      1  0.4793680000000  0.5706940000000  0.5376800000000 1.0
C      1  0.5066970000000  0.5425500000000  0.5773960000000 1.0
C      1  0.4373710000000  0.5433900000000  0.5418820000000 1.0
C      1  0.5271900000000  0.5790990000000  0.4850100000000 1.0
C      1  0.4459010000000  0.5357610000000  0.4341670000000 1.0
C      1  0.4739630000000  0.5753830000000  0.5103420000000 1.0
C      1  0.5901940000000  0.5032260000000  0.5094090000000 1.0
C      1  0.4838240000000  0.4971560000000  0.4723720000000 1.0
C      1  0.4550420000000  0.4746950000000  0.5576650000000 1.0
C      1  0.5596620000000  0.5105230000000  0.4427770000000 1.0
C      1  0.4737330000000  0.5092170000000  0.5212620000000 1.0
C      1  0.4640130000000  0.4527540000000  0.5703320000000 1.0
C      1  0.5389110000000  0.5055770000000  0.5134440000000 1.0
C      1  0.4597950000000  0.4585540000000  0.4489280000000 1.0
C      1  0.5078770000000  0.5729400000000  0.5390690000000 1.0
C      1  0.4980650000000  0.5216740000000  0.5255350000000 1.0
C      1  0.4534930000000  0.4316750000000  0.4599320000000 1.0
C      1  0.5141130000000  0.4748870000000  0.5276010000000 1.0
C      1  0.5282150000000  0.4230320000000  0.5481830000000 1.0
C      1  0.4391810000000  0.4752470000000  0.5205140000000 1.0
C      1  0.5002700000000  0.4235920000000  0.5557380000000 1.0
C      1  0.4399910000000  0.4360870000000  0.4865030000000 1.0
C      1  0.5392560000000  0.5271160000000  0.4323190000000 1.0
C      1  0.4262160000000  0.5519730000000  0.5158640000000 1.0
C      1  0.5260630000000  0.5688150000000  0.5142230000000 1.0
C      1  0.5188310000000  0.5172530000000  0.5849450000000 1.0
C      1  0.4900140000000  0.4450450000000  0.5727310000000 1.0
C      1  0.5218620000000  0.4116680000000  0.5212960000000 1.0
C      1  0.4622730000000  0.4907080000000  0.4218670000000 1.0
C      1  0.4696690000000  0.5204910000000  0.4761180000000 1.0
C      1  0.4240360000000  0.4954810000000  0.4543520000000 1.0
C      1  0.4667100000000  0.4800740000000  0.5293730000000 1.0
C      1  0.4242820000000  0.5235000000000  0.4492500000000 1.0
C      1  0.5318320000000  0.4108060000000  0.4930550000000 1.0
C      1  0.5861320000000  0.5305600000000  0.5183170000000 1.0
C      1  0.4894860000000  0.4659620000000  0.5181510000000 1.0
C      1  0.4716910000000  0.4064470000000  0.5104770000000 1.0
C      1  0.4624500000000  0.5539190000000  0.5542400000000 1.0
C      1  0.4530440000000  0.5604910000000  0.4506190000000 1.0
C      1  0.5821540000000  0.4953260000000  0.4828260000000 1.0
C      1  0.5294120000000  0.5495100000000  0.4456960000000 1.0
C      1  0.5027810000000  0.4154770000000  0.4512160000000 1.0
C      1  0.5614950000000  0.5314090000000  0.5630150000000 1.0
C      1  0.5084930000000  0.5412220000000  0.5043050000000 1.0
C      1  0.4937540000000  0.5280370000000  0.4226590000000 1.0
C      1  0.4675890000000  0.5865730000000  0.4472910000000 1.0
C      1  0.5517900000000  0.5615150000000  0.5244720000000 1.0
C      1  0.5429330000000  0.5606880000000  0.4680760000000 1.0
C      1  0.5352890000000  0.4635710000000  0.5769430000000 1.0
C      1  0.4725620000000  0.5979080000000  0.4724550000000 1.0
C      1  0.5213380000000  0.5600950000000  0.5601720000000 1.0
C      1  0.5522340000000  0.4838930000000  0.4344260000000 1.0
C      1  0.4987270000000  0.4965860000000  0.5849500000000 1.0
C      1  0.5075710000000  0.4619800000000  0.4273330000000 1.0
C      1  0.4831620000000  0.4005950000000  0.4844640000000 1.0
C      1  0.4747500000000  0.4137250000000  0.4598300000000 1.0
C      1  0.5178460000000  0.5120690000000  0.4205100000000 1.0
C      1  0.5540660000000  0.4851760000000  0.5747530000000 1.0
C      1  0.4116340000000  0.5330830000000  0.4982290000000 1.0
C      1  0.5821030000000  0.5230120000000  0.5459780000000 1.0
C      1  0.4226270000000  0.4975100000000  0.5271940000000 1.0
C      1  0.5181650000000  0.5032030000000  0.5333710000000 1.0
C      1  0.5454220000000  0.4421230000000  0.5598910000000 1.0
C      1  0.5261740000000  0.4751720000000  0.4818380000000 1.0
C      1  0.5001580000000  0.5506470000000  0.4415200000000 1.0
C      1  0.5108310000000  0.4527330000000  0.4777090000000 1.0
C      1  0.5114640000000  0.4990780000000  0.4773610000000 1.0
C      1  0.4898990000000  0.5604630000000  0.4890910000000 1.0
C      1  0.5648050000000  0.5449610000000  0.4785280000000 1.0
C      1  0.5384930000000  0.4752310000000  0.5089060000000 1.0
C      1  0.4363390000000  0.5722250000000  0.4968570000000 1.0
C      1  0.4569990000000  0.5919730000000  0.4954910000000 1.0
C      1  0.4598130000000  0.5203560000000  0.5010530000000 1.0
C      1  0.4869680000000  0.4557600000000  0.4919580000000 1.0
C      1  0.4955760000000  0.5799440000000  0.4439330000000 1.0
C      1  0.5742790000000  0.4775560000000  0.5551090000000 1.0
C      1  0.5622420000000  0.4619980000000  0.4488960000000 1.0
C      1  0.5878230000000  0.4959360000000  0.5386120000000 1.0
C      1  0.5521170000000  0.4269350000000  0.4782180000000 1.0
C      1  0.5703960000000  0.4452400000000  0.4903800000000 1.0
C      1  0.4729830000000  0.5114790000000  0.5801310000000 1.0
C      1  0.4661800000000  0.5193690000000  0.4212390000000 1.0
END
