TITL C-95754-4170-5 -0.0206629565469648 125000 -430.743568979307 0 0 63 (C1) n - 1
REM
REM in /rds/project/t2_vol4/rds-t2-cs072/BORA/CARBON/from-Arr/AIRSS/Generating-Clusters/GAP-ML-2020/Only-C1/SD-CG/HFTN-CG
REM
REM
REM
REM
REM
REM ./C.cell (11c1c37f851c82e70ff6c80c92926a4b)
REM AIRSS Version 0.9.1 bugfix July 2018 build 013d7b7c2542+ Fri, 06 Jul 2018 19:26:36 +0100
REM compiler GCC version 9.3.0
REM options -cpp -mtune=generic -march=x86-64 -g -O0
REM seed 2063097164 -397541376 1972274574 1546955681 930955930 963077041 -1177665634 1017813819 -1542985976 456004542 54688058 216786371 1864591484 1866458703 -1827190335 -91961937 181332077 9686441 -1584676373 1260229466 -814003887 345492640 -1431287400 -1952143687 763539509 -1654432153 -196201147 -1569904410 -1215437642 672648027 -1768153774 -1281631921 1334416460
REM
CELL 1.54180   50.00000   50.00000   50.00000   90.00000   90.00000   90.00000
LATT -1
SFAC C  
C      1  0.5087480000000  0.4766150000000  0.4504600000000 1.0
C      1  0.5325250000000  0.4927520000000  0.4501660000000 1.0
C      1  0.5173280000000  0.5125560000000  0.5155700000000 1.0
C      1  0.5163680000000  0.5365220000000  0.4963020000000 1.0
C      1  0.4729050000000  0.4422480000000  0.4806300000000 1.0
C      1  0.4928770000000  0.5495980000000  0.5441470000000 1.0
C      1  0.4954670000000  0.5577040000000  0.4542250000000 1.0
C      1  0.4890290000000  0.4520500000000  0.5410840000000 1.0
C      1  0.5089090000000  0.4783000000000  0.5714570000000 1.0
C      1  0.5655160000000  0.5199340000000  0.5140410000000 1.0
C      1  0.4741670000000  0.5592300000000  0.4742860000000 1.0
C      1  0.4666770000000  0.4926710000000  0.5365650000000 1.0
C      1  0.5613760000000  0.5231950000000  0.4854160000000 1.0
C      1  0.4482720000000  0.5631990000000  0.4792460000000 1.0
C      1  0.4572540000000  0.4551770000000  0.5015980000000 1.0
C      1  0.4968640000000  0.4760620000000  0.4982030000000 1.0
C      1  0.4753820000000  0.4682500000000  0.5210480000000 1.0
C      1  0.5224120000000  0.4880290000000  0.5022440000000 1.0
C      1  0.5441710000000  0.4542900000000  0.4716970000000 1.0
C      1  0.5471400000000  0.4441930000000  0.4983500000000 1.0
C      1  0.4868280000000  0.5367810000000  0.4908670000000 1.0
C      1  0.4366470000000  0.4653480000000  0.4636500000000 1.0
C      1  0.5240700000000  0.5621510000000  0.5088480000000 1.0
C      1  0.4315450000000  0.5175870000000  0.4809250000000 1.0
C      1  0.4893860000000  0.4846840000000  0.4291690000000 1.0
C      1  0.4613530000000  0.4498330000000  0.4558160000000 1.0
C      1  0.4650850000000  0.4841260000000  0.5662540000000 1.0
C      1  0.4355970000000  0.4695150000000  0.4915240000000 1.0
C      1  0.5178530000000  0.4512680000000  0.4632870000000 1.0
C      1  0.4991220000000  0.5284380000000  0.4468200000000 1.0
C      1  0.5671700000000  0.4494830000000  0.5154270000000 1.0
C      1  0.4984590000000  0.5062210000000  0.5798710000000 1.0
C      1  0.4854130000000  0.4631240000000  0.5668740000000 1.0
C      1  0.5019820000000  0.4444940000000  0.4868430000000 1.0
C      1  0.5210140000000  0.4386310000000  0.5089270000000 1.0
C      1  0.4879850000000  0.4875550000000  0.4731300000000 1.0
C      1  0.4709150000000  0.5021260000000  0.5859710000000 1.0
C      1  0.5245160000000  0.5813400000000  0.4881840000000 1.0
C      1  0.5674880000000  0.4749160000000  0.5253480000000 1.0
C      1  0.4508020000000  0.5110620000000  0.4610680000000 1.0
C      1  0.5537830000000  0.4800190000000  0.4641900000000 1.0
C      1  0.5773090000000  0.4943210000000  0.5077220000000 1.0
C      1  0.4380030000000  0.5420880000000  0.4938740000000 1.0
C      1  0.5039560000000  0.5252050000000  0.5593090000000 1.0
C      1  0.5161910000000  0.5720070000000  0.4649260000000 1.0
C      1  0.5192730000000  0.5584450000000  0.5366530000000 1.0
C      1  0.4772800000000  0.5373120000000  0.5211120000000 1.0
C      1  0.5268400000000  0.5199540000000  0.4521770000000 1.0
C      1  0.4441910000000  0.4869150000000  0.4470550000000 1.0
C      1  0.5700970000000  0.4960960000000  0.4800870000000 1.0
C      1  0.5449270000000  0.5157450000000  0.5346500000000 1.0
C      1  0.4298690000000  0.4960270000000  0.5006810000000 1.0
C      1  0.5372410000000  0.5316930000000  0.4748690000000 1.0
C      1  0.4483600000000  0.5340750000000  0.5190790000000 1.0
C      1  0.4655610000000  0.4709960000000  0.4351910000000 1.0
C      1  0.4434540000000  0.5064160000000  0.5233300000000 1.0
C      1  0.5494250000000  0.4868080000000  0.5438220000000 1.0
C      1  0.5307200000000  0.5356720000000  0.5503680000000 1.0
C      1  0.4805680000000  0.5151950000000  0.4694390000000 1.0
C      1  0.4915200000000  0.5129010000000  0.5332110000000 1.0
C      1  0.5286600000000  0.4703110000000  0.5523240000000 1.0
C      1  0.4897000000000  0.5120640000000  0.4249940000000 1.0
C      1  0.5164560000000  0.4484800000000  0.5354050000000 1.0
END
