TITL C-95746-3951-3 1.65741754832762 125000 -668.275858457818 0 0 95 (C1) n - 1
REM
REM in /rds/project/t2_vol4/rds-t2-cs072/BORA/CARBON/from-Arr/AIRSS/Generating-Clusters/GAP-ML-2020/Only-C1/SD-CG/HFTN-CG
REM
REM
REM
REM
REM
REM ./C.cell (11c1c37f851c82e70ff6c80c92926a4b)
REM AIRSS Version 0.9.1 bugfix July 2018 build 013d7b7c2542+ Fri, 06 Jul 2018 19:26:36 +0100
REM compiler GCC version 9.3.0
REM options -cpp -mtune=generic -march=x86-64 -g -O0
REM seed 383175 1370836386 443944649 1112143634 1629795963 487601956 1970789089 2006466828 -1398353280 1189854084 -1917972027 86496574 -1615256464 763126102 -1710296274 1710412158 -1969242447 -1360822723 -1146463060 -117884134 1012459747 -997783521 -440339110 -995043632 -48580847 77160886 1023151382 -1405592534 -2032738530 915020063 -1565614346 -1020351734 536710517
REM
CELL 1.54180   50.00000   50.00000   50.00000   90.00000   90.00000   90.00000
LATT -1
SFAC C  
C      1  0.5658270000000  0.4380680000000  0.4722430000000 1.0
C      1  0.4327190000000  0.5163710000000  0.5655240000000 1.0
C      1  0.4392910000000  0.4624500000000  0.5186530000000 1.0
C      1  0.4678060000000  0.5348760000000  0.4257340000000 1.0
C      1  0.4728070000000  0.5645570000000  0.5357640000000 1.0
C      1  0.4704240000000  0.5773390000000  0.5102950000000 1.0
C      1  0.4280660000000  0.4787070000000  0.5403860000000 1.0
C      1  0.4950990000000  0.4713190000000  0.5734400000000 1.0
C      1  0.4937530000000  0.4368760000000  0.4556010000000 1.0
C      1  0.5209430000000  0.5876700000000  0.5059910000000 1.0
C      1  0.4400740000000  0.4973700000000  0.4418290000000 1.0
C      1  0.4820900000000  0.5190060000000  0.5224450000000 1.0
C      1  0.4426670000000  0.4899650000000  0.5627310000000 1.0
C      1  0.5679670000000  0.4496560000000  0.5258460000000 1.0
C      1  0.5620250000000  0.4876140000000  0.4419350000000 1.0
C      1  0.4772940000000  0.4436620000000  0.5404420000000 1.0
C      1  0.5117890000000  0.5249370000000  0.4873260000000 1.0
C      1  0.5499850000000  0.5194600000000  0.5472410000000 1.0
C      1  0.5429700000000  0.4453200000000  0.4553510000000 1.0
C      1  0.4561830000000  0.5427780000000  0.4486860000000 1.0
C      1  0.5439700000000  0.4592930000000  0.5384690000000 1.0
C      1  0.5848890000000  0.5064610000000  0.4816340000000 1.0
C      1  0.4821400000000  0.4925230000000  0.5340250000000 1.0
C      1  0.4688710000000  0.5062600000000  0.4789030000000 1.0
C      1  0.4666410000000  0.4224970000000  0.5232220000000 1.0
C      1  0.4937300000000  0.5855770000000  0.4962270000000 1.0
C      1  0.5178380000000  0.4858170000000  0.5731900000000 1.0
C      1  0.4778760000000  0.5206790000000  0.5730560000000 1.0
C      1  0.5820270000000  0.4958820000000  0.5089670000000 1.0
C      1  0.4940690000000  0.5433550000000  0.5364240000000 1.0
C      1  0.5822590000000  0.4672700000000  0.5081140000000 1.0
C      1  0.5113430000000  0.4232080000000  0.5077810000000 1.0
C      1  0.4257140000000  0.4734570000000  0.4939430000000 1.0
C      1  0.4458480000000  0.4332420000000  0.4823810000000 1.0
C      1  0.5183400000000  0.4400250000000  0.4688090000000 1.0
C      1  0.5304620000000  0.4192420000000  0.5278410000000 1.0
C      1  0.4651870000000  0.4666930000000  0.4300750000000 1.0
C      1  0.5120610000000  0.4514520000000  0.4978190000000 1.0
C      1  0.5551600000000  0.5141990000000  0.4359010000000 1.0
C      1  0.5234010000000  0.5087220000000  0.5566390000000 1.0
C      1  0.4824960000000  0.4826310000000  0.4754060000000 1.0
C      1  0.4436130000000  0.5186530000000  0.4626020000000 1.0
C      1  0.4317040000000  0.5476690000000  0.5006700000000 1.0
C      1  0.4649030000000  0.5640740000000  0.4656670000000 1.0
C      1  0.5815340000000  0.4608790000000  0.4799190000000 1.0
C      1  0.4917060000000  0.5755740000000  0.4687080000000 1.0
C      1  0.5587220000000  0.5115630000000  0.5195010000000 1.0
C      1  0.4821260000000  0.5133190000000  0.4171900000000 1.0
C      1  0.5312710000000  0.5727270000000  0.4840440000000 1.0
C      1  0.4289390000000  0.5464620000000  0.5295260000000 1.0
C      1  0.5071490000000  0.4877960000000  0.4628000000000 1.0
C      1  0.4850660000000  0.5219570000000  0.4951160000000 1.0
C      1  0.5030940000000  0.5324020000000  0.5638400000000 1.0
C      1  0.4134200000000  0.5002830000000  0.5275840000000 1.0
C      1  0.4909520000000  0.4562360000000  0.4345710000000 1.0
C      1  0.5724480000000  0.5320460000000  0.4785050000000 1.0
C      1  0.4732930000000  0.4918150000000  0.5650820000000 1.0
C      1  0.4838250000000  0.4613670000000  0.4951690000000 1.0
C      1  0.4514310000000  0.5664030000000  0.4911690000000 1.0
C      1  0.5357240000000  0.5760290000000  0.5303120000000 1.0
C      1  0.5179810000000  0.5531400000000  0.5227150000000 1.0
C      1  0.5584850000000  0.5386890000000  0.5040030000000 1.0
C      1  0.4750150000000  0.4302560000000  0.4780390000000 1.0
C      1  0.4254090000000  0.5239240000000  0.4855390000000 1.0
C      1  0.4165050000000  0.5001730000000  0.4991570000000 1.0
C      1  0.4710790000000  0.4674950000000  0.5216980000000 1.0
C      1  0.4614670000000  0.4948160000000  0.4225500000000 1.0
C      1  0.5593270000000  0.5370240000000  0.4538310000000 1.0
C      1  0.5260080000000  0.4728440000000  0.5173060000000 1.0
C      1  0.4495190000000  0.5551540000000  0.5477490000000 1.0
C      1  0.5381860000000  0.4933260000000  0.5025310000000 1.0
C      1  0.4848590000000  0.4150050000000  0.5024840000000 1.0
C      1  0.4433080000000  0.4330290000000  0.5110400000000 1.0
C      1  0.5575760000000  0.4243680000000  0.5167160000000 1.0
C      1  0.5607640000000  0.5597950000000  0.5257470000000 1.0
C      1  0.5170090000000  0.5564680000000  0.5752200000000 1.0
C      1  0.5361560000000  0.5660250000000  0.5595450000000 1.0
C      1  0.4536650000000  0.5349750000000  0.5683370000000 1.0
C      1  0.5260020000000  0.4385280000000  0.5489010000000 1.0
C      1  0.4333630000000  0.4573310000000  0.4715290000000 1.0
C      1  0.4172680000000  0.5237100000000  0.5420700000000 1.0
C      1  0.5648640000000  0.4177770000000  0.4914420000000 1.0
C      1  0.4990820000000  0.4468910000000  0.5581500000000 1.0
C      1  0.5571960000000  0.5469760000000  0.5514630000000 1.0
C      1  0.5341060000000  0.5496930000000  0.4440160000000 1.0
C      1  0.5247510000000  0.5019690000000  0.4792890000000 1.0
C      1  0.5417950000000  0.4677250000000  0.4379110000000 1.0
C      1  0.5098140000000  0.5055360000000  0.4206480000000 1.0
C      1  0.5298680000000  0.5247460000000  0.4270960000000 1.0
C      1  0.5190140000000  0.5704730000000  0.4581790000000 1.0
C      1  0.5136600000000  0.4778140000000  0.4342240000000 1.0
C      1  0.4408910000000  0.4685600000000  0.4470050000000 1.0
C      1  0.5295160000000  0.5450920000000  0.4974380000000 1.0
C      1  0.5804420000000  0.4849090000000  0.4639680000000 1.0
C      1  0.5110280000000  0.4920260000000  0.5342020000000 1.0
END
