TITL C-95117-8395-3 0.0931307168071958 125000 -564.46117757409 0 0 82 (C1) n - 1
REM
REM in /rds/project/t2_vol4/rds-t2-cs072/BORA/CARBON/from-Arr/AIRSS/Generating-Clusters/GAP-ML-2020/Only-C1/SD-CG/HFTN-CG
REM
REM
REM
REM
REM
REM ./C.cell (11c1c37f851c82e70ff6c80c92926a4b)
REM AIRSS Version 0.9.1 bugfix July 2018 build 013d7b7c2542+ Fri, 06 Jul 2018 19:26:36 +0100
REM compiler GCC version 9.3.0
REM options -cpp -mtune=generic -march=x86-64 -g -O0
REM seed 1634862925 1290537026 -921247598 23438392 -1416772002 -1964947195 -1910845119 756138304 1254634052 -1297969545 1455586105 -1950306488 -949991790 -1541605004 -2041922911 995956616 1932155986 -270166610 1122429476 796830099 -1502499762 -688742250 -677886455 868225828 -472688302 -525870886 -1102539796 -1761585253 554835638 274194466 1974097193 -1110286643 -1726838402
REM
CELL 1.54180   50.00000   50.00000   50.00000   90.00000   90.00000   90.00000
LATT -1
SFAC C  
C      1  0.5168970000000  0.5031250000000  0.4695500000000 1.0
C      1  0.4683820000000  0.5563220000000  0.4822270000000 1.0
C      1  0.5782680000000  0.5011520000000  0.5048380000000 1.0
C      1  0.5170660000000  0.4514790000000  0.4393530000000 1.0
C      1  0.5097120000000  0.4733790000000  0.5890240000000 1.0
C      1  0.4720690000000  0.4420940000000  0.4836480000000 1.0
C      1  0.5094830000000  0.5845300000000  0.5336130000000 1.0
C      1  0.4717600000000  0.5303340000000  0.5656290000000 1.0
C      1  0.4858860000000  0.4221730000000  0.5004980000000 1.0
C      1  0.4803430000000  0.4220620000000  0.5283900000000 1.0
C      1  0.5544190000000  0.4670170000000  0.4501080000000 1.0
C      1  0.4338550000000  0.4767640000000  0.5362420000000 1.0
C      1  0.5148020000000  0.5602950000000  0.4724560000000 1.0
C      1  0.4249280000000  0.4934180000000  0.4759370000000 1.0
C      1  0.5084630000000  0.4227660000000  0.5394240000000 1.0
C      1  0.4785550000000  0.5219450000000  0.4219750000000 1.0
C      1  0.5222580000000  0.5253690000000  0.5079020000000 1.0
C      1  0.5402910000000  0.4718150000000  0.5079310000000 1.0
C      1  0.5610600000000  0.5081430000000  0.5527330000000 1.0
C      1  0.4943320000000  0.4854370000000  0.4665610000000 1.0
C      1  0.5160550000000  0.4235600000000  0.4996550000000 1.0
C      1  0.4900950000000  0.4627440000000  0.4406890000000 1.0
C      1  0.4413040000000  0.4514240000000  0.5238780000000 1.0
C      1  0.5038970000000  0.4881550000000  0.5309010000000 1.0
C      1  0.5654640000000  0.5436890000000  0.5263780000000 1.0
C      1  0.4446850000000  0.4638890000000  0.4536750000000 1.0
C      1  0.4299170000000  0.4651230000000  0.4785730000000 1.0
C      1  0.4961940000000  0.4568100000000  0.5713770000000 1.0
C      1  0.5374740000000  0.4652210000000  0.4268530000000 1.0
C      1  0.4613730000000  0.4390840000000  0.5405580000000 1.0
C      1  0.4449330000000  0.4490410000000  0.4961910000000 1.0
C      1  0.4224000000000  0.5118700000000  0.4979250000000 1.0
C      1  0.5415570000000  0.5516620000000  0.5099480000000 1.0
C      1  0.4771500000000  0.5324790000000  0.4681490000000 1.0
C      1  0.5084020000000  0.5557340000000  0.4437570000000 1.0
C      1  0.5351330000000  0.5008920000000  0.4933380000000 1.0
C      1  0.5014810000000  0.5049000000000  0.4137840000000 1.0
C      1  0.5029510000000  0.5183800000000  0.5298100000000 1.0
C      1  0.4697550000000  0.5029150000000  0.4717960000000 1.0
C      1  0.4543960000000  0.5460610000000  0.5469110000000 1.0
C      1  0.4836670000000  0.5416060000000  0.4409870000000 1.0
C      1  0.4471620000000  0.5569640000000  0.5008850000000 1.0
C      1  0.5288150000000  0.5430820000000  0.4296420000000 1.0
C      1  0.5263630000000  0.4106230000000  0.5213940000000 1.0
C      1  0.5273540000000  0.5155650000000  0.4179070000000 1.0
C      1  0.4998190000000  0.5287810000000  0.5600910000000 1.0
C      1  0.4368080000000  0.5221430000000  0.5446260000000 1.0
C      1  0.4675880000000  0.4486850000000  0.4545360000000 1.0
C      1  0.4951660000000  0.4638420000000  0.4885230000000 1.0
C      1  0.5069340000000  0.5295380000000  0.4793070000000 1.0
C      1  0.5512560000000  0.5543070000000  0.5499400000000 1.0
C      1  0.5225530000000  0.5208230000000  0.5755460000000 1.0
C      1  0.5239440000000  0.4512820000000  0.4896640000000 1.0
C      1  0.4915920000000  0.5698500000000  0.4900150000000 1.0
C      1  0.5284270000000  0.4712740000000  0.5365450000000 1.0
C      1  0.4830120000000  0.4820200000000  0.4201250000000 1.0
C      1  0.5532470000000  0.5101700000000  0.4321710000000 1.0
C      1  0.5349950000000  0.4500530000000  0.4629270000000 1.0
C      1  0.5321010000000  0.5692580000000  0.5335240000000 1.0
C      1  0.5630990000000  0.4938700000000  0.4533340000000 1.0
C      1  0.4281510000000  0.5385420000000  0.4965950000000 1.0
C      1  0.5591230000000  0.5386730000000  0.4691410000000 1.0
C      1  0.4500540000000  0.4796150000000  0.5599070000000 1.0
C      1  0.5471610000000  0.5308890000000  0.5651260000000 1.0
C      1  0.4469740000000  0.4938280000000  0.4533540000000 1.0
C      1  0.4765080000000  0.5217280000000  0.5166530000000 1.0
C      1  0.5632560000000  0.5097830000000  0.4796550000000 1.0
C      1  0.5447050000000  0.4853180000000  0.5574280000000 1.0
C      1  0.4694170000000  0.4996980000000  0.5014000000000 1.0
C      1  0.5745540000000  0.5168180000000  0.5284710000000 1.0
C      1  0.5685630000000  0.4758610000000  0.5069980000000 1.0
C      1  0.4678850000000  0.4562640000000  0.5628570000000 1.0
C      1  0.4609290000000  0.4996310000000  0.4275370000000 1.0
C      1  0.5269150000000  0.4921060000000  0.5798310000000 1.0
C      1  0.4606790000000  0.5645320000000  0.5260190000000 1.0
C      1  0.4258300000000  0.5027930000000  0.5263710000000 1.0
C      1  0.4876190000000  0.5758940000000  0.5178930000000 1.0
C      1  0.5431950000000  0.5584930000000  0.4819700000000 1.0
C      1  0.4864980000000  0.4792050000000  0.5110400000000 1.0
C      1  0.5539900000000  0.5376760000000  0.4419570000000 1.0
C      1  0.5143870000000  0.4475630000000  0.5508110000000 1.0
C      1  0.4522600000000  0.5080990000000  0.5651140000000 1.0
END
