TITL C-95762-4876-6 -0.0336294869415798 125000 -155.229939614004 0 0 24 (C1) n - 1
REM
REM in /rds/project/t2_vol4/rds-t2-cs072/BORA/CARBON/from-Arr/AIRSS/Generating-Clusters/GAP-ML-2020/Only-C1/SD-CG/HFTN-CG
REM
REM
REM
REM
REM
REM ./C.cell (11c1c37f851c82e70ff6c80c92926a4b)
REM AIRSS Version 0.9.1 bugfix July 2018 build 013d7b7c2542+ Fri, 06 Jul 2018 19:26:36 +0100
REM compiler GCC version 9.3.0
REM options -cpp -mtune=generic -march=x86-64 -g -O0
REM seed -1795093003 1932396518 -707690877 1973578480 -1759542384 1355886502 1177411090 -1427360708 -103562700 375153465 -1250029687 1005845051 -1243591094 -279338317 39289633 -985515308 -1582697544 1066338171 -947937398 574247767 844442919 -1637584023 -770183239 -939228475 1908658 -2092801599 528832018 -726336046 1269961536 -940353611 -898627967 -979529909 320053934
REM
CELL 1.54180   50.00000   50.00000   50.00000   90.00000   90.00000   90.00000
LATT -1
SFAC C  
C      1  0.5504290000000  0.5058010000000  0.5033920000000 1.0
C      1  0.5176030000000  0.4745710000000  0.5004310000000 1.0
C      1  0.4732220000000  0.4657570000000  0.4857470000000 1.0
C      1  0.4796810000000  0.4747320000000  0.5485780000000 1.0
C      1  0.5355860000000  0.4991940000000  0.4647730000000 1.0
C      1  0.5083700000000  0.5244660000000  0.5093160000000 1.0
C      1  0.4829550000000  0.5332420000000  0.5202890000000 1.0
C      1  0.4715010000000  0.4912030000000  0.4986850000000 1.0
C      1  0.5008360000000  0.4565420000000  0.4853510000000 1.0
C      1  0.5194640000000  0.5381400000000  0.4855250000000 1.0
C      1  0.5437410000000  0.5223030000000  0.4805560000000 1.0
C      1  0.5423100000000  0.4828680000000  0.4877290000000 1.0
C      1  0.5056230000000  0.4716330000000  0.5517830000000 1.0
C      1  0.4720570000000  0.5321500000000  0.4747070000000 1.0
C      1  0.4984330000000  0.5310100000000  0.4663560000000 1.0
C      1  0.5070820000000  0.5041480000000  0.4641430000000 1.0
C      1  0.4630420000000  0.5378140000000  0.5002470000000 1.0
C      1  0.4813020000000  0.4445790000000  0.4724300000000 1.0
C      1  0.4727600000000  0.5159120000000  0.5384160000000 1.0
C      1  0.5184360000000  0.4819930000000  0.5293570000000 1.0
C      1  0.4695310000000  0.4909090000000  0.5279060000000 1.0
C      1  0.4566800000000  0.5131370000000  0.4870410000000 1.0
C      1  0.5293300000000  0.5085360000000  0.5240680000000 1.0
C      1  0.5000280000000  0.4993580000000  0.4931740000000 1.0
END
