TITL C-95114-8518-6 0.110046509836906 125000 -700.494494686953 0 0 99 (C1) n - 1
REM
REM in /rds/project/t2_vol4/rds-t2-cs072/BORA/CARBON/from-Arr/AIRSS/Generating-Clusters/GAP-ML-2020/Only-C1/SD-CG/HFTN-CG
REM
REM
REM
REM
REM
REM ./C.cell (11c1c37f851c82e70ff6c80c92926a4b)
REM AIRSS Version 0.9.1 bugfix July 2018 build 013d7b7c2542+ Fri, 06 Jul 2018 19:26:36 +0100
REM compiler GCC version 9.3.0
REM options -cpp -mtune=generic -march=x86-64 -g -O0
REM seed 1952205254 -335632688 -195304888 1906987715 -1513483445 686753888 -1774968138 -1789145393 -1730679439 -1642825936 19413587 -403181472 1088140136 -454059641 -442137103 608252247 834301535 440160549 2047488228 1554723220 -1278629586 -1681117153 -1804303005 -1982320073 59010899 -1892050177 -2099914483 1153000587 1810184496 -1790030070 1450664362 -1784442617 -1879536467
REM
CELL 1.54180   50.00000   50.00000   50.00000   90.00000   90.00000   90.00000
LATT -1
SFAC C  
C      1  0.5052880000000  0.5670070000000  0.5373050000000 1.0
C      1  0.5636410000000  0.5060660000000  0.5647440000000 1.0
C      1  0.5016500000000  0.4241600000000  0.4559390000000 1.0
C      1  0.5814970000000  0.5019710000000  0.4894260000000 1.0
C      1  0.4449410000000  0.4682450000000  0.4718620000000 1.0
C      1  0.4347480000000  0.4835030000000  0.5559330000000 1.0
C      1  0.4768920000000  0.4966940000000  0.4122100000000 1.0
C      1  0.4656490000000  0.5403090000000  0.4652030000000 1.0
C      1  0.4662280000000  0.4458440000000  0.5605330000000 1.0
C      1  0.4839330000000  0.6088700000000  0.4614720000000 1.0
C      1  0.4987880000000  0.4847320000000  0.5866770000000 1.0
C      1  0.5511290000000  0.5045890000000  0.4890400000000 1.0
C      1  0.4905740000000  0.4724880000000  0.5143760000000 1.0
C      1  0.5411930000000  0.5591730000000  0.4987850000000 1.0
C      1  0.4710870000000  0.4871310000000  0.5853400000000 1.0
C      1  0.5324950000000  0.4578910000000  0.4576150000000 1.0
C      1  0.4544530000000  0.4687590000000  0.5706920000000 1.0
C      1  0.5393670000000  0.4679850000000  0.5734070000000 1.0
C      1  0.4547190000000  0.5114620000000  0.4247150000000 1.0
C      1  0.5237000000000  0.5742380000000  0.4554470000000 1.0
C      1  0.4188330000000  0.5007580000000  0.5152520000000 1.0
C      1  0.4789950000000  0.4197280000000  0.5250520000000 1.0
C      1  0.5124180000000  0.5480970000000  0.4456020000000 1.0
C      1  0.5528580000000  0.4476470000000  0.5035640000000 1.0
C      1  0.4945530000000  0.4410730000000  0.5638790000000 1.0
C      1  0.5183620000000  0.4798810000000  0.5230240000000 1.0
C      1  0.5587490000000  0.4611310000000  0.5522340000000 1.0
C      1  0.4653160000000  0.5366390000000  0.4352170000000 1.0
C      1  0.5021900000000  0.5218140000000  0.4912100000000 1.0
C      1  0.4451930000000  0.5841300000000  0.4754190000000 1.0
C      1  0.5415900000000  0.4958950000000  0.5796600000000 1.0
C      1  0.5724500000000  0.4866300000000  0.5452690000000 1.0
C      1  0.5304710000000  0.4826100000000  0.4213710000000 1.0
C      1  0.4196100000000  0.5112290000000  0.4879890000000 1.0
C      1  0.4621970000000  0.5493900000000  0.5532500000000 1.0
C      1  0.5359790000000  0.5284320000000  0.4417610000000 1.0
C      1  0.5687230000000  0.4650030000000  0.4578950000000 1.0
C      1  0.5639700000000  0.5327270000000  0.5542660000000 1.0
C      1  0.5183480000000  0.5539520000000  0.5606980000000 1.0
C      1  0.4615410000000  0.4261920000000  0.4801080000000 1.0
C      1  0.5745190000000  0.4517200000000  0.4831060000000 1.0
C      1  0.4764480000000  0.5354090000000  0.5748140000000 1.0
C      1  0.4430600000000  0.4461660000000  0.4898890000000 1.0
C      1  0.5157960000000  0.5079440000000  0.5853770000000 1.0
C      1  0.5466920000000  0.4808650000000  0.4461140000000 1.0
C      1  0.4240220000000  0.5288310000000  0.5241070000000 1.0
C      1  0.4380220000000  0.5107800000000  0.5644070000000 1.0
C      1  0.5191230000000  0.5233380000000  0.5148200000000 1.0
C      1  0.5094760000000  0.4997460000000  0.4716910000000 1.0
C      1  0.5113320000000  0.4604490000000  0.5772540000000 1.0
C      1  0.4737470000000  0.4297710000000  0.4540310000000 1.0
C      1  0.5862630000000  0.4757670000000  0.4766940000000 1.0
C      1  0.5797650000000  0.5261370000000  0.4717430000000 1.0
C      1  0.5021250000000  0.4239540000000  0.5419640000000 1.0
C      1  0.4818690000000  0.4686290000000  0.4185210000000 1.0
C      1  0.4387480000000  0.4507920000000  0.5182980000000 1.0
C      1  0.4758570000000  0.5144340000000  0.5013160000000 1.0
C      1  0.4765860000000  0.5651650000000  0.5339940000000 1.0
C      1  0.4679200000000  0.4545440000000  0.4409500000000 1.0
C      1  0.5523820000000  0.4410250000000  0.5331980000000 1.0
C      1  0.4731460000000  0.4699760000000  0.4648830000000 1.0
C      1  0.4816430000000  0.4151360000000  0.4973970000000 1.0
C      1  0.4947530000000  0.5452720000000  0.4730810000000 1.0
C      1  0.5168440000000  0.4422240000000  0.4401780000000 1.0
C      1  0.4572620000000  0.6043430000000  0.4659360000000 1.0
C      1  0.5449350000000  0.5510030000000  0.5588150000000 1.0
C      1  0.4916000000000  0.5395280000000  0.4259220000000 1.0
C      1  0.4607300000000  0.5128290000000  0.5813090000000 1.0
C      1  0.5457830000000  0.5635250000000  0.4708840000000 1.0
C      1  0.4352820000000  0.4964710000000  0.4673850000000 1.0
C      1  0.5258150000000  0.5101320000000  0.4179780000000 1.0
C      1  0.5467370000000  0.5297760000000  0.5074780000000 1.0
C      1  0.4918810000000  0.4618590000000  0.4881310000000 1.0
C      1  0.4800810000000  0.4977290000000  0.5234880000000 1.0
C      1  0.5173360000000  0.5706930000000  0.5114810000000 1.0
C      1  0.5377300000000  0.5057380000000  0.4614940000000 1.0
C      1  0.4378260000000  0.5338400000000  0.5479910000000 1.0
C      1  0.5281270000000  0.4247740000000  0.5297650000000 1.0
C      1  0.5031230000000  0.5909340000000  0.4682380000000 1.0
C      1  0.5087120000000  0.5046410000000  0.5326850000000 1.0
C      1  0.5045560000000  0.5341470000000  0.5778880000000 1.0
C      1  0.5375870000000  0.4773290000000  0.5008050000000 1.0
C      1  0.5176270000000  0.4719370000000  0.4800330000000 1.0
C      1  0.4273720000000  0.4764310000000  0.5291890000000 1.0
C      1  0.5692980000000  0.5271460000000  0.5267470000000 1.0
C      1  0.5593990000000  0.5401960000000  0.4575750000000 1.0
C      1  0.4566760000000  0.4354860000000  0.5353160000000 1.0
C      1  0.4626120000000  0.5124290000000  0.4749660000000 1.0
C      1  0.4958900000000  0.5710490000000  0.4914940000000 1.0
C      1  0.4989240000000  0.5160000000000  0.4116340000000 1.0
C      1  0.4266490000000  0.5384780000000  0.4969920000000 1.0
C      1  0.5081770000000  0.4177390000000  0.4838240000000 1.0
C      1  0.5300770000000  0.4252550000000  0.5007650000000 1.0
C      1  0.5092830000000  0.4619600000000  0.4202010000000 1.0
C      1  0.5809580000000  0.5023890000000  0.5216190000000 1.0
C      1  0.4830250000000  0.4969610000000  0.4594360000000 1.0
C      1  0.4487270000000  0.5575930000000  0.4866550000000 1.0
C      1  0.4707120000000  0.5672210000000  0.5058970000000 1.0
C      1  0.4350360000000  0.5002830000000  0.4387130000000 1.0
END
