TITL C-95099-8540-7 0.199925423013763 125000 -839.933468000832 0 0 120 (C1) n - 1
REM
REM in /rds/project/t2_vol4/rds-t2-cs072/BORA/CARBON/from-Arr/AIRSS/Generating-Clusters/GAP-ML-2020/Only-C1/SD-CG/HFTN-CG
REM
REM
REM
REM
REM
REM ./C.cell (11c1c37f851c82e70ff6c80c92926a4b)
REM AIRSS Version 0.9.1 bugfix July 2018 build 013d7b7c2542+ Fri, 06 Jul 2018 19:26:36 +0100
REM compiler GCC version 9.3.0
REM options -cpp -mtune=generic -march=x86-64 -g -O0
REM seed 556826066 856078953 974567716 -56930016 -1702009774 -753098132 1875719263 1399940894 -930292977 20663733 -900562411 -1003116003 -2145276858 -1458130945 588322565 2021048476 1353472962 1253658043 -139083204 -460265579 324319081 1929214903 1835357446 410844339 1788835136 1949101602 -535945801 -287756725 -1627263454 -809853900 -598274918 -248783846 -1255376848
REM
CELL 1.54180   50.00000   50.00000   50.00000   90.00000   90.00000   90.00000
LATT -1
SFAC C  
C      1  0.6012320000000  0.4714330000000  0.5113230000000 1.0
C      1  0.5192820000000  0.4209800000000  0.4764220000000 1.0
C      1  0.5597390000000  0.5270740000000  0.4613740000000 1.0
C      1  0.4261250000000  0.4635000000000  0.5405350000000 1.0
C      1  0.5160830000000  0.4767820000000  0.4646560000000 1.0
C      1  0.4801910000000  0.5073960000000  0.4627410000000 1.0
C      1  0.5641030000000  0.4797330000000  0.5699530000000 1.0
C      1  0.4612920000000  0.5490680000000  0.5686750000000 1.0
C      1  0.4660040000000  0.4338360000000  0.4767350000000 1.0
C      1  0.5183730000000  0.4347720000000  0.5243130000000 1.0
C      1  0.5423730000000  0.5781770000000  0.5085610000000 1.0
C      1  0.5025890000000  0.5428300000000  0.5260530000000 1.0
C      1  0.4888560000000  0.5624890000000  0.4367900000000 1.0
C      1  0.5062550000000  0.5702640000000  0.4602500000000 1.0
C      1  0.5193360000000  0.4523810000000  0.4803430000000 1.0
C      1  0.5512140000000  0.4434840000000  0.4503730000000 1.0
C      1  0.5044010000000  0.4668720000000  0.5544620000000 1.0
C      1  0.4824160000000  0.5846280000000  0.5029930000000 1.0
C      1  0.5765160000000  0.5313430000000  0.5257970000000 1.0
C      1  0.4544610000000  0.5135760000000  0.5035140000000 1.0
C      1  0.5234850000000  0.4877640000000  0.5977190000000 1.0
C      1  0.4608450000000  0.4907640000000  0.4036560000000 1.0
C      1  0.4500330000000  0.4708350000000  0.4211100000000 1.0
C      1  0.4363860000000  0.4859680000000  0.4400590000000 1.0
C      1  0.5037060000000  0.4380390000000  0.5494620000000 1.0
C      1  0.4822670000000  0.4738560000000  0.5082520000000 1.0
C      1  0.4553820000000  0.5438830000000  0.5030420000000 1.0
C      1  0.4301310000000  0.5315790000000  0.5389510000000 1.0
C      1  0.4617880000000  0.5667450000000  0.5458380000000 1.0
C      1  0.5285980000000  0.4846930000000  0.4081370000000 1.0
C      1  0.4610020000000  0.5871910000000  0.4843530000000 1.0
C      1  0.4089540000000  0.4805640000000  0.4949950000000 1.0
C      1  0.5472570000000  0.4892240000000  0.5271340000000 1.0
C      1  0.4690570000000  0.4977380000000  0.5935250000000 1.0
C      1  0.5486640000000  0.4799090000000  0.5913280000000 1.0
C      1  0.4435180000000  0.5259720000000  0.5636010000000 1.0
C      1  0.4500650000000  0.4996390000000  0.5729710000000 1.0
C      1  0.4902630000000  0.5180330000000  0.5326380000000 1.0
C      1  0.5200670000000  0.4565220000000  0.4135690000000 1.0
C      1  0.5565720000000  0.5128310000000  0.5114060000000 1.0
C      1  0.5069790000000  0.4152930000000  0.5019710000000 1.0
C      1  0.4356440000000  0.4248880000000  0.5132100000000 1.0
C      1  0.5877470000000  0.5096100000000  0.5432340000000 1.0
C      1  0.4779330000000  0.4695320000000  0.5934060000000 1.0
C      1  0.5321900000000  0.5461170000000  0.4299680000000 1.0
C      1  0.4758970000000  0.4686300000000  0.5374000000000 1.0
C      1  0.4120090000000  0.5097580000000  0.4903020000000 1.0
C      1  0.5049670000000  0.5464660000000  0.4195580000000 1.0
C      1  0.4789030000000  0.4165940000000  0.4986220000000 1.0
C      1  0.5098170000000  0.5669610000000  0.5461690000000 1.0
C      1  0.5069290000000  0.4256110000000  0.4501030000000 1.0
C      1  0.5245060000000  0.4830520000000  0.5105730000000 1.0
C      1  0.5502730000000  0.5240000000000  0.4345040000000 1.0
C      1  0.4998150000000  0.5174150000000  0.4820740000000 1.0
C      1  0.5042150000000  0.4707270000000  0.5851510000000 1.0
C      1  0.5560270000000  0.5055620000000  0.4810660000000 1.0
C      1  0.5279290000000  0.5979530000000  0.4946130000000 1.0
C      1  0.5152690000000  0.5152950000000  0.5986890000000 1.0
C      1  0.4784490000000  0.4296120000000  0.5607360000000 1.0
C      1  0.5859750000000  0.5510710000000  0.5073290000000 1.0
C      1  0.5677910000000  0.4665800000000  0.4483940000000 1.0
C      1  0.4511020000000  0.4724090000000  0.5562820000000 1.0
C      1  0.5521280000000  0.5535470000000  0.4719710000000 1.0
C      1  0.5617590000000  0.4414460000000  0.5005140000000 1.0
C      1  0.4672260000000  0.4088690000000  0.5472630000000 1.0
C      1  0.4848680000000  0.5547780000000  0.5034690000000 1.0
C      1  0.5716850000000  0.4799310000000  0.4738610000000 1.0
C      1  0.4702420000000  0.4475270000000  0.4249090000000 1.0
C      1  0.5042480000000  0.5923520000000  0.4831920000000 1.0
C      1  0.4225080000000  0.4368530000000  0.5345470000000 1.0
C      1  0.5055370000000  0.4989980000000  0.3985940000000 1.0
C      1  0.5058770000000  0.5091080000000  0.5519890000000 1.0
C      1  0.5636040000000  0.4681640000000  0.5412810000000 1.0
C      1  0.4704390000000  0.4650780000000  0.4787550000000 1.0
C      1  0.4371850000000  0.4364610000000  0.4874930000000 1.0
C      1  0.4609610000000  0.5573860000000  0.4399840000000 1.0
C      1  0.4609840000000  0.4121340000000  0.5200260000000 1.0
C      1  0.5336330000000  0.5339390000000  0.5174340000000 1.0
C      1  0.5040110000000  0.5475510000000  0.4828110000000 1.0
C      1  0.5508350000000  0.4426610000000  0.5264340000000 1.0
C      1  0.4437380000000  0.4770810000000  0.4681080000000 1.0
C      1  0.5202660000000  0.4886720000000  0.5414100000000 1.0
C      1  0.5520720000000  0.5311740000000  0.5671140000000 1.0
C      1  0.5103030000000  0.4590260000000  0.5066220000000 1.0
C      1  0.5516810000000  0.4982880000000  0.4198390000000 1.0
C      1  0.5811650000000  0.4625350000000  0.4941890000000 1.0
C      1  0.5706440000000  0.5085620000000  0.5656830000000 1.0
C      1  0.5450150000000  0.4353860000000  0.4773730000000 1.0
C      1  0.4515720000000  0.5684910000000  0.4657470000000 1.0
C      1  0.4917880000000  0.4551060000000  0.4074490000000 1.0
C      1  0.4312830000000  0.5152310000000  0.4404310000000 1.0
C      1  0.4851640000000  0.4799020000000  0.3956590000000 1.0
C      1  0.4163160000000  0.4829380000000  0.5224570000000 1.0
C      1  0.4840800000000  0.5450780000000  0.5841480000000 1.0
C      1  0.5290880000000  0.5359710000000  0.5834520000000 1.0
C      1  0.4489490000000  0.5334750000000  0.4270390000000 1.0
C      1  0.5337730000000  0.5640940000000  0.4513410000000 1.0
C      1  0.5517480000000  0.5447850000000  0.5413340000000 1.0
C      1  0.5382340000000  0.5709400000000  0.5372730000000 1.0
C      1  0.4638330000000  0.4526020000000  0.5753530000000 1.0
C      1  0.5246300000000  0.4979650000000  0.4835660000000 1.0
C      1  0.4508160000000  0.5055880000000  0.4754490000000 1.0
C      1  0.4782450000000  0.4311420000000  0.4477790000000 1.0
C      1  0.4929610000000  0.5247580000000  0.4052280000000 1.0
C      1  0.5686820000000  0.5666430000000  0.4939930000000 1.0
C      1  0.5904850000000  0.4817550000000  0.5331970000000 1.0
C      1  0.5316990000000  0.5520610000000  0.4949580000000 1.0
C      1  0.4873360000000  0.5199070000000  0.5975110000000 1.0
C      1  0.4649410000000  0.5193080000000  0.4085420000000 1.0
C      1  0.4263710000000  0.5110970000000  0.5174250000000 1.0
C      1  0.5093600000000  0.5549600000000  0.5741650000000 1.0
C      1  0.5722400000000  0.4807000000000  0.4256280000000 1.0
C      1  0.4270500000000  0.5232470000000  0.4686140000000 1.0
C      1  0.4839910000000  0.5808830000000  0.5354020000000 1.0
C      1  0.4380410000000  0.5486040000000  0.4794660000000 1.0
C      1  0.4819590000000  0.5045670000000  0.5084260000000 1.0
C      1  0.4232970000000  0.4609910000000  0.4812060000000 1.0
C      1  0.5276500000000  0.4394970000000  0.4346740000000 1.0
C      1  0.4887030000000  0.4807500000000  0.4594090000000 1.0
C      1  0.4438470000000  0.5539590000000  0.5278510000000 1.0
END
