TITL C-95752-3848-4 0.0375798087412711 125000 -312.738830639634 0 0 47 (C1) n - 1
REM
REM in /rds/project/t2_vol4/rds-t2-cs072/BORA/CARBON/from-Arr/AIRSS/Generating-Clusters/GAP-ML-2020/Only-C1/SD-CG/HFTN-CG
REM
REM
REM
REM
REM
REM ./C.cell (11c1c37f851c82e70ff6c80c92926a4b)
REM AIRSS Version 0.9.1 bugfix July 2018 build 013d7b7c2542+ Fri, 06 Jul 2018 19:26:36 +0100
REM compiler GCC version 9.3.0
REM options -cpp -mtune=generic -march=x86-64 -g -O0
REM seed -1549998036 -1315794046 569824089 1635001276 -1603112764 1435474656 -398301246 -1653874771 1745942946 1499704241 -1800053073 -1907299844 -2144419269 -1718920138 382212622 420206829 420828010 571036311 1546514214 956497987 412026942 443930219 -1195189875 274154911 -1241520232 -415123219 -765928693 659211666 -1176927371 1294319658 558835432 349865237 -316209978
REM
CELL 1.54180   50.00000   50.00000   50.00000   90.00000   90.00000   90.00000
LATT -1
SFAC C  
C      1  0.5330730000000  0.5361080000000  0.5179340000000 1.0
C      1  0.5306040000000  0.5024790000000  0.5515530000000 1.0
C      1  0.4788220000000  0.4515170000000  0.5438780000000 1.0
C      1  0.5389760000000  0.4481650000000  0.4988160000000 1.0
C      1  0.4644830000000  0.4735940000000  0.5560850000000 1.0
C      1  0.4994280000000  0.5684480000000  0.5229960000000 1.0
C      1  0.4569240000000  0.5232160000000  0.4593000000000 1.0
C      1  0.4873970000000  0.4899960000000  0.4945790000000 1.0
C      1  0.5221090000000  0.5198760000000  0.5712990000000 1.0
C      1  0.4803620000000  0.5782810000000  0.5091640000000 1.0
C      1  0.4857230000000  0.5234270000000  0.5351160000000 1.0
C      1  0.4645230000000  0.4830890000000  0.5124480000000 1.0
C      1  0.4663010000000  0.5546910000000  0.5013610000000 1.0
C      1  0.5122860000000  0.4919600000000  0.5107020000000 1.0
C      1  0.4421550000000  0.4973450000000  0.5000990000000 1.0
C      1  0.5083290000000  0.4538410000000  0.5391910000000 1.0
C      1  0.5181320000000  0.5544870000000  0.5359900000000 1.0
C      1  0.4726630000000  0.4857210000000  0.4341930000000 1.0
C      1  0.5023570000000  0.4829200000000  0.4367790000000 1.0
C      1  0.5476010000000  0.5129410000000  0.5302630000000 1.0
C      1  0.5027300000000  0.4280480000000  0.4959920000000 1.0
C      1  0.4649420000000  0.4972470000000  0.5398560000000 1.0
C      1  0.5138040000000  0.4676640000000  0.4602990000000 1.0
C      1  0.4678490000000  0.4544230000000  0.5170770000000 1.0
C      1  0.5390010000000  0.4825500000000  0.4688640000000 1.0
C      1  0.4614360000000  0.5368880000000  0.5242010000000 1.0
C      1  0.5013290000000  0.5133330000000  0.4378520000000 1.0
C      1  0.5094730000000  0.5259090000000  0.4613860000000 1.0
C      1  0.4463360000000  0.4993040000000  0.4718270000000 1.0
C      1  0.5219340000000  0.4410080000000  0.4765320000000 1.0
C      1  0.4612920000000  0.4775680000000  0.4590480000000 1.0
C      1  0.5493580000000  0.5085970000000  0.4635570000000 1.0
C      1  0.5196000000000  0.4373690000000  0.5188720000000 1.0
C      1  0.4921310000000  0.5196220000000  0.4844420000000 1.0
C      1  0.4845860000000  0.4676080000000  0.4753040000000 1.0
C      1  0.5590970000000  0.4980810000000  0.5079930000000 1.0
C      1  0.5503550000000  0.4737590000000  0.4938730000000 1.0
C      1  0.4722340000000  0.5142440000000  0.4363960000000 1.0
C      1  0.5634980000000  0.5170750000000  0.4875580000000 1.0
C      1  0.4438550000000  0.5142750000000  0.5231960000000 1.0
C      1  0.5353220000000  0.5346890000000  0.4651250000000 1.0
C      1  0.5472350000000  0.5401720000000  0.4916860000000 1.0
C      1  0.5060410000000  0.5339880000000  0.5546490000000 1.0
C      1  0.4805000000000  0.4443920000000  0.4942850000000 1.0
C      1  0.4706040000000  0.5381370000000  0.4792630000000 1.0
C      1  0.5170790000000  0.4810430000000  0.5372530000000 1.0
C      1  0.5061330000000  0.5209040000000  0.5118670000000 1.0
END
