TITL C-95097-8459-6 -0.127741245361194 125000 -433.795028144044 0 0 64 (C1) n - 1
REM
REM in /rds/project/t2_vol4/rds-t2-cs072/BORA/CARBON/from-Arr/AIRSS/Generating-Clusters/GAP-ML-2020/Only-C1/SD-CG/HFTN-CG
REM
REM
REM
REM
REM
REM ./C.cell (11c1c37f851c82e70ff6c80c92926a4b)
REM AIRSS Version 0.9.1 bugfix July 2018 build 013d7b7c2542+ Fri, 06 Jul 2018 19:26:36 +0100
REM compiler GCC version 9.3.0
REM options -cpp -mtune=generic -march=x86-64 -g -O0
REM seed -1968613814 -1613445404 -957363102 1777305454 1365954439 -1248658598 635720787 -638808441 674551415 -414956885 -1679435474 -910385958 -1743568833 1302737844 -873957887 -625433386 593571284 -1548730839 25445570 -1785777218 498321322 1572268152 -971314120 -703161328 -1929526377 1260095152 1863117536 -837369466 -262666573 929692134 -1800265983 -397410904 788876435
REM
CELL 1.54180   50.00000   50.00000   50.00000   90.00000   90.00000   90.00000
LATT -1
SFAC C  
C      1  0.4859360000000  0.4776610000000  0.4942980000000 1.0
C      1  0.5433480000000  0.4748960000000  0.5541280000000 1.0
C      1  0.5357370000000  0.4811910000000  0.4345890000000 1.0
C      1  0.4547730000000  0.5427460000000  0.4880040000000 1.0
C      1  0.4593300000000  0.4508410000000  0.4679180000000 1.0
C      1  0.5175850000000  0.5066510000000  0.5150780000000 1.0
C      1  0.4835670000000  0.5801540000000  0.4699520000000 1.0
C      1  0.4644920000000  0.5476500000000  0.5154760000000 1.0
C      1  0.4363620000000  0.4635610000000  0.5086560000000 1.0
C      1  0.5023230000000  0.5123320000000  0.5667410000000 1.0
C      1  0.5055960000000  0.5224050000000  0.5391600000000 1.0
C      1  0.4823540000000  0.4402010000000  0.5257620000000 1.0
C      1  0.4557900000000  0.5138290000000  0.4837090000000 1.0
C      1  0.4963230000000  0.4320800000000  0.5027620000000 1.0
C      1  0.5251600000000  0.4357810000000  0.4978090000000 1.0
C      1  0.5259390000000  0.5113700000000  0.5807910000000 1.0
C      1  0.4480720000000  0.5366580000000  0.5370860000000 1.0
C      1  0.5541010000000  0.4715410000000  0.5283340000000 1.0
C      1  0.5480370000000  0.4932060000000  0.4568630000000 1.0
C      1  0.4978400000000  0.4623660000000  0.5404200000000 1.0
C      1  0.4662290000000  0.4993880000000  0.5082630000000 1.0
C      1  0.5307450000000  0.4337220000000  0.4518040000000 1.0
C      1  0.4994400000000  0.5715290000000  0.4906280000000 1.0
C      1  0.5579570000000  0.5170320000000  0.5413710000000 1.0
C      1  0.4757050000000  0.4756860000000  0.5560940000000 1.0
C      1  0.4422760000000  0.4878030000000  0.5253420000000 1.0
C      1  0.4858990000000  0.5702020000000  0.5164360000000 1.0
C      1  0.4546510000000  0.4472950000000  0.5250970000000 1.0
C      1  0.5198120000000  0.5490760000000  0.4866110000000 1.0
C      1  0.5115870000000  0.4953190000000  0.4255280000000 1.0
C      1  0.5465960000000  0.5449660000000  0.5017030000000 1.0
C      1  0.5675500000000  0.5010900000000  0.4965770000000 1.0
C      1  0.4956920000000  0.4732670000000  0.4420480000000 1.0
C      1  0.4670780000000  0.4660770000000  0.4441890000000 1.0
C      1  0.4826340000000  0.5371500000000  0.4515000000000 1.0
C      1  0.4821310000000  0.4478480000000  0.4844870000000 1.0
C      1  0.5340080000000  0.4225780000000  0.4747120000000 1.0
C      1  0.4395330000000  0.4668800000000  0.4815310000000 1.0
C      1  0.5214310000000  0.5478990000000  0.5392650000000 1.0
C      1  0.5064840000000  0.5691890000000  0.5338110000000 1.0
C      1  0.5457040000000  0.5031220000000  0.5631390000000 1.0
C      1  0.4349650000000  0.5122200000000  0.5389610000000 1.0
C      1  0.5019150000000  0.5243890000000  0.4951190000000 1.0
C      1  0.4842830000000  0.5152670000000  0.4708800000000 1.0
C      1  0.5361510000000  0.4639250000000  0.5038100000000 1.0
C      1  0.5093720000000  0.4788330000000  0.5125320000000 1.0
C      1  0.4489550000000  0.4868180000000  0.4442490000000 1.0
C      1  0.5212130000000  0.4601230000000  0.5555730000000 1.0
C      1  0.5208740000000  0.4566080000000  0.4402500000000 1.0
C      1  0.5276250000000  0.5409760000000  0.4583250000000 1.0
C      1  0.4696070000000  0.5569360000000  0.4671940000000 1.0
C      1  0.4754610000000  0.5018200000000  0.5670760000000 1.0
C      1  0.4822330000000  0.5230400000000  0.5184680000000 1.0
C      1  0.4530840000000  0.5185820000000  0.5591120000000 1.0
C      1  0.4517210000000  0.4676790000000  0.5451620000000 1.0
C      1  0.4391140000000  0.4940130000000  0.4692030000000 1.0
C      1  0.4925000000000  0.4880020000000  0.4678440000000 1.0
C      1  0.5665970000000  0.4962600000000  0.5237540000000 1.0
C      1  0.5483100000000  0.5220760000000  0.4612360000000 1.0
C      1  0.5077650000000  0.5386030000000  0.4380710000000 1.0
C      1  0.5112480000000  0.5204250000000  0.4167120000000 1.0
C      1  0.5473210000000  0.5412470000000  0.5297680000000 1.0
C      1  0.5611000000000  0.5267040000000  0.4865240000000 1.0
C      1  0.5527820000000  0.4812150000000  0.4825070000000 1.0
END
