TITL C-95100-8489-3 -0.0276067770074107 125000 -72.4732663623649 0 0 12 (C1) n - 1
REM
REM in /rds/project/t2_vol4/rds-t2-cs072/BORA/CARBON/from-Arr/AIRSS/Generating-Clusters/GAP-ML-2020/Only-C1/SD-CG/HFTN-CG
REM
REM
REM
REM
REM
REM ./C.cell (11c1c37f851c82e70ff6c80c92926a4b)
REM AIRSS Version 0.9.1 bugfix July 2018 build 013d7b7c2542+ Fri, 06 Jul 2018 19:26:36 +0100
REM compiler GCC version 9.3.0
REM options -cpp -mtune=generic -march=x86-64 -g -O0
REM seed -1809280021 -777106559 987429696 163928157 43639806 685723078 -1763475309 174971081 -836008813 387129280 2086966000 933037749 701036740 1940311435 -1846760918 -149052091 -1971826116 1863591350 2054171912 908696041 1968364623 -1772787024 -1634086439 -712740072 -1516385181 132901794 -249207070 1432856529 -1433382002 921901054 -1013729942 -2101650504 2026342215
REM
CELL 1.54180   50.00000   50.00000   50.00000   90.00000   90.00000   90.00000
LATT -1
SFAC C  
C      1  0.5365080000000  0.5196010000000  0.5044690000000 1.0
C      1  0.4749810000000  0.4521500000000  0.4843550000000 1.0
C      1  0.4633770000000  0.5365150000000  0.5262500000000 1.0
C      1  0.5220720000000  0.5245710000000  0.5255090000000 1.0
C      1  0.4725020000000  0.4768310000000  0.4873190000000 1.0
C      1  0.5003700000000  0.5111880000000  0.4734120000000 1.0
C      1  0.4663310000000  0.5211580000000  0.5065900000000 1.0
C      1  0.5076840000000  0.5234060000000  0.5472680000000 1.0
C      1  0.5247320000000  0.5028400000000  0.4846550000000 1.0
C      1  0.4776510000000  0.5033820000000  0.4881990000000 1.0
C      1  0.5296040000000  0.4761320000000  0.4831390000000 1.0
C      1  0.5241880000000  0.4522260000000  0.4888340000000 1.0
END
