TITL C-95733-3499-5 -0.157595431226932 125000 -584.864904193165 0 0 83 (C1) n - 1
REM
REM in /rds/project/t2_vol4/rds-t2-cs072/BORA/CARBON/from-Arr/AIRSS/Generating-Clusters/GAP-ML-2020/Only-C1/SD-CG/HFTN-CG
REM
REM
REM
REM
REM
REM ./C.cell (11c1c37f851c82e70ff6c80c92926a4b)
REM AIRSS Version 0.9.1 bugfix July 2018 build 013d7b7c2542+ Fri, 06 Jul 2018 19:26:36 +0100
REM compiler GCC version 9.3.0
REM options -cpp -mtune=generic -march=x86-64 -g -O0
REM seed 1471148273 1004928459 1971108813 -1475087129 -1392697902 -962827489 -1208478748 -1669242484 1258544161 -639092118 126411013 -2034417973 -1940248097 -1789078421 1939442394 433249974 1225131740 -1317753593 402063696 -1428786728 -1807124045 1585863646 -1039766933 1320430806 1072504246 -405829644 1349752540 577014205 -544999728 -602782250 -1929594762 1237005920 -713055743
REM
CELL 1.54180   50.00000   50.00000   50.00000   90.00000   90.00000   90.00000
LATT -1
SFAC C  
C      1  0.4497330000000  0.5390840000000  0.5128290000000 1.0
C      1  0.4820230000000  0.4936800000000  0.5772850000000 1.0
C      1  0.4348090000000  0.5370420000000  0.4688230000000 1.0
C      1  0.4361280000000  0.4562650000000  0.5114690000000 1.0
C      1  0.5718190000000  0.5074940000000  0.4887370000000 1.0
C      1  0.4219440000000  0.4811250000000  0.5132710000000 1.0
C      1  0.5184450000000  0.5555710000000  0.4397410000000 1.0
C      1  0.5265760000000  0.4306430000000  0.4629320000000 1.0
C      1  0.5073820000000  0.4390480000000  0.4459540000000 1.0
C      1  0.5193230000000  0.5210890000000  0.5774920000000 1.0
C      1  0.5263970000000  0.4343520000000  0.4893880000000 1.0
C      1  0.4592280000000  0.4976030000000  0.4112030000000 1.0
C      1  0.5125450000000  0.5078890000000  0.4850060000000 1.0
C      1  0.4521700000000  0.5590450000000  0.4700140000000 1.0
C      1  0.5283200000000  0.4288200000000  0.5346260000000 1.0
C      1  0.5429830000000  0.5500510000000  0.4525110000000 1.0
C      1  0.5568560000000  0.5568930000000  0.5006960000000 1.0
C      1  0.5095710000000  0.4455570000000  0.5480470000000 1.0
C      1  0.4291980000000  0.5264960000000  0.4947870000000 1.0
C      1  0.5448490000000  0.5041970000000  0.5260360000000 1.0
C      1  0.5147620000000  0.4196370000000  0.5107280000000 1.0
C      1  0.5267960000000  0.4931120000000  0.5745390000000 1.0
C      1  0.4223120000000  0.4989640000000  0.4908310000000 1.0
C      1  0.5070320000000  0.4632110000000  0.4296420000000 1.0
C      1  0.4464180000000  0.4431760000000  0.5340060000000 1.0
C      1  0.5133600000000  0.4708130000000  0.5310040000000 1.0
C      1  0.5264410000000  0.4632200000000  0.5015660000000 1.0
C      1  0.5367360000000  0.4841910000000  0.5472550000000 1.0
C      1  0.4790590000000  0.4663130000000  0.4220390000000 1.0
C      1  0.5707830000000  0.5322890000000  0.5042250000000 1.0
C      1  0.5041100000000  0.4788490000000  0.5832930000000 1.0
C      1  0.4951910000000  0.5169590000000  0.5260710000000 1.0
C      1  0.4835200000000  0.5060960000000  0.4841580000000 1.0
C      1  0.4454350000000  0.4668990000000  0.4623110000000 1.0
C      1  0.5153660000000  0.5754510000000  0.4808810000000 1.0
C      1  0.4371030000000  0.5159860000000  0.4503000000000 1.0
C      1  0.5497440000000  0.5229930000000  0.4453150000000 1.0
C      1  0.5518650000000  0.5476320000000  0.5467100000000 1.0
C      1  0.5236830000000  0.4819820000000  0.4803680000000 1.0
C      1  0.4853190000000  0.4217420000000  0.5074470000000 1.0
C      1  0.5608500000000  0.4654520000000  0.5472080000000 1.0
C      1  0.5021760000000  0.5816620000000  0.5062050000000 1.0
C      1  0.4666340000000  0.4852450000000  0.5540320000000 1.0
C      1  0.5418870000000  0.5638710000000  0.4778690000000 1.0
C      1  0.5170120000000  0.5726820000000  0.5290170000000 1.0
C      1  0.5446520000000  0.5653780000000  0.5258910000000 1.0
C      1  0.4747770000000  0.4836030000000  0.5004100000000 1.0
C      1  0.5547320000000  0.4593380000000  0.5077200000000 1.0
C      1  0.5287760000000  0.5441180000000  0.5635880000000 1.0
C      1  0.4804870000000  0.4361170000000  0.4571880000000 1.0
C      1  0.4778220000000  0.5363410000000  0.4332680000000 1.0
C      1  0.5273240000000  0.5118820000000  0.4291480000000 1.0
C      1  0.4554720000000  0.5325170000000  0.5414170000000 1.0
C      1  0.4637250000000  0.4553230000000  0.4440890000000 1.0
C      1  0.4744220000000  0.5829760000000  0.5065240000000 1.0
C      1  0.4742860000000  0.5583940000000  0.4518510000000 1.0
C      1  0.5666810000000  0.4863870000000  0.5096530000000 1.0
C      1  0.5878420000000  0.5073380000000  0.5447140000000 1.0
C      1  0.4562290000000  0.4583930000000  0.4898170000000 1.0
C      1  0.5670630000000  0.5253710000000  0.5337620000000 1.0
C      1  0.4250220000000  0.4954180000000  0.5358470000000 1.0
C      1  0.5005230000000  0.5689530000000  0.4571490000000 1.0
C      1  0.5430240000000  0.4809270000000  0.4584600000000 1.0
C      1  0.5064940000000  0.5330040000000  0.4273200000000 1.0
C      1  0.5541320000000  0.4434980000000  0.5315630000000 1.0
C      1  0.5270700000000  0.4832860000000  0.4337380000000 1.0
C      1  0.4462560000000  0.5062340000000  0.5476230000000 1.0
C      1  0.5614410000000  0.5033670000000  0.4626170000000 1.0
C      1  0.4842820000000  0.5356000000000  0.5505070000000 1.0
C      1  0.5826920000000  0.4826450000000  0.5357740000000 1.0
C      1  0.4910560000000  0.5207150000000  0.5749050000000 1.0
C      1  0.4310610000000  0.4913320000000  0.4640760000000 1.0
C      1  0.4697630000000  0.4255920000000  0.5311120000000 1.0
C      1  0.4826430000000  0.4385470000000  0.5530200000000 1.0
C      1  0.5211010000000  0.5154240000000  0.5114290000000 1.0
C      1  0.4732940000000  0.4342150000000  0.4844480000000 1.0
C      1  0.4882430000000  0.4868520000000  0.5273540000000 1.0
C      1  0.4560450000000  0.5651720000000  0.4983160000000 1.0
C      1  0.4562340000000  0.5180440000000  0.4292230000000 1.0
C      1  0.4599070000000  0.4568470000000  0.5559780000000 1.0
C      1  0.5062870000000  0.5567000000000  0.5507940000000 1.0
C      1  0.4776350000000  0.5263050000000  0.5036880000000 1.0
C      1  0.4676110000000  0.4774750000000  0.3981470000000 1.0
END
