TITL C-95124-8592-6 -0.0276936466211212 125000 -345.902863233259 0 0 52 (C1) n - 1
REM
REM in /rds/project/t2_vol4/rds-t2-cs072/BORA/CARBON/from-Arr/AIRSS/Generating-Clusters/GAP-ML-2020/Only-C1/SD-CG/HFTN-CG
REM
REM
REM
REM
REM
REM ./C.cell (11c1c37f851c82e70ff6c80c92926a4b)
REM AIRSS Version 0.9.1 bugfix July 2018 build 013d7b7c2542+ Fri, 06 Jul 2018 19:26:36 +0100
REM compiler GCC version 9.3.0
REM options -cpp -mtune=generic -march=x86-64 -g -O0
REM seed -1934205581 1155874328 -1732185275 1962369484 -457150937 -1832689876 411900080 546075825 649758333 180442168 2101132600 430766359 1275794113 1339467764 1257107969 -1307567139 -139297888 867916110 1953640848 -1255325084 196519060 -2094773250 -485004868 -1805944002 -2067453320 -883747834 34285020 -259497799 -2112493425 -1095697769 -1486902702 -1678286501 1320152860
REM
CELL 1.54180   50.00000   50.00000   50.00000   90.00000   90.00000   90.00000
LATT -1
SFAC C  
C      1  0.4726800000000  0.4695680000000  0.5346510000000 1.0
C      1  0.5412590000000  0.4660790000000  0.5607480000000 1.0
C      1  0.5009160000000  0.4804990000000  0.5381670000000 1.0
C      1  0.5340610000000  0.4840320000000  0.4914820000000 1.0
C      1  0.5420010000000  0.5294630000000  0.4953940000000 1.0
C      1  0.4780510000000  0.4624770000000  0.4838460000000 1.0
C      1  0.5394530000000  0.5370310000000  0.5513620000000 1.0
C      1  0.5649390000000  0.5315880000000  0.5443620000000 1.0
C      1  0.4688040000000  0.4743850000000  0.5618010000000 1.0
C      1  0.4735070000000  0.5135570000000  0.4430220000000 1.0
C      1  0.4913350000000  0.4879830000000  0.5696420000000 1.0
C      1  0.5059320000000  0.5605400000000  0.4867870000000 1.0
C      1  0.5467290000000  0.4928300000000  0.5595490000000 1.0
C      1  0.5513100000000  0.4752660000000  0.4476650000000 1.0
C      1  0.5377880000000  0.5052580000000  0.5127740000000 1.0
C      1  0.5050100000000  0.5505730000000  0.4576690000000 1.0
C      1  0.4318270000000  0.5336900000000  0.5023990000000 1.0
C      1  0.5197890000000  0.5263410000000  0.4545570000000 1.0
C      1  0.5011210000000  0.4889810000000  0.4823970000000 1.0
C      1  0.4404240000000  0.4860080000000  0.5008950000000 1.0
C      1  0.5436980000000  0.5216990000000  0.4681480000000 1.0
C      1  0.5077420000000  0.5083450000000  0.5252510000000 1.0
C      1  0.4574120000000  0.4644970000000  0.4337750000000 1.0
C      1  0.5028600000000  0.4277750000000  0.5077650000000 1.0
C      1  0.4406530000000  0.4879250000000  0.4719030000000 1.0
C      1  0.4964300000000  0.4393170000000  0.4830530000000 1.0
C      1  0.5243200000000  0.4426820000000  0.5176910000000 1.0
C      1  0.4914130000000  0.5081290000000  0.5008880000000 1.0
C      1  0.5230470000000  0.4593830000000  0.5413090000000 1.0
C      1  0.4831690000000  0.5416880000000  0.4422940000000 1.0
C      1  0.4607530000000  0.4682860000000  0.5086700000000 1.0
C      1  0.5055810000000  0.4801980000000  0.4370110000000 1.0
C      1  0.4979760000000  0.5357070000000  0.5371650000000 1.0
C      1  0.5259400000000  0.4629550000000  0.4471260000000 1.0
C      1  0.5220520000000  0.4463020000000  0.4701150000000 1.0
C      1  0.5572350000000  0.5058940000000  0.5353410000000 1.0
C      1  0.5066110000000  0.5060670000000  0.5818040000000 1.0
C      1  0.4485820000000  0.5317180000000  0.4797790000000 1.0
C      1  0.5218890000000  0.5500140000000  0.5334620000000 1.0
C      1  0.5356140000000  0.4549340000000  0.4935430000000 1.0
C      1  0.5266260000000  0.5513570000000  0.5042650000000 1.0
C      1  0.4734350000000  0.5466540000000  0.5258270000000 1.0
C      1  0.4478680000000  0.5341880000000  0.5262400000000 1.0
C      1  0.4753290000000  0.5301850000000  0.4900570000000 1.0
C      1  0.4475400000000  0.5125860000000  0.4593730000000 1.0
C      1  0.5295860000000  0.5136430000000  0.5682010000000 1.0
C      1  0.5013210000000  0.5030300000000  0.4551520000000 1.0
C      1  0.4573100000000  0.4669490000000  0.4619440000000 1.0
C      1  0.5485780000000  0.4929140000000  0.4672730000000 1.0
C      1  0.4775660000000  0.4826080000000  0.4303070000000 1.0
C      1  0.4339670000000  0.5099050000000  0.5161280000000 1.0
C      1  0.4809610000000  0.5563200000000  0.4999730000000 1.0
END
