TITL C-95109-8476-6 -121.18083242113 125000 -432.154357905803 0 0 64 (C1) n - 1
REM
REM in /rds/project/t2_vol4/rds-t2-cs072/BORA/CARBON/from-Arr/AIRSS/Generating-Clusters/GAP-ML-2020/Only-C1/SD-CG/HFTN-CG
REM
REM
REM
REM
REM
REM ./C.cell (11c1c37f851c82e70ff6c80c92926a4b)
REM AIRSS Version 0.9.1 bugfix July 2018 build 013d7b7c2542+ Fri, 06 Jul 2018 19:26:36 +0100
REM compiler GCC version 9.3.0
REM options -cpp -mtune=generic -march=x86-64 -g -O0
REM seed -294884151 -1989429115 -1753082662 2047131625 1292490524 -1079781140 256701059 -1149748502 1467128646 194004446 2002899889 1408165081 -1818925236 2144293519 1836147750 294706015 -109536729 1010018762 -2025510059 -1369235936 1403940903 636789150 1167752630 -1786669479 -1269744328 1093916584 -2055406476 -1740572646 1473333669 -54457081 -947012465 1529190444 182645314
REM
CELL 1.54180   50.00000   50.00000   50.00000   90.00000   90.00000   90.00000
LATT -1
SFAC C  
C      1  0.4605200000000  0.5433650000000  0.5450360000000 1.0
C      1  0.5615720000000  0.5148420000000  0.4937600000000 1.0
C      1  0.4237370000000  0.4919750000000  0.4927740000000 1.0
C      1  0.4893570000000  0.4302940000000  0.4864260000000 1.0
C      1  0.5133170000000  0.5120480000000  0.5729570000000 1.0
C      1  0.5254300000000  0.4751590000000  0.5467720000000 1.0
C      1  0.4907830000000  0.5116000000000  0.5306790000000 1.0
C      1  0.4630050000000  0.4938550000000  0.4345580000000 1.0
C      1  0.5617480000000  0.5448450000000  0.4908310000000 1.0
C      1  0.5368270000000  0.5170590000000  0.4328970000000 1.0
C      1  0.4285810000000  0.4786960000000  0.5169010000000 1.0
C      1  0.5098800000000  0.5484500000000  0.4364480000000 1.0
C      1  0.5818720000000  0.4943780000000  0.4849740000000 1.0
C      1  0.4795590000000  0.4539610000000  0.4447020000000 1.0
C      1  0.5022360000000  0.5351380000000  0.5177780000000 1.0
C      1  0.5336470000000  0.5083540000000  0.4814900000000 1.0
C      1  0.4475440000000  0.4915680000000  0.5357200000000 1.0
C      1  0.4476770000000  0.5161210000000  0.5537770000000 1.0
C      1  0.4428890000000  0.4524430000000  0.5099690000000 1.0
C      1  0.5115450000000  0.5288910000000  0.4888940000000 1.0
C      1  0.4647570000000  0.4461250000000  0.5270110000000 1.0
C      1  0.5350550000000  0.4984420000000  0.5597100000000 1.0
C      1  0.5522090000000  0.5141780000000  0.5429290000000 1.0
C      1  0.4888950000000  0.4970440000000  0.5762920000000 1.0
C      1  0.5591920000000  0.5553130000000  0.5157520000000 1.0
C      1  0.4760460000000  0.4961450000000  0.4921800000000 1.0
C      1  0.5586350000000  0.5006900000000  0.5197260000000 1.0
C      1  0.4659880000000  0.5565230000000  0.4949320000000 1.0
C      1  0.5176220000000  0.5551800000000  0.4767960000000 1.0
C      1  0.4429530000000  0.4960640000000  0.4543930000000 1.0
C      1  0.4740820000000  0.5470510000000  0.4708910000000 1.0
C      1  0.4965840000000  0.5598570000000  0.4579890000000 1.0
C      1  0.5017170000000  0.4851910000000  0.5334850000000 1.0
C      1  0.4659570000000  0.5065160000000  0.5168610000000 1.0
C      1  0.4700210000000  0.4395110000000  0.4690200000000 1.0
C      1  0.5170940000000  0.4376230000000  0.4855940000000 1.0
C      1  0.4734110000000  0.5518540000000  0.5200480000000 1.0
C      1  0.5394400000000  0.5457690000000  0.4417250000000 1.0
C      1  0.4979120000000  0.4797580000000  0.5044450000000 1.0
C      1  0.4534930000000  0.4826960000000  0.4783130000000 1.0
C      1  0.5473830000000  0.5431010000000  0.5376680000000 1.0
C      1  0.4497840000000  0.4538350000000  0.4826520000000 1.0
C      1  0.4886510000000  0.4334260000000  0.5159380000000 1.0
C      1  0.5068190000000  0.5390520000000  0.5653670000000 1.0
C      1  0.5076430000000  0.5204280000000  0.4300870000000 1.0
C      1  0.5672130000000  0.4723480000000  0.4833360000000 1.0
C      1  0.4783950000000  0.5414320000000  0.5674920000000 1.0
C      1  0.5505670000000  0.4715570000000  0.4600020000000 1.0
C      1  0.4869880000000  0.5178400000000  0.4742710000000 1.0
C      1  0.5246610000000  0.4824990000000  0.4919000000000 1.0
C      1  0.4882360000000  0.4748760000000  0.5586640000000 1.0
C      1  0.5175190000000  0.4385500000000  0.5155310000000 1.0
C      1  0.5438720000000  0.4995860000000  0.4531240000000 1.0
C      1  0.5015950000000  0.4713220000000  0.4504060000000 1.0
C      1  0.4188590000000  0.5012380000000  0.4682120000000 1.0
C      1  0.5194630000000  0.5465220000000  0.5402860000000 1.0
C      1  0.4670350000000  0.5150800000000  0.5751870000000 1.0
C      1  0.5235130000000  0.4618300000000  0.4687170000000 1.0
C      1  0.5446380000000  0.5541330000000  0.4679930000000 1.0
C      1  0.4646480000000  0.4676770000000  0.4256980000000 1.0
C      1  0.4911480000000  0.5020810000000  0.4469090000000 1.0
C      1  0.5480460000000  0.4744230000000  0.5098430000000 1.0
C      1  0.4645390000000  0.4669440000000  0.5465940000000 1.0
C      1  0.5359950000000  0.4556450000000  0.5286860000000 1.0
END
