TITL C-95107-8418-5 0.104316970805224 125000 -870.825359568325 0 0 124 (C1) n - 1
REM
REM in /rds/project/t2_vol4/rds-t2-cs072/BORA/CARBON/from-Arr/AIRSS/Generating-Clusters/GAP-ML-2020/Only-C1/SD-CG/HFTN-CG
REM
REM
REM
REM
REM
REM ./C.cell (11c1c37f851c82e70ff6c80c92926a4b)
REM AIRSS Version 0.9.1 bugfix July 2018 build 013d7b7c2542+ Fri, 06 Jul 2018 19:26:36 +0100
REM compiler GCC version 9.3.0
REM options -cpp -mtune=generic -march=x86-64 -g -O0
REM seed -285707701 -2071145000 -2056589173 -408995235 -398898846 953535434 -151864074 -784252400 670131662 203748843 -1354314649 -1681648060 -1741964396 -1940839897 -1947393019 1159048425 702821183 -761162021 -1433638207 -1909899018 -645192344 629114544 2033282002 -1220313700 -532419783 -878564917 1055301528 -1129640812 -1202615095 -477435980 -1768485796 -732421105 -2097601405
REM
CELL 1.54180   50.00000   50.00000   50.00000   90.00000   90.00000   90.00000
LATT -1
SFAC C  
C      1  0.4739630000000  0.5394280000000  0.4379280000000 1.0
C      1  0.5065740000000  0.4144190000000  0.5066500000000 1.0
C      1  0.4941960000000  0.4934680000000  0.4490120000000 1.0
C      1  0.5616340000000  0.4822010000000  0.4783270000000 1.0
C      1  0.5538080000000  0.4437560000000  0.5239540000000 1.0
C      1  0.5555060000000  0.5679770000000  0.5333160000000 1.0
C      1  0.5281940000000  0.4545440000000  0.4243770000000 1.0
C      1  0.5848080000000  0.5389650000000  0.5028430000000 1.0
C      1  0.4931500000000  0.5238380000000  0.4556650000000 1.0
C      1  0.4980910000000  0.4913870000000  0.5284420000000 1.0
C      1  0.4963470000000  0.4440440000000  0.5102040000000 1.0
C      1  0.4695870000000  0.5460910000000  0.5214160000000 1.0
C      1  0.5168110000000  0.4446430000000  0.5594170000000 1.0
C      1  0.4383150000000  0.4305270000000  0.5020770000000 1.0
C      1  0.4334400000000  0.5550880000000  0.4898070000000 1.0
C      1  0.4865200000000  0.4696690000000  0.4051170000000 1.0
C      1  0.5268500000000  0.5127540000000  0.4848180000000 1.0
C      1  0.5102780000000  0.4633280000000  0.5799920000000 1.0
C      1  0.4762390000000  0.5671660000000  0.4424840000000 1.0
C      1  0.4257010000000  0.4903870000000  0.5542740000000 1.0
C      1  0.5381520000000  0.4605490000000  0.5429980000000 1.0
C      1  0.4859930000000  0.4762960000000  0.5758930000000 1.0
C      1  0.4811750000000  0.5346990000000  0.5474630000000 1.0
C      1  0.5247540000000  0.5064400000000  0.5970540000000 1.0
C      1  0.4562440000000  0.4374170000000  0.4565070000000 1.0
C      1  0.5251780000000  0.5775520000000  0.5302720000000 1.0
C      1  0.5267940000000  0.4187130000000  0.4867560000000 1.0
C      1  0.5312670000000  0.4819180000000  0.5846930000000 1.0
C      1  0.5131090000000  0.5759860000000  0.5572780000000 1.0
C      1  0.4982870000000  0.5459060000000  0.5906300000000 1.0
C      1  0.5310110000000  0.4297390000000  0.4414100000000 1.0
C      1  0.4121060000000  0.5117060000000  0.5417300000000 1.0
C      1  0.4241120000000  0.5386080000000  0.5401700000000 1.0
C      1  0.4783720000000  0.4752900000000  0.5470040000000 1.0
C      1  0.5147520000000  0.4662900000000  0.4014550000000 1.0
C      1  0.5260150000000  0.5286650000000  0.5283140000000 1.0
C      1  0.4272290000000  0.4507880000000  0.5205240000000 1.0
C      1  0.4953310000000  0.5214680000000  0.4863350000000 1.0
C      1  0.4108270000000  0.4704290000000  0.5060470000000 1.0
C      1  0.4593520000000  0.4147710000000  0.5115660000000 1.0
C      1  0.4592100000000  0.5718950000000  0.5555170000000 1.0
C      1  0.5651480000000  0.5587300000000  0.5080460000000 1.0
C      1  0.4200750000000  0.4655040000000  0.4791220000000 1.0
C      1  0.5795670000000  0.4518950000000  0.5152610000000 1.0
C      1  0.4933250000000  0.5977440000000  0.4943880000000 1.0
C      1  0.4507830000000  0.5732790000000  0.4529370000000 1.0
C      1  0.4102450000000  0.4974980000000  0.5165400000000 1.0
C      1  0.4524590000000  0.4545090000000  0.4332140000000 1.0
C      1  0.4973710000000  0.5174610000000  0.5966030000000 1.0
C      1  0.5611530000000  0.5289780000000  0.5710660000000 1.0
C      1  0.5257530000000  0.5516400000000  0.5931900000000 1.0
C      1  0.4549020000000  0.4936770000000  0.5444030000000 1.0
C      1  0.4243070000000  0.5114070000000  0.4743150000000 1.0
C      1  0.5239350000000  0.5313740000000  0.4228590000000 1.0
C      1  0.4667810000000  0.4520980000000  0.4098520000000 1.0
C      1  0.4922470000000  0.5453140000000  0.5018110000000 1.0
C      1  0.5432330000000  0.4417290000000  0.4958580000000 1.0
C      1  0.4828670000000  0.4801860000000  0.4759610000000 1.0
C      1  0.5002270000000  0.4216300000000  0.5503560000000 1.0
C      1  0.5608790000000  0.4361650000000  0.4417980000000 1.0
C      1  0.5414330000000  0.5590700000000  0.4903480000000 1.0
C      1  0.4260720000000  0.4438890000000  0.5499710000000 1.0
C      1  0.5085080000000  0.5115490000000  0.4083550000000 1.0
C      1  0.4805580000000  0.4115920000000  0.4938960000000 1.0
C      1  0.4874510000000  0.5597690000000  0.5655540000000 1.0
C      1  0.5912990000000  0.4701670000000  0.5308130000000 1.0
C      1  0.4491180000000  0.5771800000000  0.4817250000000 1.0
C      1  0.4684290000000  0.4247340000000  0.5403590000000 1.0
C      1  0.5920010000000  0.5173370000000  0.4862900000000 1.0
C      1  0.5532840000000  0.4985900000000  0.4098750000000 1.0
C      1  0.4528350000000  0.4636530000000  0.5148850000000 1.0
C      1  0.4671160000000  0.5889270000000  0.5013000000000 1.0
C      1  0.4644380000000  0.5150340000000  0.5624510000000 1.0
C      1  0.5319840000000  0.5867930000000  0.4853410000000 1.0
C      1  0.4399850000000  0.5383690000000  0.5130820000000 1.0
C      1  0.5785810000000  0.4523220000000  0.4583760000000 1.0
C      1  0.5684780000000  0.5024950000000  0.5591050000000 1.0
C      1  0.4550240000000  0.4928880000000  0.5128010000000 1.0
C      1  0.4828910000000  0.4957730000000  0.4180630000000 1.0
C      1  0.4356220000000  0.4408280000000  0.4759170000000 1.0
C      1  0.5181180000000  0.5968010000000  0.5093190000000 1.0
C      1  0.4750880000000  0.4518370000000  0.5291390000000 1.0
C      1  0.5231790000000  0.4644080000000  0.4936340000000 1.0
C      1  0.5084820000000  0.5898270000000  0.4699220000000 1.0
C      1  0.5508290000000  0.5222400000000  0.4252850000000 1.0
C      1  0.5349090000000  0.5687600000000  0.5734960000000 1.0
C      1  0.4245920000000  0.4863510000000  0.4606280000000 1.0
C      1  0.5422520000000  0.5279890000000  0.5922720000000 1.0
C      1  0.5703880000000  0.4788050000000  0.4207660000000 1.0
C      1  0.4840920000000  0.4287430000000  0.4689430000000 1.0
C      1  0.5325620000000  0.4849940000000  0.4727260000000 1.0
C      1  0.5168100000000  0.5442740000000  0.4484650000000 1.0
C      1  0.5043070000000  0.5172670000000  0.5414220000000 1.0
C      1  0.5865850000000  0.4967210000000  0.5364880000000 1.0
C      1  0.5394980000000  0.5373580000000  0.4683870000000 1.0
C      1  0.5117990000000  0.4046510000000  0.5327950000000 1.0
C      1  0.5575180000000  0.4535200000000  0.4190110000000 1.0
C      1  0.4532200000000  0.5027950000000  0.4236260000000 1.0
C      1  0.4243230000000  0.5389140000000  0.4676930000000 1.0
C      1  0.5778730000000  0.5037260000000  0.4637500000000 1.0
C      1  0.5934180000000  0.5144320000000  0.5140520000000 1.0
C      1  0.4660260000000  0.5750200000000  0.5271350000000 1.0
C      1  0.4455750000000  0.4260800000000  0.5569060000000 1.0
C      1  0.5270680000000  0.4923400000000  0.3993220000000 1.0
C      1  0.5699800000000  0.4545350000000  0.4860720000000 1.0
C      1  0.4783420000000  0.5020840000000  0.5843640000000 1.0
C      1  0.4150530000000  0.4661830000000  0.5621450000000 1.0
C      1  0.5508350000000  0.4801370000000  0.5642490000000 1.0
C      1  0.5365590000000  0.5076870000000  0.5120990000000 1.0
C      1  0.5828500000000  0.4794900000000  0.4462480000000 1.0
C      1  0.5027070000000  0.5717750000000  0.4499360000000 1.0
C      1  0.4818490000000  0.4972410000000  0.5006440000000 1.0
C      1  0.5254350000000  0.4807030000000  0.5198890000000 1.0
C      1  0.4338350000000  0.5497620000000  0.4439180000000 1.0
C      1  0.4397500000000  0.4810850000000  0.4365850000000 1.0
C      1  0.4352880000000  0.5576880000000  0.5565450000000 1.0
C      1  0.4948940000000  0.4553080000000  0.4838190000000 1.0
C      1  0.4492830000000  0.5301460000000  0.4288470000000 1.0
C      1  0.5136820000000  0.4202680000000  0.4613780000000 1.0
C      1  0.5214970000000  0.4821840000000  0.4465130000000 1.0
C      1  0.5611810000000  0.5254140000000  0.4512290000000 1.0
C      1  0.5187860000000  0.5525760000000  0.5125830000000 1.0
C      1  0.4325750000000  0.5102940000000  0.5023110000000 1.0
C      1  0.5574650000000  0.5570050000000  0.5596270000000 1.0
END
