TITL C-95751-4096-8 -160.912615050115 125000 -755.771182699819 0 0 106 (C1) n - 1
REM
REM in /rds/project/t2_vol4/rds-t2-cs072/BORA/CARBON/from-Arr/AIRSS/Generating-Clusters/GAP-ML-2020/Only-C1/SD-CG/HFTN-CG
REM
REM
REM
REM
REM
REM ./C.cell (11c1c37f851c82e70ff6c80c92926a4b)
REM AIRSS Version 0.9.1 bugfix July 2018 build 013d7b7c2542+ Fri, 06 Jul 2018 19:26:36 +0100
REM compiler GCC version 9.3.0
REM options -cpp -mtune=generic -march=x86-64 -g -O0
REM seed 796574510 1522850888 96980477 -1640271049 -318370752 -1810456741 911957949 622721313 1031581140 -784405494 2047391334 -1841362332 1444939674 2106246833 744977007 -296621478 -1581825047 1149754198 -230341151 2083094669 1393712337 69004652 1141753658 -1216081984 -1311865460 1701123247 -474154516 940812553 -394231479 -515888176 -1501624225 1078595977 -956929555
REM
CELL 1.54180   50.00000   50.00000   50.00000   90.00000   90.00000   90.00000
LATT -1
SFAC C  
C      1  0.4573020000000  0.4362590000000  0.5512400000000 1.0
C      1  0.4375480000000  0.4667250000000  0.4558930000000 1.0
C      1  0.4696320000000  0.5802690000000  0.4621110000000 1.0
C      1  0.4826810000000  0.5180700000000  0.4778440000000 1.0
C      1  0.4290970000000  0.5259920000000  0.4958170000000 1.0
C      1  0.4279930000000  0.5571860000000  0.4582470000000 1.0
C      1  0.5323400000000  0.4199180000000  0.5029660000000 1.0
C      1  0.5101220000000  0.5659300000000  0.4481730000000 1.0
C      1  0.5548280000000  0.5156320000000  0.5720960000000 1.0
C      1  0.5708650000000  0.5097710000000  0.5242480000000 1.0
C      1  0.5438170000000  0.5763690000000  0.5097700000000 1.0
C      1  0.4215700000000  0.4916640000000  0.5284810000000 1.0
C      1  0.5355400000000  0.5370960000000  0.5670530000000 1.0
C      1  0.5262460000000  0.4369880000000  0.4532090000000 1.0
C      1  0.4620650000000  0.5254870000000  0.4957870000000 1.0
C      1  0.4654940000000  0.4215080000000  0.5278650000000 1.0
C      1  0.4305850000000  0.5121600000000  0.4474900000000 1.0
C      1  0.5751690000000  0.5032210000000  0.5543250000000 1.0
C      1  0.4204540000000  0.5518090000000  0.4855910000000 1.0
C      1  0.4990820000000  0.4283790000000  0.4529230000000 1.0
C      1  0.4992030000000  0.4832500000000  0.5409850000000 1.0
C      1  0.4329570000000  0.4792690000000  0.5519270000000 1.0
C      1  0.5291410000000  0.5001250000000  0.4507350000000 1.0
C      1  0.5082840000000  0.5288550000000  0.5778100000000 1.0
C      1  0.5678450000000  0.4604960000000  0.4996340000000 1.0
C      1  0.4426810000000  0.5799010000000  0.4681260000000 1.0
C      1  0.5040900000000  0.4119870000000  0.4990620000000 1.0
C      1  0.5145950000000  0.4652940000000  0.4970870000000 1.0
C      1  0.5857630000000  0.4790540000000  0.5629230000000 1.0
C      1  0.4329810000000  0.5761890000000  0.4953030000000 1.0
C      1  0.5691500000000  0.4846330000000  0.4809510000000 1.0
C      1  0.5424960000000  0.4934480000000  0.5233480000000 1.0
C      1  0.4671410000000  0.4917390000000  0.4235340000000 1.0
C      1  0.5845790000000  0.5041370000000  0.4966940000000 1.0
C      1  0.5631790000000  0.4366940000000  0.4845890000000 1.0
C      1  0.5284380000000  0.5240100000000  0.4311680000000 1.0
C      1  0.4516880000000  0.4919080000000  0.5700900000000 1.0
C      1  0.4601160000000  0.4254570000000  0.4789140000000 1.0
C      1  0.4226450000000  0.4790600000000  0.4782070000000 1.0
C      1  0.4788740000000  0.4444450000000  0.4402670000000 1.0
C      1  0.4299560000000  0.4475830000000  0.5164070000000 1.0
C      1  0.4782340000000  0.5834850000000  0.5104730000000 1.0
C      1  0.4783600000000  0.5146140000000  0.5167690000000 1.0
C      1  0.5611600000000  0.5601840000000  0.5260920000000 1.0
C      1  0.5574260000000  0.4117820000000  0.4955870000000 1.0
C      1  0.4398380000000  0.5383320000000  0.4416080000000 1.0
C      1  0.4508210000000  0.5591530000000  0.5396970000000 1.0
C      1  0.4927200000000  0.4165680000000  0.5245460000000 1.0
C      1  0.4546580000000  0.4434560000000  0.4559000000000 1.0
C      1  0.4506130000000  0.5767430000000  0.5165830000000 1.0
C      1  0.4357680000000  0.4523260000000  0.5440030000000 1.0
C      1  0.5454400000000  0.5022830000000  0.4130040000000 1.0
C      1  0.4484530000000  0.4275690000000  0.5055140000000 1.0
C      1  0.4889990000000  0.4704160000000  0.4276530000000 1.0
C      1  0.4771540000000  0.5596120000000  0.5506140000000 1.0
C      1  0.5136260000000  0.5805090000000  0.4725910000000 1.0
C      1  0.5207010000000  0.5403660000000  0.5028120000000 1.0
C      1  0.5416250000000  0.5045090000000  0.4775850000000 1.0
C      1  0.4861940000000  0.4727960000000  0.4971930000000 1.0
C      1  0.5538240000000  0.4448500000000  0.4581770000000 1.0
C      1  0.4849320000000  0.4901690000000  0.4725560000000 1.0
C      1  0.5755970000000  0.5384320000000  0.5174640000000 1.0
C      1  0.4779450000000  0.5182980000000  0.4194870000000 1.0
C      1  0.5225250000000  0.4958460000000  0.5433220000000 1.0
C      1  0.4430300000000  0.4884080000000  0.4374180000000 1.0
C      1  0.5057070000000  0.4812620000000  0.4534360000000 1.0
C      1  0.4816150000000  0.5365550000000  0.5681730000000 1.0
C      1  0.5167110000000  0.4589010000000  0.5816940000000 1.0
C      1  0.5285730000000  0.4451080000000  0.5201410000000 1.0
C      1  0.5203940000000  0.5628920000000  0.5247240000000 1.0
C      1  0.5330090000000  0.5499010000000  0.4435990000000 1.0
C      1  0.4662690000000  0.5421440000000  0.4304560000000 1.0
C      1  0.4211060000000  0.5068130000000  0.4737330000000 1.0
C      1  0.4982690000000  0.4798450000000  0.5902910000000 1.0
C      1  0.5517220000000  0.4863490000000  0.4344690000000 1.0
C      1  0.5106830000000  0.4311800000000  0.5405970000000 1.0
C      1  0.4798330000000  0.4861760000000  0.5218600000000 1.0
C      1  0.5406030000000  0.4963040000000  0.5871390000000 1.0
C      1  0.4242110000000  0.5191070000000  0.5249240000000 1.0
C      1  0.5188330000000  0.4954310000000  0.4014210000000 1.0
C      1  0.5632500000000  0.4646540000000  0.5560350000000 1.0
C      1  0.5425650000000  0.4690570000000  0.5771200000000 1.0
C      1  0.4716670000000  0.4735800000000  0.5808760000000 1.0
C      1  0.5533760000000  0.4625870000000  0.5259050000000 1.0
C      1  0.4566950000000  0.5200360000000  0.5648320000000 1.0
C      1  0.5040010000000  0.5186370000000  0.5012740000000 1.0
C      1  0.5130410000000  0.5039680000000  0.5913680000000 1.0
C      1  0.5655420000000  0.4708950000000  0.4531340000000 1.0
C      1  0.5523270000000  0.5551740000000  0.4668510000000 1.0
C      1  0.5054800000000  0.5186620000000  0.4132710000000 1.0
C      1  0.4817580000000  0.5641870000000  0.4416310000000 1.0
C      1  0.4871910000000  0.4155560000000  0.4761990000000 1.0
C      1  0.4747320000000  0.4468710000000  0.5698450000000 1.0
C      1  0.4203000000000  0.4722880000000  0.5060990000000 1.0
C      1  0.5878240000000  0.5327750000000  0.4911150000000 1.0
C      1  0.4941540000000  0.5733370000000  0.5314830000000 1.0
C      1  0.4878470000000  0.5860880000000  0.4834970000000 1.0
C      1  0.5399580000000  0.5779350000000  0.4822150000000 1.0
C      1  0.4391260000000  0.5334850000000  0.5453070000000 1.0
C      1  0.5024270000000  0.4402780000000  0.5662990000000 1.0
C      1  0.5053630000000  0.4724780000000  0.4028600000000 1.0
C      1  0.5251340000000  0.4943360000000  0.4995490000000 1.0
C      1  0.5400780000000  0.5544970000000  0.5455270000000 1.0
C      1  0.5803530000000  0.5493020000000  0.4710540000000 1.0
C      1  0.5422780000000  0.5333870000000  0.4863420000000 1.0
C      1  0.5181190000000  0.4593060000000  0.4681160000000 1.0
END
