TITL C-95103-8399-7 -18.6386929957141 125000 -156.000261933334 0 0 25 (C1) n - 1
REM
REM in /rds/project/t2_vol4/rds-t2-cs072/BORA/CARBON/from-Arr/AIRSS/Generating-Clusters/GAP-ML-2020/Only-C1/SD-CG/HFTN-CG
REM
REM
REM
REM
REM
REM ./C.cell (11c1c37f851c82e70ff6c80c92926a4b)
REM AIRSS Version 0.9.1 bugfix July 2018 build 013d7b7c2542+ Fri, 06 Jul 2018 19:26:36 +0100
REM compiler GCC version 9.3.0
REM options -cpp -mtune=generic -march=x86-64 -g -O0
REM seed -1529786238 1750820787 -2076133349 1240231472 -515604289 424054224 336057533 1044728081 2006991542 566778518 -595117050 536753240 -616239380 1345927403 583745388 -2137042333 -1483068410 -226406146 1271877904 1862627507 160842113 98713458 2103808411 638076825 616253599 -2019557822 1308210182 -1782396377 258717871 975278770 788752286 1405711081 -1028292009
REM
CELL 1.54180   50.00000   50.00000   50.00000   90.00000   90.00000   90.00000
LATT -1
SFAC C  
C      1  0.4685590000000  0.5334480000000  0.4811070000000 1.0
C      1  0.4988480000000  0.4418090000000  0.5315730000000 1.0
C      1  0.5036920000000  0.5034490000000  0.4621420000000 1.0
C      1  0.5352760000000  0.4750280000000  0.5089120000000 1.0
C      1  0.4739220000000  0.4494820000000  0.5303530000000 1.0
C      1  0.5343000000000  0.5159100000000  0.4704880000000 1.0
C      1  0.5469830000000  0.5006670000000  0.5071330000000 1.0
C      1  0.5013390000000  0.4923690000000  0.4358380000000 1.0
C      1  0.4943010000000  0.5317870000000  0.4724350000000 1.0
C      1  0.5574010000000  0.5077430000000  0.4812190000000 1.0
C      1  0.4999040000000  0.5158320000000  0.5690470000000 1.0
C      1  0.5321770000000  0.5229920000000  0.5180290000000 1.0
C      1  0.4592050000000  0.5325450000000  0.5085830000000 1.0
C      1  0.4980530000000  0.4825320000000  0.4128400000000 1.0
C      1  0.4951140000000  0.4855200000000  0.4833150000000 1.0
C      1  0.5143100000000  0.4675320000000  0.4919670000000 1.0
C      1  0.4743850000000  0.4918710000000  0.5010160000000 1.0
C      1  0.4596950000000  0.4942740000000  0.5436320000000 1.0
C      1  0.4834690000000  0.5104240000000  0.5490530000000 1.0
C      1  0.5193210000000  0.5383530000000  0.4840020000000 1.0
C      1  0.4825750000000  0.5172720000000  0.5195790000000 1.0
C      1  0.5306060000000  0.5481260000000  0.5079290000000 1.0
C      1  0.5177890000000  0.4545460000000  0.5162890000000 1.0
C      1  0.4525660000000  0.5112380000000  0.4895120000000 1.0
C      1  0.4662110000000  0.4752490000000  0.5240080000000 1.0
END
