TITL C-95097-8459-1 112.11706077814 125000 -213.586985774223 0 0 33 (C1) n - 1
REM
REM in /rds/project/t2_vol4/rds-t2-cs072/BORA/CARBON/from-Arr/AIRSS/Generating-Clusters/GAP-ML-2020/Only-C1/SD-CG/HFTN-CG
REM
REM
REM
REM
REM
REM ./C.cell (11c1c37f851c82e70ff6c80c92926a4b)
REM AIRSS Version 0.9.1 bugfix July 2018 build 013d7b7c2542+ Fri, 06 Jul 2018 19:26:36 +0100
REM compiler GCC version 9.3.0
REM options -cpp -mtune=generic -march=x86-64 -g -O0
REM seed 2130740146 279155966 1524526009 526207437 330574687 1388448137 -586334797 1662098790 -1716411778 -1152071108 1873204515 -1834238545 724828794 -1625086847 988326399 159280499 -1566866106 -547577035 -1078955899 -97840059 235613122 -1699703266 -1217351831 1739103245 75365362 -794003686 909850421 1690151881 -1989056331 -1158463381 -600812788 1734660215 -1324100203
REM
CELL 1.54180   50.00000   50.00000   50.00000   90.00000   90.00000   90.00000
LATT -1
SFAC C  
C      1  0.4754300000000  0.5103330000000  0.4950350000000 1.0
C      1  0.4620890000000  0.4780340000000  0.5285500000000 1.0
C      1  0.5202150000000  0.5241620000000  0.5230550000000 1.0
C      1  0.4528540000000  0.5472580000000  0.4900830000000 1.0
C      1  0.4980650000000  0.5588430000000  0.4962950000000 1.0
C      1  0.4786540000000  0.5179610000000  0.4533020000000 1.0
C      1  0.4693980000000  0.5580040000000  0.5084320000000 1.0
C      1  0.5065360000000  0.5228300000000  0.4610560000000 1.0
C      1  0.4828550000000  0.4446320000000  0.4512820000000 1.0
C      1  0.4950720000000  0.5107640000000  0.5631540000000 1.0
C      1  0.5032010000000  0.4484590000000  0.4678810000000 1.0
C      1  0.5245670000000  0.4698800000000  0.4629890000000 1.0
C      1  0.4754910000000  0.4914100000000  0.4509440000000 1.0
C      1  0.5542740000000  0.4771140000000  0.4984840000000 1.0
C      1  0.4726140000000  0.5045470000000  0.5245840000000 1.0
C      1  0.5045900000000  0.4990770000000  0.5201690000000 1.0
C      1  0.4806510000000  0.5488210000000  0.5339440000000 1.0
C      1  0.5094280000000  0.4891930000000  0.5606610000000 1.0
C      1  0.5444030000000  0.5143250000000  0.5139350000000 1.0
C      1  0.4751060000000  0.5242130000000  0.5466780000000 1.0
C      1  0.5456400000000  0.5030820000000  0.4874550000000 1.0
C      1  0.5387980000000  0.4591450000000  0.4856470000000 1.0
C      1  0.5100730000000  0.5447030000000  0.4766530000000 1.0
C      1  0.4774450000000  0.4585280000000  0.5238260000000 1.0
C      1  0.5202190000000  0.4979290000000  0.4714020000000 1.0
C      1  0.5046800000000  0.4533360000000  0.5201940000000 1.0
C      1  0.4974790000000  0.4923940000000  0.4904150000000 1.0
C      1  0.5071890000000  0.5485210000000  0.5223980000000 1.0
C      1  0.4618170000000  0.5256220000000  0.4757370000000 1.0
C      1  0.5191570000000  0.4772310000000  0.5339470000000 1.0
C      1  0.5154420000000  0.4460580000000  0.4951170000000 1.0
C      1  0.5456710000000  0.4857810000000  0.5235180000000 1.0
C      1  0.4708960000000  0.4678140000000  0.4431790000000 1.0
END
