TITL C-95093-8547-6 -0.110851437741952 125000 -531.345797308933 0 0 76 (C1) n - 1
REM
REM in /rds/project/t2_vol4/rds-t2-cs072/BORA/CARBON/from-Arr/AIRSS/Generating-Clusters/GAP-ML-2020/Only-C1/SD-CG/HFTN-CG
REM
REM
REM
REM
REM
REM ./C.cell (11c1c37f851c82e70ff6c80c92926a4b)
REM AIRSS Version 0.9.1 bugfix July 2018 build 013d7b7c2542+ Fri, 06 Jul 2018 19:26:36 +0100
REM compiler GCC version 9.3.0
REM options -cpp -mtune=generic -march=x86-64 -g -O0
REM seed 1773299215 -183794655 1289378463 603799675 1790779012 -346447310 -1336395503 -1247576332 2076784162 1976413618 765298793 -456764187 -390791998 569459797 1330013091 -1072383880 1538403058 540844004 -575661429 -788634179 1647445189 -685975225 702225735 1878286436 1303399295 1666081835 1111256412 526768254 1049008751 -1883548634 138853190 1251311033 -746947023
REM
CELL 1.54180   50.00000   50.00000   50.00000   90.00000   90.00000   90.00000
LATT -1
SFAC C  
C      1  0.4687050000000  0.5473980000000  0.4652280000000 1.0
C      1  0.4615410000000  0.4932860000000  0.5662490000000 1.0
C      1  0.5285020000000  0.4399710000000  0.5269170000000 1.0
C      1  0.5045560000000  0.5584610000000  0.5179430000000 1.0
C      1  0.5537170000000  0.5464510000000  0.5193800000000 1.0
C      1  0.5464450000000  0.5368920000000  0.4378200000000 1.0
C      1  0.4360490000000  0.5519640000000  0.4993990000000 1.0
C      1  0.4832510000000  0.4912470000000  0.5105560000000 1.0
C      1  0.4771290000000  0.4484320000000  0.5818640000000 1.0
C      1  0.5399260000000  0.5171730000000  0.4825400000000 1.0
C      1  0.5712310000000  0.5315200000000  0.5017560000000 1.0
C      1  0.4747230000000  0.4342330000000  0.5291080000000 1.0
C      1  0.4571090000000  0.4439290000000  0.4831070000000 1.0
C      1  0.4266670000000  0.5318220000000  0.5162360000000 1.0
C      1  0.5273890000000  0.4915690000000  0.4815870000000 1.0
C      1  0.4361460000000  0.5138830000000  0.4656370000000 1.0
C      1  0.5645130000000  0.4827230000000  0.4504940000000 1.0
C      1  0.4841760000000  0.5709370000000  0.4742480000000 1.0
C      1  0.4983190000000  0.4568780000000  0.5659090000000 1.0
C      1  0.5328200000000  0.5628250000000  0.4773020000000 1.0
C      1  0.4620650000000  0.4639420000000  0.5643470000000 1.0
C      1  0.5018020000000  0.4955210000000  0.4654880000000 1.0
C      1  0.5233380000000  0.4661500000000  0.4356590000000 1.0
C      1  0.5069070000000  0.5071990000000  0.5158150000000 1.0
C      1  0.5429530000000  0.4447440000000  0.4771840000000 1.0
C      1  0.4984710000000  0.4671590000000  0.5128890000000 1.0
C      1  0.5013130000000  0.4259590000000  0.4902280000000 1.0
C      1  0.5654530000000  0.5040880000000  0.5368880000000 1.0
C      1  0.5768930000000  0.5045180000000  0.5110020000000 1.0
C      1  0.5782520000000  0.5032890000000  0.4651340000000 1.0
C      1  0.5058470000000  0.5215110000000  0.4514640000000 1.0
C      1  0.5276060000000  0.4323320000000  0.4995240000000 1.0
C      1  0.5096660000000  0.5752790000000  0.4668750000000 1.0
C      1  0.4879570000000  0.5050800000000  0.5712500000000 1.0
C      1  0.5423640000000  0.4649710000000  0.5289650000000 1.0
C      1  0.5412750000000  0.4881560000000  0.4354880000000 1.0
C      1  0.4981990000000  0.4766620000000  0.4403980000000 1.0
C      1  0.4994050000000  0.4346990000000  0.4638870000000 1.0
C      1  0.5306710000000  0.5155160000000  0.4343270000000 1.0
C      1  0.5649150000000  0.4640920000000  0.4743550000000 1.0
C      1  0.4352990000000  0.4630580000000  0.5225720000000 1.0
C      1  0.5324830000000  0.4949830000000  0.5667830000000 1.0
C      1  0.4787630000000  0.5001900000000  0.4837510000000 1.0
C      1  0.4413840000000  0.5315650000000  0.5407030000000 1.0
C      1  0.5553290000000  0.5518670000000  0.4586600000000 1.0
C      1  0.5515230000000  0.4821440000000  0.5492110000000 1.0
C      1  0.4281900000000  0.4924220000000  0.4849440000000 1.0
C      1  0.5185940000000  0.5355490000000  0.4772490000000 1.0
C      1  0.5336160000000  0.5626760000000  0.5089080000000 1.0
C      1  0.4822660000000  0.5723890000000  0.5028690000000 1.0
C      1  0.5676790000000  0.5291600000000  0.4732520000000 1.0
C      1  0.4752970000000  0.5277480000000  0.4898510000000 1.0
C      1  0.4909280000000  0.5504940000000  0.5447700000000 1.0
C      1  0.5013930000000  0.4454080000000  0.5379790000000 1.0
C      1  0.5243490000000  0.4454340000000  0.4550220000000 1.0
C      1  0.4404880000000  0.5048080000000  0.5512930000000 1.0
C      1  0.5788640000000  0.4864250000000  0.4888320000000 1.0
C      1  0.4579640000000  0.5648470000000  0.5137140000000 1.0
C      1  0.4773330000000  0.5290890000000  0.4451610000000 1.0
C      1  0.4374350000000  0.4636310000000  0.4934730000000 1.0
C      1  0.5074700000000  0.4843770000000  0.5731740000000 1.0
C      1  0.5300550000000  0.5232910000000  0.5612260000000 1.0
C      1  0.4748640000000  0.4293500000000  0.5016050000000 1.0
C      1  0.4204230000000  0.5049710000000  0.5089960000000 1.0
C      1  0.4728620000000  0.4650200000000  0.4380820000000 1.0
C      1  0.4730120000000  0.4449650000000  0.4587630000000 1.0
C      1  0.4263830000000  0.4886610000000  0.5317540000000 1.0
C      1  0.5514480000000  0.5289980000000  0.5423050000000 1.0
C      1  0.4627810000000  0.5515110000000  0.5384990000000 1.0
C      1  0.4554540000000  0.5099790000000  0.4436720000000 1.0
C      1  0.4562890000000  0.4856070000000  0.4323390000000 1.0
C      1  0.5232470000000  0.4831240000000  0.5089560000000 1.0
C      1  0.4413430000000  0.5412510000000  0.4736840000000 1.0
C      1  0.4533900000000  0.4497720000000  0.5399320000000 1.0
C      1  0.5017480000000  0.5322970000000  0.5007450000000 1.0
C      1  0.5017910000000  0.5304820000000  0.5628280000000 1.0
END
