TITL C-95755-4246-4 158.31432902626 125000 -698.636988294244 0 0 100 (C1) n - 1
REM
REM in /rds/project/t2_vol4/rds-t2-cs072/BORA/CARBON/from-Arr/AIRSS/Generating-Clusters/GAP-ML-2020/Only-C1/SD-CG/HFTN-CG
REM
REM
REM
REM
REM
REM ./C.cell (11c1c37f851c82e70ff6c80c92926a4b)
REM AIRSS Version 0.9.1 bugfix July 2018 build 013d7b7c2542+ Fri, 06 Jul 2018 19:26:36 +0100
REM compiler GCC version 9.3.0
REM options -cpp -mtune=generic -march=x86-64 -g -O0
REM seed -1894966024 -877326176 120246259 100853887 -2030365485 1539969252 -702509268 1996939077 364354703 1520959569 664403354 -1038089598 -1449212387 41067882 419184297 178285667 1724163496 -1210955889 402152773 -1370452242 1180362543 -764514286 1961007872 1372323266 -1295846353 79521682 2045817578 -882216968 855039603 1418681390 -1863314775 -1181714973 1780850921
REM
CELL 1.54180   50.00000   50.00000   50.00000   90.00000   90.00000   90.00000
LATT -1
SFAC C  
C      1  0.5432490000000  0.4662610000000  0.4285280000000 1.0
C      1  0.4939900000000  0.5871980000000  0.4826020000000 1.0
C      1  0.4691010000000  0.4668840000000  0.4326010000000 1.0
C      1  0.5719380000000  0.4559850000000  0.4702920000000 1.0
C      1  0.4243550000000  0.5170350000000  0.4515660000000 1.0
C      1  0.5217280000000  0.4711670000000  0.5711050000000 1.0
C      1  0.5572260000000  0.4891780000000  0.4275460000000 1.0
C      1  0.5361790000000  0.5807160000000  0.5099460000000 1.0
C      1  0.4488170000000  0.4332310000000  0.4653250000000 1.0
C      1  0.5670470000000  0.5525720000000  0.4818370000000 1.0
C      1  0.4950430000000  0.4518310000000  0.4319880000000 1.0
C      1  0.4447160000000  0.5322580000000  0.4424680000000 1.0
C      1  0.4482050000000  0.4610730000000  0.4555960000000 1.0
C      1  0.4591250000000  0.4689600000000  0.5618110000000 1.0
C      1  0.5043150000000  0.4470700000000  0.5252480000000 1.0
C      1  0.5429180000000  0.5318570000000  0.4409170000000 1.0
C      1  0.4601970000000  0.5176510000000  0.5623990000000 1.0
C      1  0.4218320000000  0.4559230000000  0.4969060000000 1.0
C      1  0.5847300000000  0.5150310000000  0.5115370000000 1.0
C      1  0.5635520000000  0.5113190000000  0.4413900000000 1.0
C      1  0.4199570000000  0.4685570000000  0.5241390000000 1.0
C      1  0.5234420000000  0.4972480000000  0.5818450000000 1.0
C      1  0.4899860000000  0.5364200000000  0.4298590000000 1.0
C      1  0.5674530000000  0.4371300000000  0.4915480000000 1.0
C      1  0.5157430000000  0.4721840000000  0.5409910000000 1.0
C      1  0.4812940000000  0.5223000000000  0.4876670000000 1.0
C      1  0.4098170000000  0.5393190000000  0.4985860000000 1.0
C      1  0.5429770000000  0.5173850000000  0.5743610000000 1.0
C      1  0.4224130000000  0.5054450000000  0.5460050000000 1.0
C      1  0.5109930000000  0.4987370000000  0.4598650000000 1.0
C      1  0.4303300000000  0.4752810000000  0.5521030000000 1.0
C      1  0.4503270000000  0.5672720000000  0.4818220000000 1.0
C      1  0.5659050000000  0.4711200000000  0.5241440000000 1.0
C      1  0.5299820000000  0.4761400000000  0.4968970000000 1.0
C      1  0.4959640000000  0.5649190000000  0.5415890000000 1.0
C      1  0.5079030000000  0.4591420000000  0.4986330000000 1.0
C      1  0.5144620000000  0.5194670000000  0.4355500000000 1.0
C      1  0.4720280000000  0.4440120000000  0.5225360000000 1.0
C      1  0.4718230000000  0.5781750000000  0.4977340000000 1.0
C      1  0.4371240000000  0.4330680000000  0.4910300000000 1.0
C      1  0.5374900000000  0.4258410000000  0.5205600000000 1.0
C      1  0.5816040000000  0.5280970000000  0.4854620000000 1.0
C      1  0.4831910000000  0.5253280000000  0.5762380000000 1.0
C      1  0.4914160000000  0.4471720000000  0.4759790000000 1.0
C      1  0.4521980000000  0.4958840000000  0.5165540000000 1.0
C      1  0.5764780000000  0.5273240000000  0.5368150000000 1.0
C      1  0.4702490000000  0.4424630000000  0.5517830000000 1.0
C      1  0.4951190000000  0.4929720000000  0.5337880000000 1.0
C      1  0.4146700000000  0.4994450000000  0.4705620000000 1.0
C      1  0.4814580000000  0.5607910000000  0.4429790000000 1.0
C      1  0.4722790000000  0.5665330000000  0.5249650000000 1.0
C      1  0.5163470000000  0.4250470000000  0.5398490000000 1.0
C      1  0.4955570000000  0.4331450000000  0.5628300000000 1.0
C      1  0.5044120000000  0.5367130000000  0.4910770000000 1.0
C      1  0.5327680000000  0.5141940000000  0.5230850000000 1.0
C      1  0.5019890000000  0.5406270000000  0.5589970000000 1.0
C      1  0.5152190000000  0.4682170000000  0.4209650000000 1.0
C      1  0.5324410000000  0.4306150000000  0.4623120000000 1.0
C      1  0.4331050000000  0.5530490000000  0.5010840000000 1.0
C      1  0.5821190000000  0.4817740000000  0.4784390000000 1.0
C      1  0.5623920000000  0.4430710000000  0.5188950000000 1.0
C      1  0.4706860000000  0.4699900000000  0.4735700000000 1.0
C      1  0.5649620000000  0.5137320000000  0.5582010000000 1.0
C      1  0.4191750000000  0.4974730000000  0.5185890000000 1.0
C      1  0.5514570000000  0.4485140000000  0.4504150000000 1.0
C      1  0.5227700000000  0.5877060000000  0.4870750000000 1.0
C      1  0.4551050000000  0.5578270000000  0.4543150000000 1.0
C      1  0.5271140000000  0.5220360000000  0.4967990000000 1.0
C      1  0.4805200000000  0.4749660000000  0.5835930000000 1.0
C      1  0.4736650000000  0.4243790000000  0.4771520000000 1.0
C      1  0.4928230000000  0.4840230000000  0.5050290000000 1.0
C      1  0.5090160000000  0.5175930000000  0.5377570000000 1.0
C      1  0.5602850000000  0.5651320000000  0.5071100000000 1.0
C      1  0.5049840000000  0.4355210000000  0.4536800000000 1.0
C      1  0.4671050000000  0.5202400000000  0.4263520000000 1.0
C      1  0.4757650000000  0.4929980000000  0.4214550000000 1.0
C      1  0.4667380000000  0.4935460000000  0.5440820000000 1.0
C      1  0.4237570000000  0.4722970000000  0.4721610000000 1.0
C      1  0.4948420000000  0.5011250000000  0.5859600000000 1.0
C      1  0.5306570000000  0.5429490000000  0.5678820000000 1.0
C      1  0.4656150000000  0.4716280000000  0.5050690000000 1.0
C      1  0.5285600000000  0.5751200000000  0.4613950000000 1.0
C      1  0.4867960000000  0.4964700000000  0.4761450000000 1.0
C      1  0.4390030000000  0.5290550000000  0.5486600000000 1.0
C      1  0.5309460000000  0.4982950000000  0.4791480000000 1.0
C      1  0.5482390000000  0.5548120000000  0.4580370000000 1.0
C      1  0.5225350000000  0.5745670000000  0.5347340000000 1.0
C      1  0.4073250000000  0.5118910000000  0.4963860000000 1.0
C      1  0.5648930000000  0.5536150000000  0.5328330000000 1.0
C      1  0.4605720000000  0.5213370000000  0.5064820000000 1.0
C      1  0.5803670000000  0.5076040000000  0.4653840000000 1.0
C      1  0.5008310000000  0.4544350000000  0.5808330000000 1.0
C      1  0.5420540000000  0.4231320000000  0.4893050000000 1.0
C      1  0.4508970000000  0.5446280000000  0.5240570000000 1.0
C      1  0.5831430000000  0.4869030000000  0.5070370000000 1.0
C      1  0.4997550000000  0.5770050000000  0.4558730000000 1.0
C      1  0.5042760000000  0.4946460000000  0.4182320000000 1.0
C      1  0.5423460000000  0.5600940000000  0.5493540000000 1.0
C      1  0.5384910000000  0.4835420000000  0.5246230000000 1.0
C      1  0.4612450000000  0.4243560000000  0.5035090000000 1.0
END
