TITL C-95101-8471-2 -0.0362508669876501 125000 -909.797483894301 0 0 128 (C1) n - 1
REM
REM in /rds/project/t2_vol4/rds-t2-cs072/BORA/CARBON/from-Arr/AIRSS/Generating-Clusters/GAP-ML-2020/Only-C1/SD-CG/HFTN-CG
REM
REM
REM
REM
REM
REM ./C.cell (11c1c37f851c82e70ff6c80c92926a4b)
REM AIRSS Version 0.9.1 bugfix July 2018 build 013d7b7c2542+ Fri, 06 Jul 2018 19:26:36 +0100
REM compiler GCC version 9.3.0
REM options -cpp -mtune=generic -march=x86-64 -g -O0
REM seed 1936381220 -2011039803 -1412345129 -320016334 -783432335 -871452792 1324894987 -457655277 1254025155 31859677 -1024129994 36731418 -1205777260 -1722781808 -1316004369 -436654299 -1102447749 614404875 -761060121 -29900479 -719024211 2109101289 -966068551 -1832674555 -1874606437 1027415698 -343675918 -252888643 -226437189 -1259326562 1551244485 -1451071974 -216414372
REM
CELL 1.54180   50.00000   50.00000   50.00000   90.00000   90.00000   90.00000
LATT -1
SFAC C  
C      1  0.5036030000000  0.4228710000000  0.4340940000000 1.0
C      1  0.5736690000000  0.4729790000000  0.5394220000000 1.0
C      1  0.4875400000000  0.4537870000000  0.4777260000000 1.0
C      1  0.4444230000000  0.5137200000000  0.4732240000000 1.0
C      1  0.5083560000000  0.4056160000000  0.4797330000000 1.0
C      1  0.5254030000000  0.4097580000000  0.5237020000000 1.0
C      1  0.5269880000000  0.4187160000000  0.5507620000000 1.0
C      1  0.5875360000000  0.4705820000000  0.4931030000000 1.0
C      1  0.4162930000000  0.4932850000000  0.5402610000000 1.0
C      1  0.4138550000000  0.5220790000000  0.5361410000000 1.0
C      1  0.4639360000000  0.5012450000000  0.5394110000000 1.0
C      1  0.4504150000000  0.5818420000000  0.4983480000000 1.0
C      1  0.5815020000000  0.4865070000000  0.5155870000000 1.0
C      1  0.5326560000000  0.4266180000000  0.4343960000000 1.0
C      1  0.5278380000000  0.5141860000000  0.5850590000000 1.0
C      1  0.4761890000000  0.5462560000000  0.5321410000000 1.0
C      1  0.5179510000000  0.5084800000000  0.3983790000000 1.0
C      1  0.4999480000000  0.4751930000000  0.5379930000000 1.0
C      1  0.4096150000000  0.5307640000000  0.5087800000000 1.0
C      1  0.5489330000000  0.4212400000000  0.4572470000000 1.0
C      1  0.4296240000000  0.5799140000000  0.5161130000000 1.0
C      1  0.4777920000000  0.4185490000000  0.5500460000000 1.0
C      1  0.4590300000000  0.4927600000000  0.4899070000000 1.0
C      1  0.5015210000000  0.4135030000000  0.5065330000000 1.0
C      1  0.4977670000000  0.5249320000000  0.4110330000000 1.0
C      1  0.5169370000000  0.4665640000000  0.5842320000000 1.0
C      1  0.5042640000000  0.5515120000000  0.5004130000000 1.0
C      1  0.4296210000000  0.5694810000000  0.5407520000000 1.0
C      1  0.4220640000000  0.4487210000000  0.4753470000000 1.0
C      1  0.5232620000000  0.5957820000000  0.5163840000000 1.0
C      1  0.5092420000000  0.4640020000000  0.4617000000000 1.0
C      1  0.5167950000000  0.5174530000000  0.5290650000000 1.0
C      1  0.4488730000000  0.5872420000000  0.5517330000000 1.0
C      1  0.5532070000000  0.5103750000000  0.5708810000000 1.0
C      1  0.4940770000000  0.5951570000000  0.5555680000000 1.0
C      1  0.4780540000000  0.4617700000000  0.5586730000000 1.0
C      1  0.5592650000000  0.4679380000000  0.4265740000000 1.0
C      1  0.5425510000000  0.4619310000000  0.5723230000000 1.0
C      1  0.4613870000000  0.4466170000000  0.5151170000000 1.0
C      1  0.5428400000000  0.5560280000000  0.5731700000000 1.0
C      1  0.5474330000000  0.4382060000000  0.5568400000000 1.0
C      1  0.5705930000000  0.5109120000000  0.4706510000000 1.0
C      1  0.4568440000000  0.5803500000000  0.5771630000000 1.0
C      1  0.5791840000000  0.5392400000000  0.5123210000000 1.0
C      1  0.5079990000000  0.4937400000000  0.5874630000000 1.0
C      1  0.4752960000000  0.5926500000000  0.5085230000000 1.0
C      1  0.4211880000000  0.4779350000000  0.5161340000000 1.0
C      1  0.5102870000000  0.5791330000000  0.4679070000000 1.0
C      1  0.5439580000000  0.5068070000000  0.4518730000000 1.0
C      1  0.4291110000000  0.5353980000000  0.4854930000000 1.0
C      1  0.4104640000000  0.4721840000000  0.4891140000000 1.0
C      1  0.5699610000000  0.4393100000000  0.4644410000000 1.0
C      1  0.5726170000000  0.5499080000000  0.5376600000000 1.0
C      1  0.5796380000000  0.4433380000000  0.4910000000000 1.0
C      1  0.4924490000000  0.5005810000000  0.5270010000000 1.0
C      1  0.5397350000000  0.4489060000000  0.4177870000000 1.0
C      1  0.4724040000000  0.5097680000000  0.4067040000000 1.0
C      1  0.5394740000000  0.5761450000000  0.4657090000000 1.0
C      1  0.4477530000000  0.4525100000000  0.4571690000000 1.0
C      1  0.5212060000000  0.5420010000000  0.5861290000000 1.0
C      1  0.4510450000000  0.5119270000000  0.4251770000000 1.0
C      1  0.4931950000000  0.4427460000000  0.4157060000000 1.0
C      1  0.5065660000000  0.4818600000000  0.3944050000000 1.0
C      1  0.4748840000000  0.5397070000000  0.5025390000000 1.0
C      1  0.4723600000000  0.5980640000000  0.5367390000000 1.0
C      1  0.5355600000000  0.5133500000000  0.5051450000000 1.0
C      1  0.4595400000000  0.5315300000000  0.5512830000000 1.0
C      1  0.4694470000000  0.4594690000000  0.4126150000000 1.0
C      1  0.4309480000000  0.5413070000000  0.5478820000000 1.0
C      1  0.4811150000000  0.5028060000000  0.5825700000000 1.0
C      1  0.4969030000000  0.4483750000000  0.5763940000000 1.0
C      1  0.4816480000000  0.5095550000000  0.4983390000000 1.0
C      1  0.4903610000000  0.4125430000000  0.4578750000000 1.0
C      1  0.5591960000000  0.4834660000000  0.5623330000000 1.0
C      1  0.5686210000000  0.5124240000000  0.5041200000000 1.0
C      1  0.4628880000000  0.4859250000000  0.5652850000000 1.0
C      1  0.4027850000000  0.4946340000000  0.4720370000000 1.0
C      1  0.4321370000000  0.4784180000000  0.5616760000000 1.0
C      1  0.4594960000000  0.4406720000000  0.5456530000000 1.0
C      1  0.5207420000000  0.4884930000000  0.4676750000000 1.0
C      1  0.4678630000000  0.4296670000000  0.4681200000000 1.0
C      1  0.5614440000000  0.5371740000000  0.5618740000000 1.0
C      1  0.5767970000000  0.5561560000000  0.4890330000000 1.0
C      1  0.4507180000000  0.4785260000000  0.5156230000000 1.0
C      1  0.5739280000000  0.4635130000000  0.4500700000000 1.0
C      1  0.5207240000000  0.5314100000000  0.4844830000000 1.0
C      1  0.5196390000000  0.5947550000000  0.5450820000000 1.0
C      1  0.4513260000000  0.4268920000000  0.4934800000000 1.0
C      1  0.4649030000000  0.5538390000000  0.4578640000000 1.0
C      1  0.5328280000000  0.4861660000000  0.4934740000000 1.0
C      1  0.5833040000000  0.4840630000000  0.4680880000000 1.0
C      1  0.4759590000000  0.5297450000000  0.5776130000000 1.0
C      1  0.4468530000000  0.4625940000000  0.4294960000000 1.0
C      1  0.4242640000000  0.4234760000000  0.4872940000000 1.0
C      1  0.4904020000000  0.4431230000000  0.5065820000000 1.0
C      1  0.5022430000000  0.5842810000000  0.4973510000000 1.0
C      1  0.5673950000000  0.4444330000000  0.5376110000000 1.0
C      1  0.5047490000000  0.5385720000000  0.4376530000000 1.0
C      1  0.5473480000000  0.4111610000000  0.5063930000000 1.0
C      1  0.5313080000000  0.5336940000000  0.4518140000000 1.0
C      1  0.5689010000000  0.4294050000000  0.5132350000000 1.0
C      1  0.5445750000000  0.5083640000000  0.4021680000000 1.0
C      1  0.4941380000000  0.5508910000000  0.5842920000000 1.0
C      1  0.5156360000000  0.4571020000000  0.4047110000000 1.0
C      1  0.4519080000000  0.5561180000000  0.4838850000000 1.0
C      1  0.4332410000000  0.4887050000000  0.4292980000000 1.0
C      1  0.4847220000000  0.5773840000000  0.5771020000000 1.0
C      1  0.5015580000000  0.4231460000000  0.5632860000000 1.0
C      1  0.5532550000000  0.4959150000000  0.4247610000000 1.0
C      1  0.5056420000000  0.5433630000000  0.5293380000000 1.0
C      1  0.4124410000000  0.4926350000000  0.4462590000000 1.0
C      1  0.4922160000000  0.5626450000000  0.4516790000000 1.0
C      1  0.5604310000000  0.5757450000000  0.5359190000000 1.0
C      1  0.4658870000000  0.4719260000000  0.4717890000000 1.0
C      1  0.4344080000000  0.4516850000000  0.5588010000000 1.0
C      1  0.5416760000000  0.5794000000000  0.5565170000000 1.0
C      1  0.4022950000000  0.5216660000000  0.4846890000000 1.0
C      1  0.5513960000000  0.5536810000000  0.4524560000000 1.0
C      1  0.4593350000000  0.5249470000000  0.4502170000000 1.0
C      1  0.4785480000000  0.4833540000000  0.3985490000000 1.0
C      1  0.5502020000000  0.5882160000000  0.5120480000000 1.0
C      1  0.5110150000000  0.4581280000000  0.5203080000000 1.0
C      1  0.5735530000000  0.5408120000000  0.4657690000000 1.0
C      1  0.5005080000000  0.5106180000000  0.4757090000000 1.0
C      1  0.5580400000000  0.5784900000000  0.4873300000000 1.0
C      1  0.4878580000000  0.5190090000000  0.4515080000000 1.0
C      1  0.5337150000000  0.4632570000000  0.5063940000000 1.0
C      1  0.5370530000000  0.4079080000000  0.4793830000000 1.0
END
