TITL C-95111-8534-4 0.00773408190060286 125000 -169.061903420969 0 0 26 (C1) n - 1
REM
REM in /rds/project/t2_vol4/rds-t2-cs072/BORA/CARBON/from-Arr/AIRSS/Generating-Clusters/GAP-ML-2020/Only-C1/SD-CG/HFTN-CG
REM
REM
REM
REM
REM
REM ./C.cell (11c1c37f851c82e70ff6c80c92926a4b)
REM AIRSS Version 0.9.1 bugfix July 2018 build 013d7b7c2542+ Fri, 06 Jul 2018 19:26:36 +0100
REM compiler GCC version 9.3.0
REM options -cpp -mtune=generic -march=x86-64 -g -O0
REM seed 1202244733 261841671 38412748 1595408345 -1012382113 1457804385 524384229 -728363165 1299588190 139140415 364795732 1937384226 780389127 -1521321757 1318586241 211712744 301352155 -1861804204 -752959822 -1316572971 -2052407523 1567161092 -1835145815 1906670172 732161497 694111920 -521983425 1519949999 -723064459 1110751570 447947512 -1271890244 -283761945
REM
CELL 1.54180   50.00000   50.00000   50.00000   90.00000   90.00000   90.00000
LATT -1
SFAC C  
C      1  0.4599930000000  0.4884380000000  0.5156730000000 1.0
C      1  0.5125690000000  0.4664660000000  0.5403290000000 1.0
C      1  0.4850270000000  0.5462690000000  0.5427110000000 1.0
C      1  0.4830120000000  0.5181430000000  0.5520570000000 1.0
C      1  0.5181360000000  0.5149620000000  0.4561810000000 1.0
C      1  0.4611770000000  0.5139470000000  0.5057340000000 1.0
C      1  0.5006080000000  0.4462890000000  0.4742680000000 1.0
C      1  0.5273980000000  0.5260410000000  0.4824820000000 1.0
C      1  0.5174900000000  0.4638780000000  0.4653130000000 1.0
C      1  0.5095920000000  0.4866390000000  0.4512790000000 1.0
C      1  0.4754080000000  0.4560490000000  0.4824570000000 1.0
C      1  0.5274040000000  0.4913420000000  0.5417240000000 1.0
C      1  0.5118620000000  0.5145140000000  0.5441390000000 1.0
C      1  0.4793710000000  0.4908840000000  0.4518960000000 1.0
C      1  0.5085130000000  0.5376740000000  0.5271450000000 1.0
C      1  0.5512050000000  0.5218030000000  0.4949590000000 1.0
C      1  0.4635100000000  0.4713800000000  0.4617540000000 1.0
C      1  0.4721860000000  0.4628270000000  0.5100900000000 1.0
C      1  0.4989240000000  0.5303280000000  0.4446710000000 1.0
C      1  0.4786320000000  0.5270580000000  0.4880470000000 1.0
C      1  0.5642390000000  0.5101960000000  0.5138290000000 1.0
C      1  0.5049930000000  0.5335800000000  0.4990010000000 1.0
C      1  0.4929050000000  0.4574490000000  0.5282540000000 1.0
C      1  0.4791820000000  0.5192230000000  0.4599890000000 1.0
C      1  0.5532400000000  0.4956960000000  0.5324450000000 1.0
C      1  0.4634250000000  0.5089250000000  0.5335760000000 1.0
END
