TITL C-95095-8581-10 0.0251424833240664 125000 -88.2979141468865 0 0 14 (C1) n - 1
REM
REM in /rds/project/t2_vol4/rds-t2-cs072/BORA/CARBON/from-Arr/AIRSS/Generating-Clusters/GAP-ML-2020/Only-C1/SD-CG/HFTN-CG
REM
REM
REM
REM
REM
REM ./C.cell (11c1c37f851c82e70ff6c80c92926a4b)
REM AIRSS Version 0.9.1 bugfix July 2018 build 013d7b7c2542+ Fri, 06 Jul 2018 19:26:36 +0100
REM compiler GCC version 9.3.0
REM options -cpp -mtune=generic -march=x86-64 -g -O0
REM seed 1411710361 1417767259 -1669454220 -157543259 799703991 -897996111 1753567119 -2058809833 -473148291 -188848502 -284136316 1533163457 1026589171 1720407839 -926220260 -1597184644 1843267822 1194677699 1286885631 -1928260200 -2007195049 779731634 1661810846 -1377871720 6768226 457742263 -1439651041 1331255130 -1715511169 -1820815014 1407892983 762751742 1182767602
REM
CELL 1.54180   50.00000   50.00000   50.00000   90.00000   90.00000   90.00000
LATT -1
SFAC C  
C      1  0.5541090000000  0.5329850000000  0.5147780000000 1.0
C      1  0.5048480000000  0.5216030000000  0.5140740000000 1.0
C      1  0.4986530000000  0.5208190000000  0.4853490000000 1.0
C      1  0.5297890000000  0.5292740000000  0.5213860000000 1.0
C      1  0.4942200000000  0.5037270000000  0.5333490000000 1.0
C      1  0.4819770000000  0.4747860000000  0.5346310000000 1.0
C      1  0.5182570000000  0.5280020000000  0.4681830000000 1.0
C      1  0.4644970000000  0.4534210000000  0.4932130000000 1.0
C      1  0.5432340000000  0.5316710000000  0.4643700000000 1.0
C      1  0.4705220000000  0.4737790000000  0.4767880000000 1.0
C      1  0.4832170000000  0.4842400000000  0.4535310000000 1.0
C      1  0.5036580000000  0.4851700000000  0.5499670000000 1.0
C      1  0.4804900000000  0.5030210000000  0.4726760000000 1.0
C      1  0.4725290000000  0.4575010000000  0.5177050000000 1.0
END
