TITL C-95117-8395-10 27.2348393257102 125000 -189.941447302207 0 0 29 (C1) n - 1
REM
REM in /rds/project/t2_vol4/rds-t2-cs072/BORA/CARBON/from-Arr/AIRSS/Generating-Clusters/GAP-ML-2020/Only-C1/SD-CG/HFTN-CG
REM
REM
REM
REM
REM
REM ./C.cell (11c1c37f851c82e70ff6c80c92926a4b)
REM AIRSS Version 0.9.1 bugfix July 2018 build 013d7b7c2542+ Fri, 06 Jul 2018 19:26:36 +0100
REM compiler GCC version 9.3.0
REM options -cpp -mtune=generic -march=x86-64 -g -O0
REM seed -1365917274 1711723070 2078536479 -86586070 926585916 -1092251191 -1373716713 -682857831 111801532 362909064 1120130902 -1776909490 -996948345 1589894194 1775770448 -775023749 -1761493188 114445817 -104846287 1676555215 -763513258 -876257302 151909231 593716680 128278895 702739865 -2053854717 -1851209364 1159575162 1860525112 834568045 2132018090 80018535
REM
CELL 1.54180   50.00000   50.00000   50.00000   90.00000   90.00000   90.00000
LATT -1
SFAC C  
C      1  0.5123310000000  0.4728840000000  0.5197920000000 1.0
C      1  0.5052780000000  0.5150070000000  0.4422390000000 1.0
C      1  0.4940850000000  0.4925770000000  0.4317940000000 1.0
C      1  0.5181930000000  0.5126980000000  0.5502520000000 1.0
C      1  0.4767260000000  0.5010270000000  0.5302820000000 1.0
C      1  0.5384760000000  0.5116440000000  0.5085480000000 1.0
C      1  0.4468650000000  0.4797270000000  0.4917810000000 1.0
C      1  0.4921820000000  0.4728990000000  0.4488260000000 1.0
C      1  0.5451840000000  0.4781050000000  0.4707560000000 1.0
C      1  0.5252020000000  0.5361950000000  0.5102500000000 1.0
C      1  0.4710270000000  0.4691220000000  0.4966550000000 1.0
C      1  0.5040420000000  0.5370250000000  0.4893440000000 1.0
C      1  0.4889820000000  0.5148150000000  0.5521340000000 1.0
C      1  0.4819330000000  0.5541320000000  0.4962280000000 1.0
C      1  0.5087220000000  0.4884950000000  0.4925390000000 1.0
C      1  0.5143260000000  0.5211860000000  0.4663440000000 1.0
C      1  0.5328830000000  0.5009370000000  0.4814590000000 1.0
C      1  0.4401400000000  0.5037680000000  0.5000620000000 1.0
C      1  0.5138880000000  0.4454210000000  0.4842430000000 1.0
C      1  0.5292470000000  0.4954910000000  0.5313180000000 1.0
C      1  0.5205700000000  0.4480690000000  0.5110540000000 1.0
C      1  0.4555370000000  0.5175620000000  0.5173750000000 1.0
C      1  0.4880190000000  0.5415410000000  0.5408380000000 1.0
C      1  0.4826500000000  0.4739620000000  0.5227890000000 1.0
C      1  0.4695100000000  0.5439960000000  0.5186130000000 1.0
C      1  0.5390600000000  0.4539880000000  0.4768990000000 1.0
C      1  0.5160950000000  0.5402310000000  0.5371940000000 1.0
C      1  0.4951730000000  0.5107430000000  0.5039190000000 1.0
C      1  0.4936740000000  0.4667490000000  0.4764700000000 1.0
END
