TITL C-95743-5466-11 -0.131590255291464 125000 -236.277308647193 0 0 36 (C1) n - 1
REM
REM in /rds/project/t2_vol4/rds-t2-cs072/BORA/CARBON/from-Arr/AIRSS/Generating-Clusters/GAP-ML-2020/Only-C1/SD-CG/HFTN-CG
REM
REM
REM
REM
REM
REM ./C.cell (11c1c37f851c82e70ff6c80c92926a4b)
REM AIRSS Version 0.9.1 bugfix July 2018 build 013d7b7c2542+ Fri, 06 Jul 2018 19:26:36 +0100
REM compiler GCC version 9.3.0
REM options -cpp -mtune=generic -march=x86-64 -g -O0
REM seed 803413375 365654391 241450717 1483594857 -1038193573 -1447373994 -130948953 -75326450 -414910113 -780185901 -466682652 -1883151331 2145497312 1788451724 335382641 2012680436 -254585331 -426709166 -453131490 -1067621705 -506518608 -928617063 467452083 -1385820711 -1136802967 -703445498 2062511562 63931936 -1305487207 -1024198925 1194910385 -164342968 1520666339
REM
CELL 1.54180   50.00000   50.00000   50.00000   90.00000   90.00000   90.00000
LATT -1
SFAC C  
C      1  0.5500900000000  0.5001170000000  0.5154910000000 1.0
C      1  0.4978410000000  0.4996390000000  0.5661010000000 1.0
C      1  0.5348530000000  0.5233710000000  0.5182000000000 1.0
C      1  0.5124210000000  0.5048160000000  0.4807120000000 1.0
C      1  0.5244360000000  0.5064620000000  0.5621560000000 1.0
C      1  0.4797100000000  0.5573940000000  0.5135450000000 1.0
C      1  0.4851560000000  0.4545210000000  0.5144990000000 1.0
C      1  0.4590930000000  0.4509870000000  0.5026360000000 1.0
C      1  0.4827430000000  0.4957060000000  0.5461810000000 1.0
C      1  0.5177030000000  0.5308900000000  0.4941420000000 1.0
C      1  0.4942790000000  0.5129210000000  0.4548540000000 1.0
C      1  0.5073330000000  0.5333810000000  0.4429950000000 1.0
C      1  0.5281930000000  0.5305050000000  0.5448450000000 1.0
C      1  0.5109700000000  0.5518220000000  0.5475820000000 1.0
C      1  0.5253210000000  0.5527110000000  0.4486160000000 1.0
C      1  0.5338320000000  0.4886420000000  0.4706680000000 1.0
C      1  0.5363500000000  0.4614650000000  0.5114150000000 1.0
C      1  0.5440570000000  0.4791820000000  0.5353790000000 1.0
C      1  0.4573010000000  0.4584770000000  0.4742520000000 1.0
C      1  0.4409790000000  0.4825660000000  0.4693610000000 1.0
C      1  0.5066180000000  0.4537170000000  0.4740090000000 1.0
C      1  0.4482460000000  0.4753110000000  0.5145610000000 1.0
C      1  0.4729580000000  0.5188260000000  0.4784950000000 1.0
C      1  0.4867830000000  0.5385370000000  0.4956830000000 1.0
C      1  0.4943710000000  0.4847100000000  0.4473680000000 1.0
C      1  0.5432850000000  0.4855820000000  0.5612830000000 1.0
C      1  0.5476110000000  0.4818660000000  0.4937890000000 1.0
C      1  0.4814780000000  0.4712110000000  0.4702250000000 1.0
C      1  0.4762740000000  0.4838240000000  0.5211110000000 1.0
C      1  0.4915590000000  0.5645730000000  0.5364060000000 1.0
C      1  0.4855810000000  0.4938840000000  0.4915620000000 1.0
C      1  0.4460560000000  0.5100780000000  0.4761650000000 1.0
C      1  0.5108510000000  0.4522260000000  0.5018560000000 1.0
C      1  0.5301460000000  0.5486740000000  0.4739870000000 1.0
C      1  0.4366780000000  0.4912540000000  0.4950940000000 1.0
C      1  0.5188440000000  0.4701500000000  0.4547750000000 1.0
END
