TITL C-95124-8592-3 -0.201763094613621 125000 -527.383742034283 0 0 78 (C1) n - 1
REM
REM in /rds/project/t2_vol4/rds-t2-cs072/BORA/CARBON/from-Arr/AIRSS/Generating-Clusters/GAP-ML-2020/Only-C1/SD-CG/HFTN-CG
REM
REM
REM
REM
REM
REM ./C.cell (11c1c37f851c82e70ff6c80c92926a4b)
REM AIRSS Version 0.9.1 bugfix July 2018 build 013d7b7c2542+ Fri, 06 Jul 2018 19:26:36 +0100
REM compiler GCC version 9.3.0
REM options -cpp -mtune=generic -march=x86-64 -g -O0
REM seed -867172644 1382059842 518643567 887345684 -768192360 1906894796 -822466309 -1173635371 -78191068 253449078 -763036488 1336288800 217362823 613914888 1418292628 1557910636 -1137214447 1811658892 833002088 835426284 659343578 -369022376 1793416715 -1312153727 -1806058720 -371036311 -912702331 407161567 295422774 1042321135 -1922644643 -351025025 573514284
REM
CELL 1.54180   50.00000   50.00000   50.00000   90.00000   90.00000   90.00000
LATT -1
SFAC C  
C      1  0.4804180000000  0.5426160000000  0.5044000000000 1.0
C      1  0.5127340000000  0.5364640000000  0.5719540000000 1.0
C      1  0.4727970000000  0.5002100000000  0.4484800000000 1.0
C      1  0.5433530000000  0.5127100000000  0.4420030000000 1.0
C      1  0.5073030000000  0.4329540000000  0.4702360000000 1.0
C      1  0.4880500000000  0.4548170000000  0.4231170000000 1.0
C      1  0.4923480000000  0.5484920000000  0.5541360000000 1.0
C      1  0.4968150000000  0.5729840000000  0.5325460000000 1.0
C      1  0.5361130000000  0.4877470000000  0.4288140000000 1.0
C      1  0.4046970000000  0.4889440000000  0.5330570000000 1.0
C      1  0.4439630000000  0.5263880000000  0.5581660000000 1.0
C      1  0.5894510000000  0.4727250000000  0.5342280000000 1.0
C      1  0.5775450000000  0.4971370000000  0.5404090000000 1.0
C      1  0.4901260000000  0.4333130000000  0.4935950000000 1.0
C      1  0.4319980000000  0.5224930000000  0.5112050000000 1.0
C      1  0.4948540000000  0.5436700000000  0.4769760000000 1.0
C      1  0.5452840000000  0.5295700000000  0.5465120000000 1.0
C      1  0.5568720000000  0.5168780000000  0.4981580000000 1.0
C      1  0.5036150000000  0.5230360000000  0.4237030000000 1.0
C      1  0.4978400000000  0.4748660000000  0.4064090000000 1.0
C      1  0.4507770000000  0.4794910000000  0.4422130000000 1.0
C      1  0.5235520000000  0.5213920000000  0.5294280000000 1.0
C      1  0.5240280000000  0.4650910000000  0.5746650000000 1.0
C      1  0.5306050000000  0.5300100000000  0.5029530000000 1.0
C      1  0.5424210000000  0.4887600000000  0.4847910000000 1.0
C      1  0.4787710000000  0.5263930000000  0.4367000000000 1.0
C      1  0.5383390000000  0.4888970000000  0.5731740000000 1.0
C      1  0.5674320000000  0.5212290000000  0.4533150000000 1.0
C      1  0.4978850000000  0.4825880000000  0.4583100000000 1.0
C      1  0.5347700000000  0.5605130000000  0.5020110000000 1.0
C      1  0.5221600000000  0.5522630000000  0.4590810000000 1.0
C      1  0.4694150000000  0.5683130000000  0.5163450000000 1.0
C      1  0.4437100000000  0.4569490000000  0.5048250000000 1.0
C      1  0.4171970000000  0.4978080000000  0.5097830000000 1.0
C      1  0.4502810000000  0.5610640000000  0.5370960000000 1.0
C      1  0.5648620000000  0.5353300000000  0.4759380000000 1.0
C      1  0.5117590000000  0.4952440000000  0.4162430000000 1.0
C      1  0.4628160000000  0.5489990000000  0.5601250000000 1.0
C      1  0.4601440000000  0.5008150000000  0.4770440000000 1.0
C      1  0.5517350000000  0.4821660000000  0.5479410000000 1.0
C      1  0.5089480000000  0.5186640000000  0.4852150000000 1.0
C      1  0.4694050000000  0.4524560000000  0.4919200000000 1.0
C      1  0.5165880000000  0.4467440000000  0.5555700000000 1.0
C      1  0.4799840000000  0.5050060000000  0.5236470000000 1.0
C      1  0.4273800000000  0.4807190000000  0.5451400000000 1.0
C      1  0.5071570000000  0.4540780000000  0.4481460000000 1.0
C      1  0.4609300000000  0.5690340000000  0.4657730000000 1.0
C      1  0.4683900000000  0.4587730000000  0.5458090000000 1.0
C      1  0.4316510000000  0.5391510000000  0.5343260000000 1.0
C      1  0.4902330000000  0.4418580000000  0.5437950000000 1.0
C      1  0.5675160000000  0.5192530000000  0.5278470000000 1.0
C      1  0.4591620000000  0.5195720000000  0.5017830000000 1.0
C      1  0.4814830000000  0.4789580000000  0.4836580000000 1.0
C      1  0.5322700000000  0.4233740000000  0.4768060000000 1.0
C      1  0.4463680000000  0.4986410000000  0.5581830000000 1.0
C      1  0.4428620000000  0.4583550000000  0.5331580000000 1.0
C      1  0.4978200000000  0.4946780000000  0.5021480000000 1.0
C      1  0.5359850000000  0.4638230000000  0.4447350000000 1.0
C      1  0.5340700000000  0.5189530000000  0.5716480000000 1.0
C      1  0.5498850000000  0.4409980000000  0.4872670000000 1.0
C      1  0.5285350000000  0.4921630000000  0.5313760000000 1.0
C      1  0.4705050000000  0.4881240000000  0.5475740000000 1.0
C      1  0.5234670000000  0.4810600000000  0.5071090000000 1.0
C      1  0.5442220000000  0.5579530000000  0.4751460000000 1.0
C      1  0.5660120000000  0.4577600000000  0.5346330000000 1.0
C      1  0.4267270000000  0.4768190000000  0.4909650000000 1.0
C      1  0.5250940000000  0.5358670000000  0.4362020000000 1.0
C      1  0.5513870000000  0.4411660000000  0.5168570000000 1.0
C      1  0.5012640000000  0.4297860000000  0.5195920000000 1.0
C      1  0.4588990000000  0.5774020000000  0.4901850000000 1.0
C      1  0.5278030000000  0.4342720000000  0.5306030000000 1.0
C      1  0.4754230000000  0.5482400000000  0.4549300000000 1.0
C      1  0.4947530000000  0.5299710000000  0.5297410000000 1.0
C      1  0.4366790000000  0.4856080000000  0.4665160000000 1.0
C      1  0.5221290000000  0.5014340000000  0.4655460000000 1.0
C      1  0.4602140000000  0.4585920000000  0.4277850000000 1.0
C      1  0.5195910000000  0.5746510000000  0.5186340000000 1.0
C      1  0.5503710000000  0.4647180000000  0.4699500000000 1.0
END
