TITL C-95123-8456-9 -0.114322703283979 125000 -630.626683981664 0 0 90 (C1) n - 1
REM
REM in /rds/project/t2_vol4/rds-t2-cs072/BORA/CARBON/from-Arr/AIRSS/Generating-Clusters/GAP-ML-2020/Only-C1/SD-CG/HFTN-CG
REM
REM
REM
REM
REM
REM ./C.cell (11c1c37f851c82e70ff6c80c92926a4b)
REM AIRSS Version 0.9.1 bugfix July 2018 build 013d7b7c2542+ Fri, 06 Jul 2018 19:26:36 +0100
REM compiler GCC version 9.3.0
REM options -cpp -mtune=generic -march=x86-64 -g -O0
REM seed -535738611 441290278 2057683538 1646805681 -1243433413 1160197375 1877619335 -1563023026 1605635098 861565482 1130428676 -767950839 -768009859 -136894123 -1925306229 1453012988 1708397053 -781316152 1062026624 -1151738979 -1426521252 1897281039 -1061025930 1726153851 -1330786166 64916306 -1789057567 1395642625 1589407884 -761294542 -1184584011 -1552684253 -1808636857
REM
CELL 1.54180   50.00000   50.00000   50.00000   90.00000   90.00000   90.00000
LATT -1
SFAC C  
C      1  0.5494060000000  0.5445220000000  0.4573720000000 1.0
C      1  0.4803820000000  0.5139790000000  0.5641910000000 1.0
C      1  0.4937660000000  0.5559970000000  0.5585710000000 1.0
C      1  0.5647210000000  0.4288470000000  0.4691380000000 1.0
C      1  0.4642610000000  0.4423140000000  0.5535750000000 1.0
C      1  0.5513700000000  0.4799390000000  0.4860760000000 1.0
C      1  0.4495510000000  0.4388360000000  0.5105280000000 1.0
C      1  0.5434870000000  0.5527310000000  0.5527760000000 1.0
C      1  0.4752730000000  0.5178810000000  0.4490470000000 1.0
C      1  0.4851050000000  0.4811950000000  0.5283960000000 1.0
C      1  0.4461680000000  0.5406090000000  0.5445050000000 1.0
C      1  0.5192980000000  0.5439840000000  0.5655160000000 1.0
C      1  0.5332460000000  0.4673220000000  0.4398150000000 1.0
C      1  0.5181450000000  0.5792790000000  0.5225540000000 1.0
C      1  0.4280000000000  0.5186630000000  0.5356530000000 1.0
C      1  0.5219600000000  0.5147120000000  0.4286400000000 1.0
C      1  0.4529570000000  0.5068290000000  0.4328980000000 1.0
C      1  0.5182390000000  0.4570820000000  0.5683000000000 1.0
C      1  0.4936470000000  0.5740520000000  0.5363870000000 1.0
C      1  0.5388050000000  0.5601540000000  0.5257670000000 1.0
C      1  0.4996570000000  0.5308490000000  0.4368710000000 1.0
C      1  0.4728440000000  0.5144400000000  0.4952320000000 1.0
C      1  0.5273740000000  0.4484280000000  0.5289530000000 1.0
C      1  0.4193120000000  0.5020780000000  0.4924650000000 1.0
C      1  0.4923370000000  0.4487510000000  0.4357290000000 1.0
C      1  0.4189200000000  0.5253250000000  0.5090300000000 1.0
C      1  0.4475090000000  0.4613020000000  0.4410660000000 1.0
C      1  0.5276650000000  0.4879720000000  0.5006900000000 1.0
C      1  0.4770560000000  0.4310730000000  0.5120720000000 1.0
C      1  0.5277410000000  0.5004120000000  0.5465340000000 1.0
C      1  0.5108900000000  0.4356130000000  0.5492340000000 1.0
C      1  0.4448650000000  0.4604490000000  0.4899380000000 1.0
C      1  0.5657480000000  0.5022950000000  0.4519700000000 1.0
C      1  0.5759960000000  0.4532920000000  0.4677100000000 1.0
C      1  0.4225010000000  0.4639240000000  0.5466320000000 1.0
C      1  0.5126720000000  0.5032680000000  0.4817910000000 1.0
C      1  0.5683610000000  0.5395230000000  0.5561010000000 1.0
C      1  0.5085990000000  0.4665750000000  0.5120180000000 1.0
C      1  0.4372530000000  0.5469950000000  0.4723410000000 1.0
C      1  0.5478890000000  0.5217340000000  0.4401410000000 1.0
C      1  0.5731240000000  0.4510470000000  0.5178650000000 1.0
C      1  0.4822330000000  0.5606000000000  0.4691270000000 1.0
C      1  0.5117270000000  0.5866020000000  0.4953880000000 1.0
C      1  0.4750470000000  0.4633570000000  0.4774990000000 1.0
C      1  0.5153250000000  0.5292790000000  0.4947500000000 1.0
C      1  0.5655690000000  0.4710160000000  0.5377160000000 1.0
C      1  0.4844440000000  0.5781880000000  0.4909590000000 1.0
C      1  0.5211820000000  0.5160290000000  0.5719610000000 1.0
C      1  0.4483470000000  0.5586060000000  0.5211900000000 1.0
C      1  0.4696210000000  0.5395180000000  0.5615950000000 1.0
C      1  0.4656430000000  0.5372340000000  0.4712030000000 1.0
C      1  0.4849430000000  0.4290830000000  0.5400010000000 1.0
C      1  0.5853710000000  0.4634450000000  0.4940250000000 1.0
C      1  0.5795460000000  0.5203820000000  0.5436850000000 1.0
C      1  0.5420880000000  0.5357500000000  0.5067170000000 1.0
C      1  0.4700250000000  0.4478630000000  0.4520200000000 1.0
C      1  0.5296540000000  0.5653650000000  0.4572090000000 1.0
C      1  0.4722590000000  0.5735240000000  0.5167700000000 1.0
C      1  0.4983300000000  0.5061270000000  0.5364460000000 1.0
C      1  0.5171890000000  0.4453200000000  0.4483510000000 1.0
C      1  0.4305050000000  0.5495310000000  0.5004620000000 1.0
C      1  0.4623660000000  0.4951610000000  0.5139960000000 1.0
C      1  0.4312920000000  0.4676540000000  0.4639290000000 1.0
C      1  0.5713400000000  0.4977280000000  0.5261280000000 1.0
C      1  0.5786780000000  0.4915900000000  0.4970250000000 1.0
C      1  0.4968180000000  0.4739830000000  0.5752840000000 1.0
C      1  0.4899100000000  0.4741130000000  0.4225970000000 1.0
C      1  0.4402440000000  0.4436010000000  0.5381440000000 1.0
C      1  0.5032960000000  0.5558280000000  0.4500160000000 1.0
C      1  0.4267580000000  0.4881430000000  0.5363620000000 1.0
C      1  0.4849030000000  0.4957340000000  0.4743140000000 1.0
C      1  0.5301050000000  0.5857520000000  0.4755020000000 1.0
C      1  0.4764200000000  0.4683990000000  0.5561910000000 1.0
C      1  0.5431460000000  0.5082990000000  0.5221910000000 1.0
C      1  0.4265560000000  0.5125670000000  0.4440720000000 1.0
C      1  0.5171610000000  0.4349720000000  0.4751120000000 1.0
C      1  0.5489600000000  0.4361170000000  0.5132830000000 1.0
C      1  0.5566580000000  0.4751580000000  0.4560910000000 1.0
C      1  0.4214990000000  0.5386260000000  0.4520210000000 1.0
C      1  0.4605390000000  0.4810330000000  0.4248270000000 1.0
C      1  0.5384760000000  0.4710580000000  0.5498890000000 1.0
C      1  0.4984670000000  0.5016820000000  0.5818400000000 1.0
C      1  0.5762500000000  0.5125970000000  0.4770380000000 1.0
C      1  0.5426250000000  0.4280290000000  0.4860580000000 1.0
C      1  0.4947160000000  0.5244240000000  0.5129440000000 1.0
C      1  0.4953500000000  0.4467100000000  0.4929100000000 1.0
C      1  0.5161530000000  0.4865090000000  0.4262290000000 1.0
C      1  0.4356140000000  0.4837360000000  0.5071790000000 1.0
C      1  0.5611090000000  0.5360160000000  0.4825640000000 1.0
C      1  0.4194400000000  0.4936860000000  0.4651010000000 1.0
END
