TITL C-95095-8581-9 -0.0977314527919093 125000 -580.843653061134 0 0 83 (C1) n - 1
REM
REM in /rds/project/t2_vol4/rds-t2-cs072/BORA/CARBON/from-Arr/AIRSS/Generating-Clusters/GAP-ML-2020/Only-C1/SD-CG/HFTN-CG
REM
REM
REM
REM
REM
REM ./C.cell (11c1c37f851c82e70ff6c80c92926a4b)
REM AIRSS Version 0.9.1 bugfix July 2018 build 013d7b7c2542+ Fri, 06 Jul 2018 19:26:36 +0100
REM compiler GCC version 9.3.0
REM options -cpp -mtune=generic -march=x86-64 -g -O0
REM seed 1159334957 -316188029 -1253235629 615585795 317046304 -4203506 1956913467 -1966729990 -1349982307 -290237974 245637252 -1840771714 401057531 -366966116 -1958719724 1412584917 981538429 2044560383 -592695720 162107346 1780599517 -353431109 -746599229 1609509003 173400526 -1019019752 1769862773 1441012664 1500309924 -392205633 -1890553921 644605809 1319837764
REM
CELL 1.54180   50.00000   50.00000   50.00000   90.00000   90.00000   90.00000
LATT -1
SFAC C  
C      1  0.4950630000000  0.5538340000000  0.5531560000000 1.0
C      1  0.4539080000000  0.5546240000000  0.5251730000000 1.0
C      1  0.5418090000000  0.4929440000000  0.4955430000000 1.0
C      1  0.4937550000000  0.4453430000000  0.4376860000000 1.0
C      1  0.4663780000000  0.4513880000000  0.4380740000000 1.0
C      1  0.4272090000000  0.5447100000000  0.4491080000000 1.0
C      1  0.4974520000000  0.5221260000000  0.4582800000000 1.0
C      1  0.5100870000000  0.5222600000000  0.5115880000000 1.0
C      1  0.4839790000000  0.5762680000000  0.4834500000000 1.0
C      1  0.5185890000000  0.4361940000000  0.5287390000000 1.0
C      1  0.5470040000000  0.4547130000000  0.4441780000000 1.0
C      1  0.4340610000000  0.4785870000000  0.5441720000000 1.0
C      1  0.4506220000000  0.4889920000000  0.5643730000000 1.0
C      1  0.4418840000000  0.4783770000000  0.4530950000000 1.0
C      1  0.4493500000000  0.4513690000000  0.4617590000000 1.0
C      1  0.5383140000000  0.5310560000000  0.5574420000000 1.0
C      1  0.5085510000000  0.4464920000000  0.5536950000000 1.0
C      1  0.5127670000000  0.5748630000000  0.4778850000000 1.0
C      1  0.5370550000000  0.5086890000000  0.4471960000000 1.0
C      1  0.4263550000000  0.5250600000000  0.4681820000000 1.0
C      1  0.5420330000000  0.4449510000000  0.5148700000000 1.0
C      1  0.5385230000000  0.4857290000000  0.5675590000000 1.0
C      1  0.4868080000000  0.5295740000000  0.5974470000000 1.0
C      1  0.4442140000000  0.5558150000000  0.4981210000000 1.0
C      1  0.4713790000000  0.4701430000000  0.5709750000000 1.0
C      1  0.5406700000000  0.5194960000000  0.5109360000000 1.0
C      1  0.4945360000000  0.5161060000000  0.4882840000000 1.0
C      1  0.5348350000000  0.5637630000000  0.5224950000000 1.0
C      1  0.5558520000000  0.5573180000000  0.4776410000000 1.0
C      1  0.5351240000000  0.4667160000000  0.4227200000000 1.0
C      1  0.4548660000000  0.5476510000000  0.4505740000000 1.0
C      1  0.5334810000000  0.4371540000000  0.4633950000000 1.0
C      1  0.4587890000000  0.4388590000000  0.4848150000000 1.0
C      1  0.4918820000000  0.4698090000000  0.4970940000000 1.0
C      1  0.4580290000000  0.4770750000000  0.4288960000000 1.0
C      1  0.4752500000000  0.4993130000000  0.4226450000000 1.0
C      1  0.4805060000000  0.5345980000000  0.5705440000000 1.0
C      1  0.5659880000000  0.4697860000000  0.4586880000000 1.0
C      1  0.4214800000000  0.4913830000000  0.5238720000000 1.0
C      1  0.4695110000000  0.4843880000000  0.5105080000000 1.0
C      1  0.5808360000000  0.5129080000000  0.4794610000000 1.0
C      1  0.4952460000000  0.4807270000000  0.5824890000000 1.0
C      1  0.5177980000000  0.4670650000000  0.5715940000000 1.0
C      1  0.5517290000000  0.5157200000000  0.5376570000000 1.0
C      1  0.4496970000000  0.4422570000000  0.5119940000000 1.0
C      1  0.4788640000000  0.5654850000000  0.5329070000000 1.0
C      1  0.4889730000000  0.4385350000000  0.4864890000000 1.0
C      1  0.5548230000000  0.4724420000000  0.5188110000000 1.0
C      1  0.5930370000000  0.4953020000000  0.4963940000000 1.0
C      1  0.5745550000000  0.5400890000000  0.4855430000000 1.0
C      1  0.5536170000000  0.4884890000000  0.5437740000000 1.0
C      1  0.5012030000000  0.4903390000000  0.4156330000000 1.0
C      1  0.5121790000000  0.4880580000000  0.4864850000000 1.0
C      1  0.5027690000000  0.5087460000000  0.5872150000000 1.0
C      1  0.4796290000000  0.4470520000000  0.5542320000000 1.0
C      1  0.5030350000000  0.5079180000000  0.5341610000000 1.0
C      1  0.4674700000000  0.5061480000000  0.4911730000000 1.0
C      1  0.4595410000000  0.5165780000000  0.5559460000000 1.0
C      1  0.5302950000000  0.4955870000000  0.4216840000000 1.0
C      1  0.5231060000000  0.5349760000000  0.4502380000000 1.0
C      1  0.5239000000000  0.5531720000000  0.5472290000000 1.0
C      1  0.5183200000000  0.5799830000000  0.5065460000000 1.0
C      1  0.5075290000000  0.4616690000000  0.4187470000000 1.0
C      1  0.4257370000000  0.5183310000000  0.5187410000000 1.0
C      1  0.4946440000000  0.4286630000000  0.5142210000000 1.0
C      1  0.5803860000000  0.4719160000000  0.5032130000000 1.0
C      1  0.5494690000000  0.4395100000000  0.4878230000000 1.0
C      1  0.4792180000000  0.4974880000000  0.5343620000000 1.0
C      1  0.5053540000000  0.4352640000000  0.4617950000000 1.0
C      1  0.5295730000000  0.5117520000000  0.5762810000000 1.0
C      1  0.4714180000000  0.4343750000000  0.5298250000000 1.0
C      1  0.4431710000000  0.4691300000000  0.5184760000000 1.0
C      1  0.5519560000000  0.5463890000000  0.5056270000000 1.0
C      1  0.4498640000000  0.5046130000000  0.4655650000000 1.0
C      1  0.5727620000000  0.4550900000000  0.4818310000000 1.0
C      1  0.4705940000000  0.5209080000000  0.4443210000000 1.0
C      1  0.4256190000000  0.5345510000000  0.4950310000000 1.0
C      1  0.4900780000000  0.5800730000000  0.5118090000000 1.0
C      1  0.5309700000000  0.5591180000000  0.4629060000000 1.0
C      1  0.5112050000000  0.4942310000000  0.4578590000000 1.0
C      1  0.4431950000000  0.5316070000000  0.5376120000000 1.0
C      1  0.5582530000000  0.4969260000000  0.4662660000000 1.0
C      1  0.4604370000000  0.5633020000000  0.4751790000000 1.0
END
