TITL C-95121-8464-4 -0.0400270904359795 125000 -190.974655561001 0 0 30 (C1) n - 1
REM
REM in /rds/project/t2_vol4/rds-t2-cs072/BORA/CARBON/from-Arr/AIRSS/Generating-Clusters/GAP-ML-2020/Only-C1/SD-CG/HFTN-CG
REM
REM
REM
REM
REM
REM ./C.cell (11c1c37f851c82e70ff6c80c92926a4b)
REM AIRSS Version 0.9.1 bugfix July 2018 build 013d7b7c2542+ Fri, 06 Jul 2018 19:26:36 +0100
REM compiler GCC version 9.3.0
REM options -cpp -mtune=generic -march=x86-64 -g -O0
REM seed 1981640737 -973084453 -124240613 -1947697540 -994342884 -1286250646 432503844 -29118544 -1367928755 -488320378 -942754518 1442842929 2122689762 1899276525 -1376410079 -1071436203 -1309373645 1859140553 -472095862 1796145754 748845496 -273952773 -2123678032 -1343529181 -1253074672 1756896263 -1100554657 -1431597591 1210753147 -1492999968 446677202 -1594252232 684973614
REM
CELL 1.54180   50.00000   50.00000   50.00000   90.00000   90.00000   90.00000
LATT -1
SFAC C  
C      1  0.5283830000000  0.5488810000000  0.4952620000000 1.0
C      1  0.4729990000000  0.4663670000000  0.5241370000000 1.0
C      1  0.4611200000000  0.4785270000000  0.4477990000000 1.0
C      1  0.5436010000000  0.5262360000000  0.4893870000000 1.0
C      1  0.5306490000000  0.4608660000000  0.5079980000000 1.0
C      1  0.5345000000000  0.5329340000000  0.5169660000000 1.0
C      1  0.4933130000000  0.4483570000000  0.5166930000000 1.0
C      1  0.5208090000000  0.4936270000000  0.4619100000000 1.0
C      1  0.4746910000000  0.5176950000000  0.5445440000000 1.0
C      1  0.5151930000000  0.5107910000000  0.5231030000000 1.0
C      1  0.5418360000000  0.5033270000000  0.4762480000000 1.0
C      1  0.4809510000000  0.5574460000000  0.5080090000000 1.0
C      1  0.5165620000000  0.4482520000000  0.5335010000000 1.0
C      1  0.5311340000000  0.4849690000000  0.5237060000000 1.0
C      1  0.5058220000000  0.4683580000000  0.4660500000000 1.0
C      1  0.4640600000000  0.5036710000000  0.4617460000000 1.0
C      1  0.5098060000000  0.4546210000000  0.4905320000000 1.0
C      1  0.4608620000000  0.4856230000000  0.5079690000000 1.0
C      1  0.5004910000000  0.5454970000000  0.4876920000000 1.0
C      1  0.4699780000000  0.5037800000000  0.4887450000000 1.0
C      1  0.5109340000000  0.4885420000000  0.5648600000000 1.0
C      1  0.5014120000000  0.5093810000000  0.5496930000000 1.0
C      1  0.5232840000000  0.4707210000000  0.5486200000000 1.0
C      1  0.4830570000000  0.4652210000000  0.4494210000000 1.0
C      1  0.4809860000000  0.5213720000000  0.4477570000000 1.0
C      1  0.4977340000000  0.5402440000000  0.4594600000000 1.0
C      1  0.4771310000000  0.5378320000000  0.5246240000000 1.0
C      1  0.4672690000000  0.4920190000000  0.5338790000000 1.0
C      1  0.4933520000000  0.5190260000000  0.5009520000000 1.0
C      1  0.5080800000000  0.5158180000000  0.4487360000000 1.0
END
