TITL C-95122-8433-11 -5.2794489812204 125000 -219.392910003403 0 0 34 (C1) n - 1
REM
REM in /rds/project/t2_vol4/rds-t2-cs072/BORA/CARBON/from-Arr/AIRSS/Generating-Clusters/GAP-ML-2020/Only-C1/SD-CG/HFTN-CG
REM
REM
REM
REM
REM
REM ./C.cell (11c1c37f851c82e70ff6c80c92926a4b)
REM AIRSS Version 0.9.1 bugfix July 2018 build 013d7b7c2542+ Fri, 06 Jul 2018 19:26:36 +0100
REM compiler GCC version 9.3.0
REM options -cpp -mtune=generic -march=x86-64 -g -O0
REM seed -445632860 1031041005 -1777061865 -2088699691 -1119984562 1271222222 -1977415182 -332995292 -2048094146 -1888929942 -1303384551 31907900 -728800574 -864003960 1550224831 -1013489935 -313871213 832123286 -1598726981 802922674 -1329424669 408614668 1782823363 1319483550 -2061316594 2140883590 120381556 1269761740 -415510132 -1526504006 1568358734 -269488671 -1049996433
REM
CELL 1.54180   50.00000   50.00000   50.00000   90.00000   90.00000   90.00000
LATT -1
SFAC C  
C      1  0.5339800000000  0.4581910000000  0.5170080000000 1.0
C      1  0.5311890000000  0.4989510000000  0.4969940000000 1.0
C      1  0.5070100000000  0.5342510000000  0.5341200000000 1.0
C      1  0.5517600000000  0.4696650000000  0.4720510000000 1.0
C      1  0.4871700000000  0.4896840000000  0.5129610000000 1.0
C      1  0.4754100000000  0.4354550000000  0.4897910000000 1.0
C      1  0.4598330000000  0.5470440000000  0.5178870000000 1.0
C      1  0.4775240000000  0.5246160000000  0.4607070000000 1.0
C      1  0.5032420000000  0.4653570000000  0.5522310000000 1.0
C      1  0.5107270000000  0.4542240000000  0.5013360000000 1.0
C      1  0.4881900000000  0.5510880000000  0.5198360000000 1.0
C      1  0.5304210000000  0.4634270000000  0.5437000000000 1.0
C      1  0.5045060000000  0.4825630000000  0.4905430000000 1.0
C      1  0.4468680000000  0.5111530000000  0.5278230000000 1.0
C      1  0.4529850000000  0.5435450000000  0.4898200000000 1.0
C      1  0.4435550000000  0.5347900000000  0.5370230000000 1.0
C      1  0.5494030000000  0.4748120000000  0.4989110000000 1.0
C      1  0.4578000000000  0.5162160000000  0.4816050000000 1.0
C      1  0.4964130000000  0.5567310000000  0.4916820000000 1.0
C      1  0.5027380000000  0.5169860000000  0.4516620000000 1.0
C      1  0.5411790000000  0.5129180000000  0.4729470000000 1.0
C      1  0.5143060000000  0.5095120000000  0.5209800000000 1.0
C      1  0.4830600000000  0.4660960000000  0.5321090000000 1.0
C      1  0.4968470000000  0.4461570000000  0.4745050000000 1.0
C      1  0.5187060000000  0.4876840000000  0.5591190000000 1.0
C      1  0.4616280000000  0.4998530000000  0.5058290000000 1.0
C      1  0.4962190000000  0.4725540000000  0.4635690000000 1.0
C      1  0.5204070000000  0.5550020000000  0.4797390000000 1.0
C      1  0.5245370000000  0.5336570000000  0.4631140000000 1.0
C      1  0.4750460000000  0.5509190000000  0.4737450000000 1.0
C      1  0.5192540000000  0.5134200000000  0.5487290000000 1.0
C      1  0.4843210000000  0.4449030000000  0.5138680000000 1.0
C      1  0.5409680000000  0.4892450000000  0.4556270000000 1.0
C      1  0.5127950000000  0.4893310000000  0.4484290000000 1.0
END
