TITL C-95105-9958-6 114.828972150953 125000 -1078.44047076936 0 0 155 (C1) n - 1
REM
REM in /rds/project/t2_vol4/rds-t2-cs072/BORA/CARBON/from-Arr/AIRSS/Generating-Clusters/GAP-ML-2020/Only-C1/SD-CG/HFTN-CG
REM
REM
REM
REM
REM
REM ./C.cell (11c1c37f851c82e70ff6c80c92926a4b)
REM AIRSS Version 0.9.1 bugfix July 2018 build 013d7b7c2542+ Fri, 06 Jul 2018 19:26:36 +0100
REM compiler GCC version 9.3.0
REM options -cpp -mtune=generic -march=x86-64 -g -O0
REM seed 41131679 -1078135446 -2018982126 -920232389 -724357577 -1951153634 -40130824 1349995035 790550539 -1288201260 -841257260 -1941105355 -943034761 366902208 1979389221 -2057403224 -1765606735 -251898925 -1865899677 -530004629 69556773 -1794133202 -1013976718 -2063442017 1444224634 -826249766 893814771 -2065513532 2095174957 -895554300 1053474050 -947529715 798492271
REM
CELL 1.54180   50.00000   50.00000   50.00000   90.00000   90.00000   90.00000
LATT -1
SFAC C  
C      1  0.4255290000000  0.4425220000000  0.5363620000000 1.0
C      1  0.5189800000000  0.4616440000000  0.4630130000000 1.0
C      1  0.3933750000000  0.5048100000000  0.4758680000000 1.0
C      1  0.5996360000000  0.5236910000000  0.4814240000000 1.0
C      1  0.5734690000000  0.4857910000000  0.4532770000000 1.0
C      1  0.5736340000000  0.5497550000000  0.4435600000000 1.0
C      1  0.4367200000000  0.5097920000000  0.4646580000000 1.0
C      1  0.5057220000000  0.4058910000000  0.5199590000000 1.0
C      1  0.4305010000000  0.4766480000000  0.5724870000000 1.0
C      1  0.4590200000000  0.5833490000000  0.4822930000000 1.0
C      1  0.5856430000000  0.4513940000000  0.5472230000000 1.0
C      1  0.4745890000000  0.4173790000000  0.4431450000000 1.0
C      1  0.5508570000000  0.4536050000000  0.4245340000000 1.0
C      1  0.5632240000000  0.4772280000000  0.5013600000000 1.0
C      1  0.5009540000000  0.4165940000000  0.4303710000000 1.0
C      1  0.4181630000000  0.4894470000000  0.5267210000000 1.0
C      1  0.4878150000000  0.5896390000000  0.4719600000000 1.0
C      1  0.5047500000000  0.4387710000000  0.4147850000000 1.0
C      1  0.4487630000000  0.5401220000000  0.5038030000000 1.0
C      1  0.3875850000000  0.4580040000000  0.4650240000000 1.0
C      1  0.5205710000000  0.4270640000000  0.5661300000000 1.0
C      1  0.5612680000000  0.4813430000000  0.4251920000000 1.0
C      1  0.5211910000000  0.4502020000000  0.4896290000000 1.0
C      1  0.5655150000000  0.5210870000000  0.5141560000000 1.0
C      1  0.4854590000000  0.5038190000000  0.4793250000000 1.0
C      1  0.5048040000000  0.5926170000000  0.4939880000000 1.0
C      1  0.5403560000000  0.5615380000000  0.5141130000000 1.0
C      1  0.4973120000000  0.5635770000000  0.5930760000000 1.0
C      1  0.4972290000000  0.5786590000000  0.5694590000000 1.0
C      1  0.4434410000000  0.5046570000000  0.5686060000000 1.0
C      1  0.5339930000000  0.5441400000000  0.4889460000000 1.0
C      1  0.4872460000000  0.5255910000000  0.4995440000000 1.0
C      1  0.4233140000000  0.5409540000000  0.5374450000000 1.0
C      1  0.5014270000000  0.4843240000000  0.4183460000000 1.0
C      1  0.4564350000000  0.5534410000000  0.5723640000000 1.0
C      1  0.5295650000000  0.4504770000000  0.4065620000000 1.0
C      1  0.5993400000000  0.5410790000000  0.5334430000000 1.0
C      1  0.4770380000000  0.4185640000000  0.5184240000000 1.0
C      1  0.4095680000000  0.5182790000000  0.5234170000000 1.0
C      1  0.5772770000000  0.5807820000000  0.5081900000000 1.0
C      1  0.4170280000000  0.4834200000000  0.4357800000000 1.0
C      1  0.4422390000000  0.4837180000000  0.4787880000000 1.0
C      1  0.5479890000000  0.5838100000000  0.4733040000000 1.0
C      1  0.5203270000000  0.5295400000000  0.5317820000000 1.0
C      1  0.4127400000000  0.5368390000000  0.4395300000000 1.0
C      1  0.5333220000000  0.5969600000000  0.4941510000000 1.0
C      1  0.4683810000000  0.5803890000000  0.5292940000000 1.0
C      1  0.4882070000000  0.4598140000000  0.4282690000000 1.0
C      1  0.4354210000000  0.5607110000000  0.5197610000000 1.0
C      1  0.4815350000000  0.5478390000000  0.4605590000000 1.0
C      1  0.4556490000000  0.5120040000000  0.4407680000000 1.0
C      1  0.5229670000000  0.4184620000000  0.5382770000000 1.0
C      1  0.5116340000000  0.4187380000000  0.4767970000000 1.0
C      1  0.5245800000000  0.4776120000000  0.4013230000000 1.0
C      1  0.5506130000000  0.5391100000000  0.5317010000000 1.0
C      1  0.4603910000000  0.4360160000000  0.5730310000000 1.0
C      1  0.5143730000000  0.5068720000000  0.5478220000000 1.0
C      1  0.5364140000000  0.4876880000000  0.5473180000000 1.0
C      1  0.4327430000000  0.4394300000000  0.4573310000000 1.0
C      1  0.4743220000000  0.5467650000000  0.5938080000000 1.0
C      1  0.5819800000000  0.4986470000000  0.5522420000000 1.0
C      1  0.4779520000000  0.4497780000000  0.5286120000000 1.0
C      1  0.4585890000000  0.4809500000000  0.4023900000000 1.0
C      1  0.4836660000000  0.5205730000000  0.5982170000000 1.0
C      1  0.4790320000000  0.4713310000000  0.5098660000000 1.0
C      1  0.5313480000000  0.5620660000000  0.4618020000000 1.0
C      1  0.5421830000000  0.4391430000000  0.5273170000000 1.0
C      1  0.5142900000000  0.5604280000000  0.5303240000000 1.0
C      1  0.4421570000000  0.5732290000000  0.4615470000000 1.0
C      1  0.4493030000000  0.4588810000000  0.5847020000000 1.0
C      1  0.5473220000000  0.4373140000000  0.5713140000000 1.0
C      1  0.5288570000000  0.5472140000000  0.4170070000000 1.0
C      1  0.5182480000000  0.4730900000000  0.5998630000000 1.0
C      1  0.4676930000000  0.5208390000000  0.5194760000000 1.0
C      1  0.4586800000000  0.5579270000000  0.4454370000000 1.0
C      1  0.5563260000000  0.5253810000000  0.4854240000000 1.0
C      1  0.5966000000000  0.4978910000000  0.4719130000000 1.0
C      1  0.4239140000000  0.5523870000000  0.4620330000000 1.0
C      1  0.4184410000000  0.4673950000000  0.5481160000000 1.0
C      1  0.5093220000000  0.4715500000000  0.5072530000000 1.0
C      1  0.5505530000000  0.5914530000000  0.5166450000000 1.0
C      1  0.4480060000000  0.5847160000000  0.5102250000000 1.0
C      1  0.5162260000000  0.5243430000000  0.5027950000000 1.0
C      1  0.4095990000000  0.5082340000000  0.4505980000000 1.0
C      1  0.4373390000000  0.5342050000000  0.5623710000000 1.0
C      1  0.5249690000000  0.4905900000000  0.4639360000000 1.0
C      1  0.5403880000000  0.4809000000000  0.5814940000000 1.0
C      1  0.4713010000000  0.5738930000000  0.5568550000000 1.0
C      1  0.5524550000000  0.4971090000000  0.4740890000000 1.0
C      1  0.4711260000000  0.4993680000000  0.5814300000000 1.0
C      1  0.4254670000000  0.4454250000000  0.5078630000000 1.0
C      1  0.5135700000000  0.4967060000000  0.4902290000000 1.0
C      1  0.5621890000000  0.4940610000000  0.5287200000000 1.0
C      1  0.5221620000000  0.4189150000000  0.4491740000000 1.0
C      1  0.4437850000000  0.4254760000000  0.5524760000000 1.0
C      1  0.5948310000000  0.5261290000000  0.5103500000000 1.0
C      1  0.5224350000000  0.4647820000000  0.5342410000000 1.0
C      1  0.5437060000000  0.4974110000000  0.4071510000000 1.0
C      1  0.5260690000000  0.5222980000000  0.4034110000000 1.0
C      1  0.4383900000000  0.4317260000000  0.4860010000000 1.0
C      1  0.5733450000000  0.5716840000000  0.4817820000000 1.0
C      1  0.4947620000000  0.4590850000000  0.5965960000000 1.0
C      1  0.5859130000000  0.5267260000000  0.5563190000000 1.0
C      1  0.5629310000000  0.4361450000000  0.5472620000000 1.0
C      1  0.4549810000000  0.5391750000000  0.4232900000000 1.0
C      1  0.4937740000000  0.4407520000000  0.5738710000000 1.0
C      1  0.4432620000000  0.4882460000000  0.4249710000000 1.0
C      1  0.4701410000000  0.4940950000000  0.5288850000000 1.0
C      1  0.4042320000000  0.5218610000000  0.4958470000000 1.0
C      1  0.5199500000000  0.3983930000000  0.4959590000000 1.0
C      1  0.5083270000000  0.5035060000000  0.4423310000000 1.0
C      1  0.5021830000000  0.5676590000000  0.4527420000000 1.0
C      1  0.4438610000000  0.4940270000000  0.5403500000000 1.0
C      1  0.4827160000000  0.5423490000000  0.4104700000000 1.0
C      1  0.5607730000000  0.4614970000000  0.5819830000000 1.0
C      1  0.4956610000000  0.4597820000000  0.5496930000000 1.0
C      1  0.5487200000000  0.5901260000000  0.5455730000000 1.0
C      1  0.5835530000000  0.4723450000000  0.5649130000000 1.0
C      1  0.4519200000000  0.4347870000000  0.4364980000000 1.0
C      1  0.5908970000000  0.4749600000000  0.4886940000000 1.0
C      1  0.5809080000000  0.4588140000000  0.4672490000000 1.0
C      1  0.4834720000000  0.4952400000000  0.3988610000000 1.0
C      1  0.4887200000000  0.4916080000000  0.5529350000000 1.0
C      1  0.4286860000000  0.5329100000000  0.4832770000000 1.0
C      1  0.4703690000000  0.4736370000000  0.5955850000000 1.0
C      1  0.5797470000000  0.5442230000000  0.4704900000000 1.0
C      1  0.4605350000000  0.4580730000000  0.4197470000000 1.0
C      1  0.5493550000000  0.4492090000000  0.4991170000000 1.0
C      1  0.5476620000000  0.5538380000000  0.4373150000000 1.0
C      1  0.5897680000000  0.5687230000000  0.5310110000000 1.0
C      1  0.4599540000000  0.4092480000000  0.5388680000000 1.0
C      1  0.5280940000000  0.4983430000000  0.6039530000000 1.0
C      1  0.5473120000000  0.3927650000000  0.4902310000000 1.0
C      1  0.3946350000000  0.4773690000000  0.4828430000000 1.0
C      1  0.4831650000000  0.4255870000000  0.4700520000000 1.0
C      1  0.4838490000000  0.5166530000000  0.4533010000000 1.0
C      1  0.5630180000000  0.5472840000000  0.5605090000000 1.0
C      1  0.4887880000000  0.4574010000000  0.4603520000000 1.0
C      1  0.4960220000000  0.5207120000000  0.3973210000000 1.0
C      1  0.5662520000000  0.4066330000000  0.4789020000000 1.0
C      1  0.5028190000000  0.5588390000000  0.4228910000000 1.0
C      1  0.5124040000000  0.5213680000000  0.6039320000000 1.0
C      1  0.5387230000000  0.5557900000000  0.5756680000000 1.0
C      1  0.4752130000000  0.5520720000000  0.4911740000000 1.0
C      1  0.5724670000000  0.5747940000000  0.5526260000000 1.0
C      1  0.4637810000000  0.4210680000000  0.4910870000000 1.0
C      1  0.5239010000000  0.5751720000000  0.5561660000000 1.0
C      1  0.5622320000000  0.4363790000000  0.4731910000000 1.0
C      1  0.4260980000000  0.5421450000000  0.4163980000000 1.0
C      1  0.4110410000000  0.4584100000000  0.4502150000000 1.0
C      1  0.4708480000000  0.4772840000000  0.4808570000000 1.0
C      1  0.5215630000000  0.5476410000000  0.5961720000000 1.0
C      1  0.4919190000000  0.5722570000000  0.5131950000000 1.0
C      1  0.4198160000000  0.4735690000000  0.5001740000000 1.0
C      1  0.5423400000000  0.4399820000000  0.4498210000000 1.0
END
