TITL C-98990-2950-5 -107.670906661494 125000 -222.286446386229 0 0 33 (C1) n - 1
REM
REM in /rds/project/t2_vol4/rds-t2-cs072/BORA/CARBON/from-Arr/AIRSS/Generating-Clusters/GAP-ML-2020/Only-C1/SD-CG/HFTN-CG
REM
REM
REM
REM
REM
REM ./C.cell (11c1c37f851c82e70ff6c80c92926a4b)
REM AIRSS Version 0.9.1 bugfix July 2018 build 013d7b7c2542+ Fri, 06 Jul 2018 19:26:36 +0100
REM compiler GCC version 9.3.0
REM options -cpp -mtune=generic -march=x86-64 -g -O0
REM seed -801428310 1011970159 -343509180 -1265121569 -1715981081 -10186150 -1043162502 1563019943 1943077505 2134746360 1528677811 615746510 -1708140044 700213439 -1986359949 -1463882104 1886506514 1091136961 1142435355 2030467418 1434176448 -1396867013 -662884306 -871373138 -100144983 -1353155491 -1116621968 1477210832 678155271 -1651719464 -774718988 1410783635 426362766
REM
CELL 1.54180   50.00000   50.00000   50.00000   90.00000   90.00000   90.00000
LATT -1
SFAC C  
C      1  0.5166830000000  0.5531030000000  0.4992030000000 1.0
C      1  0.4798240000000  0.4565290000000  0.5138510000000 1.0
C      1  0.4924160000000  0.5208940000000  0.5559710000000 1.0
C      1  0.4866280000000  0.4569310000000  0.4586470000000 1.0
C      1  0.5351940000000  0.5361650000000  0.4844600000000 1.0
C      1  0.4771390000000  0.5362350000000  0.4740320000000 1.0
C      1  0.5459820000000  0.4944280000000  0.5119950000000 1.0
C      1  0.5041340000000  0.5429350000000  0.5418220000000 1.0
C      1  0.5279560000000  0.4500140000000  0.5210730000000 1.0
C      1  0.5431280000000  0.5230420000000  0.5103840000000 1.0
C      1  0.4542360000000  0.4924370000000  0.4646820000000 1.0
C      1  0.5083550000000  0.4569350000000  0.4760220000000 1.0
C      1  0.4538040000000  0.5024880000000  0.5240910000000 1.0
C      1  0.5216890000000  0.4868110000000  0.5535470000000 1.0
C      1  0.4962870000000  0.5284550000000  0.4542570000000 1.0
C      1  0.4964940000000  0.5011410000000  0.4439320000000 1.0
C      1  0.5310100000000  0.4753250000000  0.4695370000000 1.0
C      1  0.5254650000000  0.5254850000000  0.4611150000000 1.0
C      1  0.4798650000000  0.5450930000000  0.5241520000000 1.0
C      1  0.5038920000000  0.4494710000000  0.5036240000000 1.0
C      1  0.5241130000000  0.4975330000000  0.4528660000000 1.0
C      1  0.4411820000000  0.5098350000000  0.4997470000000 1.0
C      1  0.5067100000000  0.5011350000000  0.5685810000000 1.0
C      1  0.5264900000000  0.5425400000000  0.5250500000000 1.0
C      1  0.4594450000000  0.4736800000000  0.5127550000000 1.0
C      1  0.4689530000000  0.5215880000000  0.5375520000000 1.0
C      1  0.5355190000000  0.4769230000000  0.5327710000000 1.0
C      1  0.5438180000000  0.4292850000000  0.5223230000000 1.0
C      1  0.4536850000000  0.5198680000000  0.4757760000000 1.0
C      1  0.4444200000000  0.4813180000000  0.4889690000000 1.0
C      1  0.5502150000000  0.4802920000000  0.4883800000000 1.0
C      1  0.4882620000000  0.5496630000000  0.4975160000000 1.0
C      1  0.4770070000000  0.4824230000000  0.4513170000000 1.0
END
