TITL C-98988-2904-3 -905.374336287094 125000 -761.48436716291 0 0 109 (C1) n - 1
REM
REM in /rds/project/t2_vol4/rds-t2-cs072/BORA/CARBON/from-Arr/AIRSS/Generating-Clusters/GAP-ML-2020/Only-C1/SD-CG/HFTN-CG
REM
REM
REM
REM
REM
REM ./C.cell (11c1c37f851c82e70ff6c80c92926a4b)
REM AIRSS Version 0.9.1 bugfix July 2018 build 013d7b7c2542+ Fri, 06 Jul 2018 19:26:36 +0100
REM compiler GCC version 9.3.0
REM options -cpp -mtune=generic -march=x86-64 -g -O0
REM seed 833113401 -357270311 1781916267 -141186957 -869578220 1224046528 -1300580188 2000776226 -777173700 -1765484295 -2085321628 1064816023 -977547481 1947812586 -290061963 713505809 -53732624 893612574 -967925781 -760901038 24792015 1408294824 -1746171919 783425961 1089054638 -1748956541 1948048320 1344389954 -1344159717 -1637436369 -1241421678 807732131 2103163724
REM
CELL 1.54180   50.00000   50.00000   50.00000   90.00000   90.00000   90.00000
LATT -1
SFAC C  
C      1  0.5183920000000  0.5597620000000  0.5206220000000 1.0
C      1  0.4643560000000  0.5254230000000  0.4786070000000 1.0
C      1  0.5540660000000  0.5681150000000  0.5570780000000 1.0
C      1  0.5025760000000  0.5092080000000  0.5284230000000 1.0
C      1  0.4472550000000  0.4310780000000  0.5167530000000 1.0
C      1  0.5718030000000  0.4988610000000  0.5003250000000 1.0
C      1  0.5148880000000  0.4528420000000  0.5671400000000 1.0
C      1  0.5229930000000  0.4463170000000  0.4300920000000 1.0
C      1  0.5589380000000  0.4375320000000  0.5410780000000 1.0
C      1  0.4651980000000  0.4812240000000  0.4327350000000 1.0
C      1  0.4780870000000  0.4161750000000  0.4728900000000 1.0
C      1  0.4356210000000  0.4530790000000  0.5315890000000 1.0
C      1  0.5726470000000  0.4787690000000  0.5212690000000 1.0
C      1  0.4215970000000  0.5045080000000  0.4526620000000 1.0
C      1  0.4838020000000  0.5532310000000  0.5718570000000 1.0
C      1  0.5651600000000  0.5654350000000  0.5069070000000 1.0
C      1  0.5523430000000  0.5232450000000  0.5009550000000 1.0
C      1  0.5696130000000  0.4500370000000  0.5171680000000 1.0
C      1  0.5755810000000  0.5240890000000  0.4625300000000 1.0
C      1  0.4693970000000  0.4344060000000  0.5567820000000 1.0
C      1  0.4613500000000  0.5024600000000  0.5206320000000 1.0
C      1  0.5401370000000  0.4881720000000  0.5420280000000 1.0
C      1  0.5340520000000  0.5100000000000  0.4056650000000 1.0
C      1  0.5275290000000  0.5682630000000  0.5644960000000 1.0
C      1  0.5051480000000  0.5101090000000  0.4982800000000 1.0
C      1  0.4686490000000  0.4531100000000  0.4429210000000 1.0
C      1  0.5345380000000  0.5835300000000  0.4760410000000 1.0
C      1  0.4130950000000  0.5336580000000  0.4955970000000 1.0
C      1  0.4523490000000  0.4843930000000  0.5699020000000 1.0
C      1  0.4695030000000  0.5282980000000  0.5647840000000 1.0
C      1  0.5396780000000  0.4577810000000  0.5824070000000 1.0
C      1  0.4789950000000  0.5259750000000  0.5327630000000 1.0
C      1  0.4632200000000  0.5003510000000  0.4913460000000 1.0
C      1  0.4409590000000  0.5306110000000  0.5603290000000 1.0
C      1  0.5576120000000  0.5077880000000  0.4205470000000 1.0
C      1  0.4368070000000  0.5545710000000  0.5473090000000 1.0
C      1  0.4110590000000  0.4857120000000  0.4974210000000 1.0
C      1  0.4751050000000  0.5017850000000  0.5773910000000 1.0
C      1  0.5036730000000  0.4992010000000  0.5849260000000 1.0
C      1  0.4900100000000  0.5240600000000  0.4359710000000 1.0
C      1  0.4328760000000  0.5033190000000  0.5597870000000 1.0
C      1  0.5665890000000  0.5465980000000  0.4836740000000 1.0
C      1  0.4272390000000  0.5598730000000  0.4926240000000 1.0
C      1  0.5595590000000  0.4799160000000  0.4292400000000 1.0
C      1  0.5051640000000  0.4657450000000  0.4910560000000 1.0
C      1  0.4889590000000  0.4895450000000  0.4819060000000 1.0
C      1  0.4964590000000  0.4169220000000  0.4517290000000 1.0
C      1  0.5700360000000  0.4740240000000  0.4553880000000 1.0
C      1  0.4476030000000  0.5025440000000  0.4389900000000 1.0
C      1  0.4894990000000  0.5358820000000  0.4885230000000 1.0
C      1  0.5128600000000  0.5410830000000  0.4725150000000 1.0
C      1  0.5191640000000  0.4753900000000  0.5874420000000 1.0
C      1  0.5098830000000  0.5462120000000  0.4429110000000 1.0
C      1  0.4579390000000  0.4372860000000  0.4669390000000 1.0
C      1  0.4495170000000  0.5546010000000  0.4476430000000 1.0
C      1  0.4805420000000  0.5727180000000  0.5513830000000 1.0
C      1  0.4628340000000  0.5274200000000  0.4455580000000 1.0
C      1  0.5004170000000  0.4960640000000  0.4545240000000 1.0
C      1  0.4266850000000  0.5544700000000  0.4639110000000 1.0
C      1  0.5394060000000  0.4330180000000  0.4499950000000 1.0
C      1  0.5290500000000  0.5174480000000  0.4828390000000 1.0
C      1  0.4148780000000  0.5286120000000  0.4670750000000 1.0
C      1  0.5383180000000  0.4185170000000  0.5330070000000 1.0
C      1  0.4903600000000  0.4071620000000  0.5235420000000 1.0
C      1  0.5603110000000  0.4361690000000  0.4942310000000 1.0
C      1  0.5219430000000  0.4061350000000  0.4878650000000 1.0
C      1  0.5413060000000  0.5493980000000  0.4412090000000 1.0
C      1  0.5629080000000  0.5555870000000  0.5351350000000 1.0
C      1  0.4881910000000  0.6003520000000  0.4816620000000 1.0
C      1  0.4254020000000  0.4624460000000  0.5051540000000 1.0
C      1  0.5216650000000  0.4647080000000  0.5389050000000 1.0
C      1  0.5166130000000  0.4899050000000  0.4107620000000 1.0
C      1  0.4863110000000  0.4844740000000  0.5304980000000 1.0
C      1  0.5281510000000  0.5146850000000  0.5442550000000 1.0
C      1  0.5424530000000  0.4157530000000  0.5045890000000 1.0
C      1  0.5087720000000  0.5760180000000  0.5439350000000 1.0
C      1  0.5345860000000  0.4683480000000  0.4185950000000 1.0
C      1  0.5011770000000  0.4634210000000  0.5186480000000 1.0
C      1  0.5781740000000  0.4970360000000  0.4720690000000 1.0
C      1  0.5117530000000  0.5483930000000  0.5776660000000 1.0
C      1  0.5109980000000  0.4142880000000  0.5420510000000 1.0
C      1  0.4137830000000  0.5106060000000  0.5125390000000 1.0
C      1  0.4475530000000  0.5760680000000  0.5054290000000 1.0
C      1  0.5616830000000  0.5292640000000  0.4383110000000 1.0
C      1  0.5281660000000  0.4954180000000  0.4626600000000 1.0
C      1  0.5294240000000  0.4699650000000  0.4772820000000 1.0
C      1  0.4336770000000  0.5057480000000  0.5322970000000 1.0
C      1  0.4943220000000  0.4058460000000  0.4957360000000 1.0
C      1  0.5662240000000  0.4807090000000  0.5491940000000 1.0
C      1  0.4415050000000  0.4423050000000  0.4903980000000 1.0
C      1  0.4643030000000  0.5870590000000  0.4833270000000 1.0
C      1  0.5087810000000  0.5900760000000  0.4666620000000 1.0
C      1  0.4956050000000  0.5723840000000  0.4482720000000 1.0
C      1  0.4545080000000  0.5715010000000  0.5350780000000 1.0
C      1  0.5231820000000  0.4128620000000  0.4605180000000 1.0
C      1  0.4095410000000  0.4881100000000  0.4704460000000 1.0
C      1  0.4508300000000  0.4575020000000  0.5569340000000 1.0
C      1  0.5611140000000  0.4562160000000  0.5629310000000 1.0
C      1  0.5509170000000  0.5643680000000  0.4628740000000 1.0
C      1  0.4978580000000  0.4302180000000  0.5630430000000 1.0
C      1  0.5537520000000  0.4511730000000  0.4690890000000 1.0
C      1  0.5410910000000  0.5359170000000  0.5275350000000 1.0
C      1  0.5386970000000  0.5763370000000  0.5030390000000 1.0
C      1  0.4905270000000  0.5470860000000  0.5143510000000 1.0
C      1  0.4680500000000  0.5734960000000  0.4559030000000 1.0
C      1  0.4658230000000  0.4187090000000  0.5331390000000 1.0
C      1  0.4942160000000  0.4399880000000  0.4356970000000 1.0
C      1  0.4916320000000  0.4953670000000  0.4264770000000 1.0
C      1  0.5189110000000  0.5210540000000  0.5731930000000 1.0
END
