TITL C-98146-1200-4 75.5661908687587 125000 -506.309573847544 0 0 74 (C1) n - 1
REM
REM in /rds/project/t2_vol4/rds-t2-cs072/BORA/CARBON/from-Arr/AIRSS/Generating-Clusters/GAP-ML-2020/Only-C1/SD-CG/HFTN-CG
REM
REM
REM
REM
REM
REM ./C.cell (11c1c37f851c82e70ff6c80c92926a4b)
REM AIRSS Version 0.9.1 bugfix July 2018 build 013d7b7c2542+ Fri, 06 Jul 2018 19:26:36 +0100
REM compiler GCC version 9.3.0
REM options -cpp -mtune=generic -march=x86-64 -g -O0
REM seed 1428032143 -803809371 1535824396 -1342182665 -1132674064 1175122504 -757548331 -209361522 841470144 1261128548 1345619058 -403197340 -1535416254 34668054 1505130588 -2003183741 590427508 1017509460 -862120818 861514507 1121305991 2041824793 661261766 1664158204 -1878230803 -1725202102 94178892 -627973580 1075316532 1806216486 -1054173999 917835230 843668077
REM
CELL 1.54180   50.00000   50.00000   50.00000   90.00000   90.00000   90.00000
LATT -1
SFAC C  
C      1  0.4389600000000  0.5051510000000  0.5333790000000 1.0
C      1  0.4896670000000  0.4422010000000  0.5441480000000 1.0
C      1  0.4427680000000  0.5027280000000  0.5630940000000 1.0
C      1  0.5682620000000  0.4984760000000  0.5259860000000 1.0
C      1  0.4804340000000  0.5608040000000  0.4559980000000 1.0
C      1  0.5307000000000  0.4418800000000  0.4667220000000 1.0
C      1  0.4820980000000  0.5169930000000  0.4270330000000 1.0
C      1  0.5161300000000  0.4834790000000  0.4318110000000 1.0
C      1  0.4275790000000  0.5249030000000  0.5135130000000 1.0
C      1  0.5319440000000  0.5020160000000  0.5747830000000 1.0
C      1  0.5072610000000  0.5654690000000  0.4509010000000 1.0
C      1  0.4686860000000  0.5058140000000  0.4933670000000 1.0
C      1  0.4724220000000  0.4786420000000  0.4821460000000 1.0
C      1  0.4402280000000  0.5687580000000  0.5317900000000 1.0
C      1  0.4706970000000  0.4749050000000  0.4508850000000 1.0
C      1  0.4688620000000  0.5411660000000  0.4373120000000 1.0
C      1  0.5080540000000  0.5041780000000  0.5269880000000 1.0
C      1  0.5087700000000  0.5100040000000  0.4245090000000 1.0
C      1  0.4955180000000  0.4337790000000  0.4904200000000 1.0
C      1  0.5528650000000  0.5096970000000  0.4384230000000 1.0
C      1  0.4380100000000  0.5582270000000  0.4826730000000 1.0
C      1  0.4481100000000  0.4586740000000  0.4880640000000 1.0
C      1  0.5302350000000  0.5515880000000  0.4449750000000 1.0
C      1  0.4709310000000  0.4746060000000  0.5765130000000 1.0
C      1  0.5308680000000  0.5264980000000  0.4308620000000 1.0
C      1  0.4574890000000  0.4477560000000  0.4639470000000 1.0
C      1  0.4953740000000  0.5203220000000  0.4878430000000 1.0
C      1  0.4859260000000  0.5263370000000  0.5725110000000 1.0
C      1  0.5346760000000  0.4347110000000  0.5190020000000 1.0
C      1  0.4787180000000  0.5641360000000  0.5061960000000 1.0
C      1  0.5178340000000  0.4378160000000  0.5410570000000 1.0
C      1  0.4672950000000  0.5627300000000  0.5333330000000 1.0
C      1  0.4792010000000  0.4614980000000  0.5239080000000 1.0
C      1  0.5858270000000  0.5131020000000  0.4741800000000 1.0
C      1  0.5676700000000  0.4691000000000  0.4828390000000 1.0
C      1  0.5484780000000  0.5454880000000  0.4885300000000 1.0
C      1  0.5173000000000  0.5030800000000  0.4978890000000 1.0
C      1  0.5536190000000  0.5224150000000  0.5261090000000 1.0
C      1  0.4494260000000  0.4578550000000  0.5156880000000 1.0
C      1  0.5543740000000  0.5487700000000  0.4618210000000 1.0
C      1  0.4289590000000  0.5535040000000  0.5115250000000 1.0
C      1  0.5429270000000  0.4827600000000  0.4419180000000 1.0
C      1  0.5587360000000  0.4505530000000  0.5234410000000 1.0
C      1  0.4649390000000  0.5664860000000  0.4809970000000 1.0
C      1  0.4325210000000  0.5336650000000  0.4676810000000 1.0
C      1  0.4854860000000  0.5449470000000  0.5499940000000 1.0
C      1  0.4820420000000  0.4312940000000  0.4662530000000 1.0
C      1  0.4660180000000  0.5054910000000  0.5216620000000 1.0
C      1  0.5350530000000  0.5431290000000  0.5316400000000 1.0
C      1  0.5207810000000  0.4567970000000  0.5633420000000 1.0
C      1  0.5116370000000  0.5162960000000  0.5779970000000 1.0
C      1  0.5594960000000  0.4752070000000  0.5399780000000 1.0
C      1  0.4965540000000  0.4654460000000  0.4397900000000 1.0
C      1  0.5714560000000  0.4972030000000  0.4933640000000 1.0
C      1  0.5177170000000  0.4758020000000  0.4969410000000 1.0
C      1  0.4851080000000  0.4896960000000  0.5344330000000 1.0
C      1  0.4459260000000  0.4737430000000  0.5612700000000 1.0
C      1  0.4669090000000  0.5055150000000  0.5779330000000 1.0
C      1  0.5063890000000  0.5345900000000  0.5328040000000 1.0
C      1  0.4614070000000  0.4996460000000  0.4380130000000 1.0
C      1  0.5014580000000  0.5472040000000  0.5047210000000 1.0
C      1  0.5735140000000  0.4498250000000  0.5007580000000 1.0
C      1  0.4924980000000  0.4627960000000  0.4980090000000 1.0
C      1  0.5406430000000  0.4777330000000  0.5622640000000 1.0
C      1  0.5456210000000  0.5165940000000  0.4968510000000 1.0
C      1  0.5245540000000  0.4301700000000  0.4925920000000 1.0
C      1  0.4381970000000  0.5161410000000  0.4888090000000 1.0
C      1  0.5711210000000  0.5249310000000  0.4540390000000 1.0
C      1  0.4351900000000  0.4737260000000  0.5340390000000 1.0
C      1  0.4466150000000  0.5244490000000  0.4455660000000 1.0
C      1  0.5299910000000  0.5564190000000  0.5066250000000 1.0
C      1  0.5497940000000  0.4630540000000  0.4612340000000 1.0
C      1  0.4923340000000  0.4571400000000  0.5695870000000 1.0
C      1  0.5051450000000  0.4422990000000  0.4527800000000 1.0
END
