TITL C-98143-1299-1 -1228.3787422506 125000 -428.704083175434 0 0 63 (C1) n - 1
REM
REM in /rds/project/t2_vol4/rds-t2-cs072/BORA/CARBON/from-Arr/AIRSS/Generating-Clusters/GAP-ML-2020/Only-C1/SD-CG/HFTN-CG
REM
REM
REM
REM
REM
REM ./C.cell (11c1c37f851c82e70ff6c80c92926a4b)
REM AIRSS Version 0.9.1 bugfix July 2018 build 013d7b7c2542+ Fri, 06 Jul 2018 19:26:36 +0100
REM compiler GCC version 9.3.0
REM options -cpp -mtune=generic -march=x86-64 -g -O0
REM seed 130150322 -1084615834 1746134510 -2072784457 -1675508077 1296579404 -150918235 -1884605655 -1034922020 -1893772054 241152433 875365244 2108269761 -1858945913 1906551224 1346044969 1393535583 -739685265 -229308351 -1327092818 -437416771 -347456506 1671890594 1092063806 -653435775 357287629 1747985630 458271520 1100343166 1838235012 -1094050647 237531959 1927738033
REM
CELL 1.54180   50.00000   50.00000   50.00000   90.00000   90.00000   90.00000
LATT -1
SFAC C  
C      1  0.5354370000000  0.4723850000000  0.4476680000000 1.0
C      1  0.5508560000000  0.5177850000000  0.4573050000000 1.0
C      1  0.4560870000000  0.5257930000000  0.5054350000000 1.0
C      1  0.4993340000000  0.5532240000000  0.5048570000000 1.0
C      1  0.4998790000000  0.5093430000000  0.5576710000000 1.0
C      1  0.5477400000000  0.5501160000000  0.5199250000000 1.0
C      1  0.4264390000000  0.4849950000000  0.5202230000000 1.0
C      1  0.5177550000000  0.4630940000000  0.5213820000000 1.0
C      1  0.4510760000000  0.4489400000000  0.4944530000000 1.0
C      1  0.4571830000000  0.5102210000000  0.4401280000000 1.0
C      1  0.5065910000000  0.5548700000000  0.4756450000000 1.0
C      1  0.4511860000000  0.4521950000000  0.4654570000000 1.0
C      1  0.5659550000000  0.4969920000000  0.5249460000000 1.0
C      1  0.5258700000000  0.5025850000000  0.4586220000000 1.0
C      1  0.5625670000000  0.5386890000000  0.4982900000000 1.0
C      1  0.5601670000000  0.5512410000000  0.5455520000000 1.0
C      1  0.4514150000000  0.4836460000000  0.5330000000000 1.0
C      1  0.5573150000000  0.5305040000000  0.5604080000000 1.0
C      1  0.5476460000000  0.5058690000000  0.5466590000000 1.0
C      1  0.5399020000000  0.4566470000000  0.4737190000000 1.0
C      1  0.5189620000000  0.5138370000000  0.5343080000000 1.0
C      1  0.4162650000000  0.5121180000000  0.5255060000000 1.0
C      1  0.5718860000000  0.4988050000000  0.4521390000000 1.0
C      1  0.5727030000000  0.4924030000000  0.4798970000000 1.0
C      1  0.5173270000000  0.4923790000000  0.5134590000000 1.0
C      1  0.5100310000000  0.4987980000000  0.4867510000000 1.0
C      1  0.4837570000000  0.4927000000000  0.4816460000000 1.0
C      1  0.4636620000000  0.5085830000000  0.5295360000000 1.0
C      1  0.4319930000000  0.4745820000000  0.4684060000000 1.0
C      1  0.4824560000000  0.4989800000000  0.4325740000000 1.0
C      1  0.4932190000000  0.5394640000000  0.4543410000000 1.0
C      1  0.4744940000000  0.5195170000000  0.5527370000000 1.0
C      1  0.5616490000000  0.4700430000000  0.5180940000000 1.0
C      1  0.5031170000000  0.4822100000000  0.5684600000000 1.0
C      1  0.4999300000000  0.4408940000000  0.4552790000000 1.0
C      1  0.5609730000000  0.4791320000000  0.4349730000000 1.0
C      1  0.4253900000000  0.5312420000000  0.5474670000000 1.0
C      1  0.4716930000000  0.5515120000000  0.5123380000000 1.0
C      1  0.5018870000000  0.4453670000000  0.5050130000000 1.0
C      1  0.5522240000000  0.5425960000000  0.4718000000000 1.0
C      1  0.4541290000000  0.5382540000000  0.5560770000000 1.0
C      1  0.5719750000000  0.5117860000000  0.5018500000000 1.0
C      1  0.5322820000000  0.5612260000000  0.4689140000000 1.0
C      1  0.4685460000000  0.4612410000000  0.5366210000000 1.0
C      1  0.5608980000000  0.4675040000000  0.4895110000000 1.0
C      1  0.4622420000000  0.5124710000000  0.4806410000000 1.0
C      1  0.4285300000000  0.4685280000000  0.4976170000000 1.0
C      1  0.5406070000000  0.4791200000000  0.5580840000000 1.0
C      1  0.4415270000000  0.4995590000000  0.4613690000000 1.0
C      1  0.4663160000000  0.5328660000000  0.4566920000000 1.0
C      1  0.5045040000000  0.5154550000000  0.4422420000000 1.0
C      1  0.4860360000000  0.4631690000000  0.5575250000000 1.0
C      1  0.5119740000000  0.4589840000000  0.4359890000000 1.0
C      1  0.5420540000000  0.4606300000000  0.5358670000000 1.0
C      1  0.4731170000000  0.4510800000000  0.4491750000000 1.0
C      1  0.4736930000000  0.4462840000000  0.5117220000000 1.0
C      1  0.5201600000000  0.5422150000000  0.5215560000000 1.0
C      1  0.5150790000000  0.4429870000000  0.4796190000000 1.0
C      1  0.4275330000000  0.5539170000000  0.5286230000000 1.0
C      1  0.5271320000000  0.4742050000000  0.5801200000000 1.0
C      1  0.4554270000000  0.5598660000000  0.5348460000000 1.0
C      1  0.4860150000000  0.4708550000000  0.4307390000000 1.0
C      1  0.4262020000000  0.5335010000000  0.5085330000000 1.0
END
