TITL C-98132-1331-1 0.0566025238925938 125000 -708.275394136844 0 0 103 (C1) n - 1
REM
REM in /rds/project/t2_vol4/rds-t2-cs072/BORA/CARBON/from-Arr/AIRSS/Generating-Clusters/GAP-ML-2020/Only-C1/SD-CG/HFTN-CG
REM
REM
REM
REM
REM
REM ./C.cell (11c1c37f851c82e70ff6c80c92926a4b)
REM AIRSS Version 0.9.1 bugfix July 2018 build 013d7b7c2542+ Fri, 06 Jul 2018 19:26:36 +0100
REM compiler GCC version 9.3.0
REM options -cpp -mtune=generic -march=x86-64 -g -O0
REM seed -1914970517 -1574204627 -1658695661 1646087128 -550650480 -1828960435 1081484529 -1598172874 -74299010 -1086120722 93503385 65432731 1562954245 -1663933433 1736615703 -313045520 -14477212 -1643008948 -1233775068 1100664967 774178190 -1410709829 -255800797 -319570984 683564993 40017114 -1705334504 497205935 391050975 -343983771 1558617773 1290645417 -1143623016
REM
CELL 1.54180   50.00000   50.00000   50.00000   90.00000   90.00000   90.00000
LATT -1
SFAC C  
C      1  0.4407250000000  0.4492760000000  0.4605020000000 1.0
C      1  0.5349030000000  0.4447420000000  0.4423760000000 1.0
C      1  0.4172220000000  0.4823900000000  0.5340320000000 1.0
C      1  0.4866850000000  0.5714860000000  0.5475330000000 1.0
C      1  0.4722540000000  0.5448720000000  0.4969320000000 1.0
C      1  0.4747380000000  0.4554520000000  0.4224420000000 1.0
C      1  0.4976310000000  0.5361670000000  0.5802500000000 1.0
C      1  0.4754270000000  0.5752050000000  0.5029400000000 1.0
C      1  0.5579980000000  0.5410820000000  0.4418040000000 1.0
C      1  0.5874810000000  0.5250010000000  0.4780770000000 1.0
C      1  0.4625150000000  0.4762440000000  0.5596350000000 1.0
C      1  0.5063530000000  0.4497070000000  0.5603480000000 1.0
C      1  0.5013550000000  0.4972110000000  0.5351310000000 1.0
C      1  0.5310830000000  0.5488890000000  0.4437080000000 1.0
C      1  0.5560150000000  0.4645720000000  0.4382150000000 1.0
C      1  0.4486110000000  0.4606160000000  0.4351690000000 1.0
C      1  0.5841560000000  0.5439270000000  0.5205320000000 1.0
C      1  0.4409310000000  0.4838080000000  0.4932510000000 1.0
C      1  0.4886870000000  0.4809930000000  0.4180570000000 1.0
C      1  0.4349380000000  0.4667410000000  0.5505440000000 1.0
C      1  0.5880760000000  0.5145290000000  0.5211770000000 1.0
C      1  0.5291090000000  0.4501430000000  0.4704770000000 1.0
C      1  0.5871090000000  0.4747000000000  0.4876140000000 1.0
C      1  0.5109870000000  0.5626140000000  0.4568310000000 1.0
C      1  0.5783560000000  0.5486510000000  0.4935770000000 1.0
C      1  0.4271490000000  0.5063190000000  0.4425390000000 1.0
C      1  0.5623280000000  0.4360650000000  0.5050220000000 1.0
C      1  0.5790450000000  0.4637220000000  0.5370310000000 1.0
C      1  0.5238560000000  0.5420850000000  0.5399390000000 1.0
C      1  0.5397590000000  0.5617100000000  0.5213210000000 1.0
C      1  0.5184120000000  0.4446180000000  0.5338410000000 1.0
C      1  0.5629300000000  0.5530870000000  0.5385070000000 1.0
C      1  0.4649640000000  0.4365580000000  0.5322290000000 1.0
C      1  0.4715240000000  0.5247960000000  0.5812540000000 1.0
C      1  0.4653330000000  0.4877870000000  0.5099860000000 1.0
C      1  0.5080180000000  0.5188140000000  0.4171630000000 1.0
C      1  0.4237140000000  0.5245880000000  0.5095200000000 1.0
C      1  0.5154920000000  0.5155850000000  0.5870750000000 1.0
C      1  0.4786970000000  0.4511030000000  0.5534610000000 1.0
C      1  0.4892620000000  0.4322080000000  0.4223460000000 1.0
C      1  0.5112300000000  0.4737050000000  0.5184630000000 1.0
C      1  0.4258740000000  0.4418030000000  0.5076300000000 1.0
C      1  0.4472260000000  0.5822250000000  0.5020150000000 1.0
C      1  0.5472290000000  0.5535100000000  0.4917920000000 1.0
C      1  0.4175570000000  0.5104370000000  0.5343110000000 1.0
C      1  0.5410840000000  0.5128360000000  0.5756810000000 1.0
C      1  0.5050290000000  0.5537610000000  0.5590850000000 1.0
C      1  0.5420220000000  0.5234110000000  0.4830820000000 1.0
C      1  0.4953290000000  0.4186080000000  0.4946260000000 1.0
C      1  0.5023810000000  0.4358380000000  0.4706840000000 1.0
C      1  0.5246490000000  0.5206340000000  0.4394970000000 1.0
C      1  0.4836110000000  0.5492870000000  0.4486820000000 1.0
C      1  0.5095310000000  0.4308430000000  0.4409730000000 1.0
C      1  0.4520750000000  0.5396860000000  0.5655810000000 1.0
C      1  0.5131730000000  0.5198010000000  0.5213250000000 1.0
C      1  0.5460040000000  0.4868040000000  0.4235420000000 1.0
C      1  0.4587480000000  0.5666450000000  0.5518800000000 1.0
C      1  0.5346240000000  0.4818600000000  0.5029990000000 1.0
C      1  0.5401650000000  0.5089160000000  0.5095830000000 1.0
C      1  0.5181090000000  0.4702740000000  0.5765440000000 1.0
C      1  0.4709330000000  0.4972260000000  0.5365980000000 1.0
C      1  0.5647260000000  0.5214260000000  0.4615220000000 1.0
C      1  0.4937750000000  0.5024920000000  0.4797800000000 1.0
C      1  0.5502810000000  0.5293530000000  0.5526170000000 1.0
C      1  0.4268480000000  0.5093430000000  0.4847540000000 1.0
C      1  0.5532150000000  0.5127550000000  0.4338850000000 1.0
C      1  0.4489640000000  0.5390520000000  0.5160890000000 1.0
C      1  0.5399660000000  0.4279840000000  0.5206510000000 1.0
C      1  0.5630240000000  0.4810200000000  0.5496370000000 1.0
C      1  0.5435990000000  0.4841930000000  0.5709010000000 1.0
C      1  0.4083540000000  0.5046390000000  0.4615250000000 1.0
C      1  0.4193200000000  0.4690550000000  0.5081400000000 1.0
C      1  0.5566570000000  0.4414630000000  0.4780910000000 1.0
C      1  0.4893150000000  0.4777170000000  0.4981290000000 1.0
C      1  0.5010910000000  0.4904280000000  0.5877000000000 1.0
C      1  0.5139710000000  0.4208220000000  0.5161980000000 1.0
C      1  0.4943990000000  0.5257420000000  0.4988660000000 1.0
C      1  0.4444750000000  0.5664630000000  0.5266410000000 1.0
C      1  0.4689780000000  0.4987620000000  0.4608540000000 1.0
C      1  0.4692360000000  0.4313460000000  0.5006420000000 1.0
C      1  0.4566330000000  0.4717890000000  0.4698570000000 1.0
C      1  0.4425030000000  0.5706960000000  0.4777250000000 1.0
C      1  0.4562680000000  0.5226040000000  0.5394360000000 1.0
C      1  0.5194830000000  0.5800180000000  0.5086800000000 1.0
C      1  0.4422250000000  0.4326450000000  0.4862890000000 1.0
C      1  0.5714360000000  0.4621930000000  0.4650890000000 1.0
C      1  0.4431750000000  0.4892030000000  0.4275740000000 1.0
C      1  0.4597400000000  0.5478680000000  0.4675220000000 1.0
C      1  0.4827910000000  0.5287060000000  0.4274600000000 1.0
C      1  0.4312780000000  0.5219760000000  0.5557160000000 1.0
C      1  0.4945610000000  0.5830400000000  0.5218160000000 1.0
C      1  0.5314010000000  0.4799980000000  0.4749490000000 1.0
C      1  0.5618400000000  0.5071290000000  0.5341660000000 1.0
C      1  0.5938320000000  0.5023600000000  0.4944260000000 1.0
C      1  0.4737970000000  0.4950680000000  0.5815910000000 1.0
C      1  0.4714140000000  0.5011790000000  0.4300300000000 1.0
C      1  0.5204770000000  0.5063210000000  0.4676590000000 1.0
C      1  0.4802640000000  0.4553210000000  0.4815500000000 1.0
C      1  0.5152840000000  0.4906470000000  0.4144550000000 1.0
C      1  0.4379020000000  0.4431870000000  0.5342690000000 1.0
C      1  0.5249980000000  0.5711150000000  0.4811210000000 1.0
C      1  0.4468630000000  0.5196330000000  0.4641020000000 1.0
C      1  0.5812330000000  0.4570780000000  0.5109380000000 1.0
END
