TITL C-98999-6005-5 0.00154993799952946 125000 -515.634645077059 0 0 73 (C1) n - 1
REM
REM in /rds/project/t2_vol4/rds-t2-cs072/BORA/CARBON/from-Arr/AIRSS/Generating-Clusters/GAP-ML-2020/Only-C1/SD-CG/HFTN-CG
REM
REM
REM
REM
REM
REM ./C.cell (11c1c37f851c82e70ff6c80c92926a4b)
REM AIRSS Version 0.9.1 bugfix July 2018 build 013d7b7c2542+ Fri, 06 Jul 2018 19:26:36 +0100
REM compiler GCC version 9.3.0
REM options -cpp -mtune=generic -march=x86-64 -g -O0
REM seed -1665722387 -617752858 -735921816 309706944 -1934337811 -1959404552 188442887 -326602979 -1323549111 -1883973504 1868355667 903132676 -1614567200 73936245 1678568928 1171528859 -225898111 -23733688 -409080700 141916367 1120272583 -1202475173 266401475 -1020181702 -1112793799 290553067 1818353655 1567829040 -1942127608 -1870780868 -1414111417 -2097836121 538520670
REM
CELL 1.54180   50.00000   50.00000   50.00000   90.00000   90.00000   90.00000
LATT -1
SFAC C  
C      1  0.4658550000000  0.5452210000000  0.4517820000000 1.0
C      1  0.4782750000000  0.5366390000000  0.5571360000000 1.0
C      1  0.4264920000000  0.4793390000000  0.4954560000000 1.0
C      1  0.4712450000000  0.5522440000000  0.5337540000000 1.0
C      1  0.4870230000000  0.4818180000000  0.4852780000000 1.0
C      1  0.5092690000000  0.5182620000000  0.4641890000000 1.0
C      1  0.5740130000000  0.5115050000000  0.4697710000000 1.0
C      1  0.4881520000000  0.5598740000000  0.4648870000000 1.0
C      1  0.4868550000000  0.5131050000000  0.5053320000000 1.0
C      1  0.4431380000000  0.4781920000000  0.4493280000000 1.0
C      1  0.5436550000000  0.4661080000000  0.5442910000000 1.0
C      1  0.5739650000000  0.5058920000000  0.5161050000000 1.0
C      1  0.5164970000000  0.5502730000000  0.5049290000000 1.0
C      1  0.5257380000000  0.4970190000000  0.5734650000000 1.0
C      1  0.4336130000000  0.5215650000000  0.5216110000000 1.0
C      1  0.5694870000000  0.4798090000000  0.5048720000000 1.0
C      1  0.4389850000000  0.4774200000000  0.5421800000000 1.0
C      1  0.5081170000000  0.5023200000000  0.4363960000000 1.0
C      1  0.4795760000000  0.4997370000000  0.4295590000000 1.0
C      1  0.4435100000000  0.5456920000000  0.4703190000000 1.0
C      1  0.5601630000000  0.5482720000000  0.4937540000000 1.0
C      1  0.4524400000000  0.4438630000000  0.5128660000000 1.0
C      1  0.5049070000000  0.4782440000000  0.5699360000000 1.0
C      1  0.4413140000000  0.5056680000000  0.5440670000000 1.0
C      1  0.4470830000000  0.5468280000000  0.5195170000000 1.0
C      1  0.5499780000000  0.5407640000000  0.5417870000000 1.0
C      1  0.4902710000000  0.5631050000000  0.5136600000000 1.0
C      1  0.5024560000000  0.4324340000000  0.4851090000000 1.0
C      1  0.5499630000000  0.5267320000000  0.4250910000000 1.0
C      1  0.5648190000000  0.4621270000000  0.4575740000000 1.0
C      1  0.5722030000000  0.4822450000000  0.4752540000000 1.0
C      1  0.5627930000000  0.5141410000000  0.5407090000000 1.0
C      1  0.4388050000000  0.5063830000000  0.4491540000000 1.0
C      1  0.4332560000000  0.4644230000000  0.5183830000000 1.0
C      1  0.4615730000000  0.4646910000000  0.5536620000000 1.0
C      1  0.5549410000000  0.4593480000000  0.5195400000000 1.0
C      1  0.5442270000000  0.5537460000000  0.5163520000000 1.0
C      1  0.5134710000000  0.4712510000000  0.4475180000000 1.0
C      1  0.4768700000000  0.4846050000000  0.5673570000000 1.0
C      1  0.4256340000000  0.5081030000000  0.4969260000000 1.0
C      1  0.5449690000000  0.4938790000000  0.5519590000000 1.0
C      1  0.5199790000000  0.5047310000000  0.5341170000000 1.0
C      1  0.5592720000000  0.5299820000000  0.4513430000000 1.0
C      1  0.4989040000000  0.4379370000000  0.5370890000000 1.0
C      1  0.4377190000000  0.4643670000000  0.4733150000000 1.0
C      1  0.5275780000000  0.4472380000000  0.4791330000000 1.0
C      1  0.5153930000000  0.4770330000000  0.4779160000000 1.0
C      1  0.4548290000000  0.4432820000000  0.4836890000000 1.0
C      1  0.4834690000000  0.5100200000000  0.4772130000000 1.0
C      1  0.4704670000000  0.4434560000000  0.5362070000000 1.0
C      1  0.5459840000000  0.5488910000000  0.4686600000000 1.0
C      1  0.5394680000000  0.4535130000000  0.4516240000000 1.0
C      1  0.4646990000000  0.5110100000000  0.5600730000000 1.0
C      1  0.5052190000000  0.4816540000000  0.5306010000000 1.0
C      1  0.4830970000000  0.4860150000000  0.5135870000000 1.0
C      1  0.4799150000000  0.4389490000000  0.4695870000000 1.0
C      1  0.4498970000000  0.5590360000000  0.4937650000000 1.0
C      1  0.5161900000000  0.5182940000000  0.5087930000000 1.0
C      1  0.5317320000000  0.5429620000000  0.5630530000000 1.0
C      1  0.5147850000000  0.4593790000000  0.5499270000000 1.0
C      1  0.4685840000000  0.4740070000000  0.4360920000000 1.0
C      1  0.5279310000000  0.5154700000000  0.4184520000000 1.0
C      1  0.5269310000000  0.5038320000000  0.4839670000000 1.0
C      1  0.4763310000000  0.5695090000000  0.4898650000000 1.0
C      1  0.4612390000000  0.5202870000000  0.4372630000000 1.0
C      1  0.5117850000000  0.4304900000000  0.5127110000000 1.0
C      1  0.5223140000000  0.5236090000000  0.5809310000000 1.0
C      1  0.5764670000000  0.5247630000000  0.4944800000000 1.0
C      1  0.5380430000000  0.4414350000000  0.5056500000000 1.0
C      1  0.5155740000000  0.5479910000000  0.4716060000000 1.0
C      1  0.4297050000000  0.5208620000000  0.4716550000000 1.0
C      1  0.4875720000000  0.4561380000000  0.4465850000000 1.0
C      1  0.5033300000000  0.5409710000000  0.5702340000000 1.0
END
