TITL C-98995-2942-4 0.0519296871608115 125000 -829.421720974837 0 0 120 (C1) n - 1
REM
REM in /rds/project/t2_vol4/rds-t2-cs072/BORA/CARBON/from-Arr/AIRSS/Generating-Clusters/GAP-ML-2020/Only-C1/SD-CG/HFTN-CG
REM
REM
REM
REM
REM
REM ./C.cell (11c1c37f851c82e70ff6c80c92926a4b)
REM AIRSS Version 0.9.1 bugfix July 2018 build 013d7b7c2542+ Fri, 06 Jul 2018 19:26:36 +0100
REM compiler GCC version 9.3.0
REM options -cpp -mtune=generic -march=x86-64 -g -O0
REM seed -222668138 -1701521275 -905130390 1283024627 -387831157 -675503340 135052064 662109175 -1101411385 -1482956868 1352412690 68371381 -1277275151 1632799206 -2018003789 645541324 -1595387057 1581079228 -1264041980 -1733855968 287835031 1736848994 -909335447 -1116421690 -1086595368 -1347023854 973749441 -1208684027 2098081847 -689429427 -382181735 -313334653 420124877
REM
CELL 1.54180   50.00000   50.00000   50.00000   90.00000   90.00000   90.00000
LATT -1
SFAC C  
C      1  0.4971930000000  0.4054430000000  0.4991010000000 1.0
C      1  0.5259450000000  0.4224690000000  0.5475120000000 1.0
C      1  0.5525780000000  0.4866780000000  0.4868760000000 1.0
C      1  0.5359950000000  0.5129980000000  0.5701110000000 1.0
C      1  0.4777250000000  0.5272600000000  0.5073630000000 1.0
C      1  0.5033150000000  0.4762740000000  0.4649810000000 1.0
C      1  0.4340410000000  0.4492340000000  0.5458710000000 1.0
C      1  0.4667170000000  0.4942740000000  0.5952990000000 1.0
C      1  0.5911070000000  0.5137430000000  0.4599610000000 1.0
C      1  0.4430850000000  0.4390810000000  0.5191800000000 1.0
C      1  0.5205770000000  0.4798530000000  0.5222230000000 1.0
C      1  0.5194820000000  0.4131070000000  0.4837020000000 1.0
C      1  0.4274000000000  0.5198690000000  0.4583160000000 1.0
C      1  0.4174380000000  0.4714970000000  0.5388810000000 1.0
C      1  0.4141490000000  0.4967480000000  0.4446140000000 1.0
C      1  0.4229910000000  0.5509450000000  0.4938140000000 1.0
C      1  0.4862540000000  0.5361680000000  0.4191610000000 1.0
C      1  0.4054300000000  0.5009160000000  0.4974050000000 1.0
C      1  0.4924570000000  0.4461350000000  0.4549700000000 1.0
C      1  0.5158840000000  0.4583930000000  0.5043740000000 1.0
C      1  0.5379540000000  0.5262210000000  0.5046350000000 1.0
C      1  0.5446810000000  0.4184510000000  0.4977160000000 1.0
C      1  0.4934980000000  0.5751160000000  0.4545710000000 1.0
C      1  0.5810820000000  0.4738530000000  0.4479880000000 1.0
C      1  0.4764500000000  0.4559670000000  0.4320720000000 1.0
C      1  0.4126780000000  0.5267930000000  0.5089930000000 1.0
C      1  0.5653340000000  0.4899210000000  0.5375230000000 1.0
C      1  0.5715440000000  0.5374110000000  0.5459970000000 1.0
C      1  0.4634670000000  0.4621630000000  0.5191170000000 1.0
C      1  0.5829050000000  0.5003880000000  0.4368560000000 1.0
C      1  0.4848090000000  0.4823910000000  0.4869590000000 1.0
C      1  0.5922490000000  0.4737100000000  0.4767360000000 1.0
C      1  0.5584070000000  0.5072970000000  0.4220570000000 1.0
C      1  0.5133130000000  0.4923310000000  0.4216270000000 1.0
C      1  0.5827830000000  0.5143000000000  0.5335890000000 1.0
C      1  0.5553230000000  0.4637490000000  0.4402730000000 1.0
C      1  0.5486870000000  0.4887440000000  0.5638040000000 1.0
C      1  0.4544180000000  0.4898400000000  0.5578630000000 1.0
C      1  0.5670070000000  0.5657830000000  0.5451980000000 1.0
C      1  0.4704880000000  0.5795730000000  0.5329290000000 1.0
C      1  0.5159280000000  0.5786950000000  0.4949800000000 1.0
C      1  0.4285280000000  0.4514240000000  0.4956640000000 1.0
C      1  0.5619530000000  0.4410840000000  0.5379370000000 1.0
C      1  0.4338340000000  0.5457110000000  0.5516750000000 1.0
C      1  0.4998270000000  0.5235330000000  0.4652890000000 1.0
C      1  0.4724500000000  0.4915750000000  0.4002270000000 1.0
C      1  0.4394990000000  0.5697030000000  0.5075870000000 1.0
C      1  0.4727420000000  0.5301050000000  0.4763240000000 1.0
C      1  0.4846250000000  0.4486060000000  0.5619380000000 1.0
C      1  0.5748410000000  0.5823350000000  0.4978970000000 1.0
C      1  0.4980470000000  0.5405440000000  0.5316430000000 1.0
C      1  0.5009050000000  0.4990640000000  0.4488360000000 1.0
C      1  0.5423640000000  0.5364840000000  0.5540980000000 1.0
C      1  0.4948720000000  0.4896540000000  0.5889410000000 1.0
C      1  0.4656440000000  0.5163410000000  0.5524740000000 1.0
C      1  0.5326650000000  0.5642650000000  0.4759910000000 1.0
C      1  0.5245290000000  0.5338730000000  0.4773240000000 1.0
C      1  0.5387290000000  0.5311390000000  0.4271620000000 1.0
C      1  0.4898880000000  0.4746320000000  0.4136020000000 1.0
C      1  0.4513710000000  0.5343410000000  0.5717570000000 1.0
C      1  0.4680470000000  0.5184870000000  0.4070900000000 1.0
C      1  0.4477020000000  0.4973720000000  0.4099370000000 1.0
C      1  0.4549090000000  0.5214670000000  0.5949640000000 1.0
C      1  0.4440540000000  0.5671940000000  0.5363230000000 1.0
C      1  0.4577620000000  0.5529330000000  0.4590430000000 1.0
C      1  0.4594810000000  0.4153380000000  0.5150100000000 1.0
C      1  0.4182420000000  0.4767230000000  0.5096640000000 1.0
C      1  0.5596430000000  0.4370830000000  0.4832530000000 1.0
C      1  0.4669400000000  0.5819680000000  0.5033550000000 1.0
C      1  0.4548810000000  0.5150560000000  0.5231910000000 1.0
C      1  0.5663740000000  0.5325250000000  0.4935450000000 1.0
C      1  0.4257550000000  0.5228010000000  0.5344460000000 1.0
C      1  0.5625660000000  0.5615450000000  0.4847030000000 1.0
C      1  0.5431030000000  0.4421030000000  0.5599850000000 1.0
C      1  0.5084360000000  0.5115370000000  0.5756140000000 1.0
C      1  0.4975610000000  0.4245270000000  0.5482950000000 1.0
C      1  0.4918420000000  0.5019450000000  0.5063230000000 1.0
C      1  0.5218140000000  0.5718380000000  0.4488060000000 1.0
C      1  0.4479210000000  0.4871490000000  0.5090520000000 1.0
C      1  0.4711560000000  0.4131320000000  0.4889020000000 1.0
C      1  0.5293500000000  0.5762220000000  0.5211710000000 1.0
C      1  0.5413640000000  0.5230500000000  0.4560850000000 1.0
C      1  0.4257840000000  0.4957530000000  0.5498100000000 1.0
C      1  0.4898810000000  0.5816410000000  0.4844110000000 1.0
C      1  0.4760810000000  0.4721390000000  0.5425190000000 1.0
C      1  0.4565430000000  0.4855050000000  0.4804560000000 1.0
C      1  0.4544510000000  0.5097030000000  0.4656560000000 1.0
C      1  0.5412820000000  0.5657330000000  0.5616640000000 1.0
C      1  0.5895080000000  0.5169220000000  0.5057760000000 1.0
C      1  0.5429560000000  0.4973510000000  0.5130250000000 1.0
C      1  0.4927530000000  0.5679230000000  0.5453970000000 1.0
C      1  0.5735480000000  0.4611530000000  0.4950710000000 1.0
C      1  0.5048090000000  0.4649350000000  0.5793390000000 1.0
C      1  0.4855740000000  0.4559940000000  0.5001540000000 1.0
C      1  0.4725530000000  0.4395940000000  0.4764790000000 1.0
C      1  0.5457340000000  0.4199140000000  0.5257810000000 1.0
C      1  0.5731220000000  0.4631110000000  0.5251290000000 1.0
C      1  0.6006090000000  0.5009160000000  0.4843470000000 1.0
C      1  0.4051570000000  0.5025140000000  0.4694810000000 1.0
C      1  0.5337310000000  0.4652170000000  0.5723180000000 1.0
C      1  0.5122970000000  0.5227430000000  0.4165040000000 1.0
C      1  0.4763770000000  0.5583740000000  0.4384800000000 1.0
C      1  0.4300650000000  0.5476610000000  0.4659600000000 1.0
C      1  0.5191730000000  0.5792570000000  0.5493050000000 1.0
C      1  0.4967500000000  0.4915910000000  0.5327940000000 1.0
C      1  0.4333690000000  0.4816960000000  0.4295670000000 1.0
C      1  0.4538640000000  0.4493020000000  0.5695670000000 1.0
C      1  0.5172780000000  0.4295090000000  0.4602420000000 1.0
C      1  0.5423840000000  0.4843970000000  0.4230570000000 1.0
C      1  0.4478700000000  0.4564490000000  0.4720080000000 1.0
C      1  0.5352240000000  0.5596240000000  0.4288020000000 1.0
C      1  0.4944960000000  0.5170850000000  0.5503240000000 1.0
C      1  0.5421830000000  0.4462140000000  0.4605710000000 1.0
C      1  0.5291950000000  0.4690720000000  0.4777450000000 1.0
C      1  0.4492200000000  0.4604880000000  0.4414110000000 1.0
C      1  0.5592710000000  0.5793240000000  0.5207930000000 1.0
C      1  0.5273980000000  0.5427280000000  0.5258300000000 1.0
C      1  0.4513850000000  0.4742330000000  0.5830260000000 1.0
C      1  0.5632480000000  0.5137450000000  0.4706720000000 1.0
C      1  0.4858950000000  0.4103050000000  0.5262050000000 1.0
END
