TITL C-98990-2950-2 -109.578633567261 125000 -366.004401206945 0 0 55 (C1) n - 1
REM
REM in /rds/project/t2_vol4/rds-t2-cs072/BORA/CARBON/from-Arr/AIRSS/Generating-Clusters/GAP-ML-2020/Only-C1/SD-CG/HFTN-CG
REM
REM
REM
REM
REM
REM ./C.cell (11c1c37f851c82e70ff6c80c92926a4b)
REM AIRSS Version 0.9.1 bugfix July 2018 build 013d7b7c2542+ Fri, 06 Jul 2018 19:26:36 +0100
REM compiler GCC version 9.3.0
REM options -cpp -mtune=generic -march=x86-64 -g -O0
REM seed -1412801397 1467341406 -676084846 2067440284 -1809930722 1626035207 1051222170 721594810 240598455 1816239352 -1084518162 1909240935 1895120180 945121037 1339435718 -1528357940 1432484530 -909512495 114727583 649212947 -461415574 34850633 1528649823 1709639738 1305397037 -1529408699 -414862355 815189712 -289560339 814931516 -2045499352 1641261306 -1744057805
REM
CELL 1.54180   50.00000   50.00000   50.00000   90.00000   90.00000   90.00000
LATT -1
SFAC C  
C      1  0.4887850000000  0.4361440000000  0.5310820000000 1.0
C      1  0.5046110000000  0.4760420000000  0.5128180000000 1.0
C      1  0.5508630000000  0.4800180000000  0.5266040000000 1.0
C      1  0.5513670000000  0.5227360000000  0.4521200000000 1.0
C      1  0.5443720000000  0.4986110000000  0.5460400000000 1.0
C      1  0.5151150000000  0.5126610000000  0.4290440000000 1.0
C      1  0.4547080000000  0.4823420000000  0.4555400000000 1.0
C      1  0.4480000000000  0.4629690000000  0.4752600000000 1.0
C      1  0.5307670000000  0.4606940000000  0.5181540000000 1.0
C      1  0.5121530000000  0.5267690000000  0.5136650000000 1.0
C      1  0.4862130000000  0.5120960000000  0.4801010000000 1.0
C      1  0.5560240000000  0.4759920000000  0.4801960000000 1.0
C      1  0.4944090000000  0.4955490000000  0.4295800000000 1.0
C      1  0.4731400000000  0.5644170000000  0.4942500000000 1.0
C      1  0.5408740000000  0.4790340000000  0.4549580000000 1.0
C      1  0.4744060000000  0.4469890000000  0.5541560000000 1.0
C      1  0.5200340000000  0.5567420000000  0.5059650000000 1.0
C      1  0.5236470000000  0.5337540000000  0.5425920000000 1.0
C      1  0.5178120000000  0.5603150000000  0.5345900000000 1.0
C      1  0.4444700000000  0.4848510000000  0.5642350000000 1.0
C      1  0.4385160000000  0.5057070000000  0.4931360000000 1.0
C      1  0.5560400000000  0.4959550000000  0.5021060000000 1.0
C      1  0.4734250000000  0.4504910000000  0.4808070000000 1.0
C      1  0.4971180000000  0.4884960000000  0.5414120000000 1.0
C      1  0.4412500000000  0.5261340000000  0.5137240000000 1.0
C      1  0.5371230000000  0.4564810000000  0.4896410000000 1.0
C      1  0.5430850000000  0.5501680000000  0.4439010000000 1.0
C      1  0.4616160000000  0.4745340000000  0.5182670000000 1.0
C      1  0.4835030000000  0.5207490000000  0.5088330000000 1.0
C      1  0.4821200000000  0.4550730000000  0.5091410000000 1.0
C      1  0.4799470000000  0.4763010000000  0.4417780000000 1.0
C      1  0.4635400000000  0.5431970000000  0.5069500000000 1.0
C      1  0.4354630000000  0.4767880000000  0.4987240000000 1.0
C      1  0.4372290000000  0.5096910000000  0.5641400000000 1.0
C      1  0.5175210000000  0.5062110000000  0.5524770000000 1.0
C      1  0.4477900000000  0.5152020000000  0.5394060000000 1.0
C      1  0.4723370000000  0.5007000000000  0.5285760000000 1.0
C      1  0.5176020000000  0.4665790000000  0.4688410000000 1.0
C      1  0.5041200000000  0.5362940000000  0.4677830000000 1.0
C      1  0.5144130000000  0.5405600000000  0.4398000000000 1.0
C      1  0.4992400000000  0.5604030000000  0.4848100000000 1.0
C      1  0.5525710000000  0.5610750000000  0.4677700000000 1.0
C      1  0.5309660000000  0.5253730000000  0.4762670000000 1.0
C      1  0.4919400000000  0.4558080000000  0.4593040000000 1.0
C      1  0.5269900000000  0.5066070000000  0.4976160000000 1.0
C      1  0.5157400000000  0.4446640000000  0.5389660000000 1.0
C      1  0.4984590000000  0.4621440000000  0.5553100000000 1.0
C      1  0.4354780000000  0.4637260000000  0.5244430000000 1.0
C      1  0.5522820000000  0.5252680000000  0.5367050000000 1.0
C      1  0.5415740000000  0.5008480000000  0.4371780000000 1.0
C      1  0.5460270000000  0.5476730000000  0.4919460000000 1.0
C      1  0.4490200000000  0.4613990000000  0.5502710000000 1.0
C      1  0.4576450000000  0.5056350000000  0.4717540000000 1.0
C      1  0.5057500000000  0.4893700000000  0.4871800000000 1.0
C      1  0.5607900000000  0.5259720000000  0.5100890000000 1.0
END
