TITL C-98122-2363-2 -0.000570792940338335 125000 -347.045607561972 0 0 51 (C1) n - 1
REM
REM in /rds/project/t2_vol4/rds-t2-cs072/BORA/CARBON/from-Arr/AIRSS/Generating-Clusters/GAP-ML-2020/Only-C1/SD-CG/HFTN-CG
REM
REM
REM
REM
REM
REM ./C.cell (11c1c37f851c82e70ff6c80c92926a4b)
REM AIRSS Version 0.9.1 bugfix July 2018 build 013d7b7c2542+ Fri, 06 Jul 2018 19:26:36 +0100
REM compiler GCC version 9.3.0
REM options -cpp -mtune=generic -march=x86-64 -g -O0
REM seed -415394974 1995135335 -1204221292 1800955438 1446043446 -1209187935 -1024160863 -1054293697 -1062808915 -1108622240 -2108707936 2107694173 1730104621 1109323251 -857251599 -1167174770 171856442 118995798 1189537928 907110192 -1975677827 -1010616102 -1675478033 1400490800 -58831817 -1918734505 1655517816 32872028 -1351242253 1198540270 -90528083 -51119368 1890700754
REM
CELL 1.54180   50.00000   50.00000   50.00000   90.00000   90.00000   90.00000
LATT -1
SFAC C  
C      1  0.5469910000000  0.4979240000000  0.5304290000000 1.0
C      1  0.5436970000000  0.5421050000000  0.5146300000000 1.0
C      1  0.4507480000000  0.4722720000000  0.5219510000000 1.0
C      1  0.4705840000000  0.4679370000000  0.5434770000000 1.0
C      1  0.4425310000000  0.5188420000000  0.4985630000000 1.0
C      1  0.4530910000000  0.5175980000000  0.4708940000000 1.0
C      1  0.4531090000000  0.4970580000000  0.5117010000000 1.0
C      1  0.5541540000000  0.4992900000000  0.5025430000000 1.0
C      1  0.4453880000000  0.5435280000000  0.5133190000000 1.0
C      1  0.5389070000000  0.4732950000000  0.5403670000000 1.0
C      1  0.5267460000000  0.4251680000000  0.4807380000000 1.0
C      1  0.4736480000000  0.5492100000000  0.5093570000000 1.0
C      1  0.4565230000000  0.4543420000000  0.4996890000000 1.0
C      1  0.4756930000000  0.5580330000000  0.5539830000000 1.0
C      1  0.5525380000000  0.5263240000000  0.4936200000000 1.0
C      1  0.4595570000000  0.4626120000000  0.4726410000000 1.0
C      1  0.4982530000000  0.5068970000000  0.4371840000000 1.0
C      1  0.4863880000000  0.4936360000000  0.4970290000000 1.0
C      1  0.5106880000000  0.5604030000000  0.4828780000000 1.0
C      1  0.5200210000000  0.5437740000000  0.4621530000000 1.0
C      1  0.5144820000000  0.4710380000000  0.5562460000000 1.0
C      1  0.4816090000000  0.4453330000000  0.5095970000000 1.0
C      1  0.4998850000000  0.4702040000000  0.5055600000000 1.0
C      1  0.5220780000000  0.4632940000000  0.4887380000000 1.0
C      1  0.4900220000000  0.4867700000000  0.5532910000000 1.0
C      1  0.5037170000000  0.5140980000000  0.4993610000000 1.0
C      1  0.4860090000000  0.4625380000000  0.4357470000000 1.0
C      1  0.5253040000000  0.5634650000000  0.5078450000000 1.0
C      1  0.5347460000000  0.4445470000000  0.5306720000000 1.0
C      1  0.5146450000000  0.5726500000000  0.5313000000000 1.0
C      1  0.4724140000000  0.5389010000000  0.4634320000000 1.0
C      1  0.4965940000000  0.5319520000000  0.4491090000000 1.0
C      1  0.5420690000000  0.5268090000000  0.4671200000000 1.0
C      1  0.5142060000000  0.4618750000000  0.4398500000000 1.0
C      1  0.5440140000000  0.4825100000000  0.4822030000000 1.0
C      1  0.5106490000000  0.4439080000000  0.5467910000000 1.0
C      1  0.5161060000000  0.5311650000000  0.5546580000000 1.0
C      1  0.5401220000000  0.4992210000000  0.4593300000000 1.0
C      1  0.4565500000000  0.5561110000000  0.5359130000000 1.0
C      1  0.5387930000000  0.5247880000000  0.5378960000000 1.0
C      1  0.5046640000000  0.5580430000000  0.5523760000000 1.0
C      1  0.4931750000000  0.5142820000000  0.5479680000000 1.0
C      1  0.4759000000000  0.4890580000000  0.4383040000000 1.0
C      1  0.4820110000000  0.5569300000000  0.4835520000000 1.0
C      1  0.5216980000000  0.4898510000000  0.4406020000000 1.0
C      1  0.4801760000000  0.4473310000000  0.4586760000000 1.0
C      1  0.4577410000000  0.4904740000000  0.4599080000000 1.0
C      1  0.5333770000000  0.4383290000000  0.5035080000000 1.0
C      1  0.4915210000000  0.5267530000000  0.5204480000000 1.0
C      1  0.5123520000000  0.4449230000000  0.4649870000000 1.0
C      1  0.4841140000000  0.4426010000000  0.5378670000000 1.0
END
