TITL C-98999-6005-6 13.3409630159627 125000 -107.968086191868 0 0 17 (C1) n - 1
REM
REM in /rds/project/t2_vol4/rds-t2-cs072/BORA/CARBON/from-Arr/AIRSS/Generating-Clusters/GAP-ML-2020/Only-C1/SD-CG/HFTN-CG
REM
REM
REM
REM
REM
REM ./C.cell (11c1c37f851c82e70ff6c80c92926a4b)
REM AIRSS Version 0.9.1 bugfix July 2018 build 013d7b7c2542+ Fri, 06 Jul 2018 19:26:36 +0100
REM compiler GCC version 9.3.0
REM options -cpp -mtune=generic -march=x86-64 -g -O0
REM seed -2010524140 -1723807674 1287023511 -1215568313 187809784 -2137194209 262915521 -116488318 -1778197481 586488006 -643733855 -655630524 -738813486 -88123160 725181805 -1188799479 -670704125 -1762933285 -2007366541 -1682657800 519470491 1198204352 -1198564097 -801537295 1092762561 1009698249 411390576 972816491 1259628926 973204877 -216624817 -2041928467 -1293726169
REM
CELL 1.54180   50.00000   50.00000   50.00000   90.00000   90.00000   90.00000
LATT -1
SFAC C  
C      1  0.4860110000000  0.5044350000000  0.5269440000000 1.0
C      1  0.4772820000000  0.5144780000000  0.5022200000000 1.0
C      1  0.5270820000000  0.4854180000000  0.5001390000000 1.0
C      1  0.5373190000000  0.5173920000000  0.4643770000000 1.0
C      1  0.4647130000000  0.5395190000000  0.5002440000000 1.0
C      1  0.4974500000000  0.4946010000000  0.5466550000000 1.0
C      1  0.4991910000000  0.4480210000000  0.4921950000000 1.0
C      1  0.5084370000000  0.4263570000000  0.5003570000000 1.0
C      1  0.5149910000000  0.5173220000000  0.4491360000000 1.0
C      1  0.4929450000000  0.5062530000000  0.4565710000000 1.0
C      1  0.5421370000000  0.4692420000000  0.5535410000000 1.0
C      1  0.4652640000000  0.5676670000000  0.5005870000000 1.0
C      1  0.4421660000000  0.5560060000000  0.4978160000000 1.0
C      1  0.5196350000000  0.4810000000000  0.5530540000000 1.0
C      1  0.5009560000000  0.4746250000000  0.4905250000000 1.0
C      1  0.5402290000000  0.5015710000000  0.4851720000000 1.0
C      1  0.4841920000000  0.4960930000000  0.4804660000000 1.0
END
