TITL C-98983-2953-8 0.0572518764827707 125000 -349.3585494523 0 0 51 (C1) n - 1
REM
REM in /rds/project/t2_vol4/rds-t2-cs072/BORA/CARBON/from-Arr/AIRSS/Generating-Clusters/GAP-ML-2020/Only-C1/SD-CG/HFTN-CG
REM
REM
REM
REM
REM
REM ./C.cell (11c1c37f851c82e70ff6c80c92926a4b)
REM AIRSS Version 0.9.1 bugfix July 2018 build 013d7b7c2542+ Fri, 06 Jul 2018 19:26:36 +0100
REM compiler GCC version 9.3.0
REM options -cpp -mtune=generic -march=x86-64 -g -O0
REM seed -733962826 1873632465 213367616 1628514563 753157348 994618373 -410035926 320794898 470023100 -190044688 -57942577 2000449240 -72054852 1937436638 -2027685638 -1061768024 1831370589 622594367 -1850578314 -1514693913 -632396638 -192709753 -1807438681 -1932683318 394648641 -369632691 85198095 -1504266971 -779336352 379645908 618969208 -188857096 1178365052
REM
CELL 1.54180   50.00000   50.00000   50.00000   90.00000   90.00000   90.00000
LATT -1
SFAC C  
C      1  0.4948780000000  0.5407760000000  0.5492230000000 1.0
C      1  0.4802610000000  0.4436770000000  0.5024880000000 1.0
C      1  0.4729770000000  0.5097430000000  0.4433560000000 1.0
C      1  0.5218000000000  0.5388090000000  0.5398660000000 1.0
C      1  0.4765360000000  0.4762120000000  0.5311900000000 1.0
C      1  0.4583640000000  0.4497710000000  0.4848530000000 1.0
C      1  0.4614720000000  0.5324010000000  0.4577880000000 1.0
C      1  0.5562210000000  0.5290980000000  0.5092110000000 1.0
C      1  0.5282080000000  0.4762020000000  0.4467270000000 1.0
C      1  0.4812470000000  0.5532820000000  0.4604520000000 1.0
C      1  0.4920970000000  0.4588480000000  0.5459850000000 1.0
C      1  0.5311440000000  0.4878950000000  0.5548120000000 1.0
C      1  0.4909890000000  0.5625400000000  0.4862160000000 1.0
C      1  0.5327340000000  0.5459100000000  0.5132760000000 1.0
C      1  0.4455930000000  0.5233440000000  0.4798880000000 1.0
C      1  0.5038840000000  0.5442990000000  0.4462730000000 1.0
C      1  0.5389900000000  0.4337160000000  0.5287690000000 1.0
C      1  0.5696960000000  0.5259320000000  0.4856540000000 1.0
C      1  0.4900840000000  0.4489180000000  0.4447410000000 1.0
C      1  0.4512320000000  0.5350060000000  0.5322620000000 1.0
C      1  0.5711680000000  0.5228960000000  0.4602430000000 1.0
C      1  0.5175770000000  0.4193880000000  0.5286280000000 1.0
C      1  0.4599640000000  0.4861150000000  0.4544380000000 1.0
C      1  0.4680940000000  0.4584330000000  0.4586120000000 1.0
C      1  0.5006590000000  0.5178580000000  0.4364540000000 1.0
C      1  0.5266680000000  0.5045690000000  0.4398890000000 1.0
C      1  0.4548830000000  0.5137160000000  0.5500660000000 1.0
C      1  0.4423790000000  0.4943340000000  0.4751940000000 1.0
C      1  0.5074270000000  0.5118040000000  0.4936400000000 1.0
C      1  0.5515590000000  0.4806430000000  0.5355370000000 1.0
C      1  0.5200400000000  0.5565450000000  0.4891060000000 1.0
C      1  0.4746490000000  0.5526990000000  0.5334440000000 1.0
C      1  0.4488540000000  0.5394460000000  0.5034080000000 1.0
C      1  0.5518800000000  0.4566390000000  0.5191630000000 1.0
C      1  0.4925750000000  0.4977250000000  0.5766070000000 1.0
C      1  0.4813280000000  0.5182200000000  0.5635420000000 1.0
C      1  0.5572120000000  0.5092560000000  0.5304240000000 1.0
C      1  0.5070240000000  0.4761190000000  0.5644840000000 1.0
C      1  0.4874550000000  0.4716490000000  0.5040610000000 1.0
C      1  0.5271640000000  0.5463750000000  0.4624940000000 1.0
C      1  0.5095380000000  0.4864350000000  0.4927920000000 1.0
C      1  0.5490740000000  0.4589090000000  0.4920050000000 1.0
C      1  0.4332570000000  0.4803220000000  0.5178700000000 1.0
C      1  0.5365060000000  0.5164820000000  0.5494970000000 1.0
C      1  0.4942530000000  0.4352230000000  0.5275170000000 1.0
C      1  0.5441120000000  0.5244870000000  0.4525530000000 1.0
C      1  0.5120680000000  0.4566020000000  0.4338600000000 1.0
C      1  0.5331110000000  0.4719440000000  0.4754210000000 1.0
C      1  0.4713110000000  0.5591650000000  0.5056020000000 1.0
C      1  0.4384740000000  0.4717400000000  0.4930590000000 1.0
C      1  0.4513290000000  0.4878800000000  0.5373580000000 1.0
END
