TITL C-98985-2875-3 -0.126591977551819 125000 -789.40231898565 0 0 113 (C1) n - 1
REM
REM in /rds/project/t2_vol4/rds-t2-cs072/BORA/CARBON/from-Arr/AIRSS/Generating-Clusters/GAP-ML-2020/Only-C1/SD-CG/HFTN-CG
REM
REM
REM
REM
REM
REM ./C.cell (11c1c37f851c82e70ff6c80c92926a4b)
REM AIRSS Version 0.9.1 bugfix July 2018 build 013d7b7c2542+ Fri, 06 Jul 2018 19:26:36 +0100
REM compiler GCC version 9.3.0
REM options -cpp -mtune=generic -march=x86-64 -g -O0
REM seed -925198719 1287626476 -458192195 407562785 -655237919 582102927 453989241 -860501867 1361686986 1804959161 -2028313857 1646734908 -301686643 -1681234271 -1570684592 53731502 -1305959962 895459608 -1076878711 -1850011679 1772266703 -500638772 376850090 2085181394 2110677270 -924168431 -1914495283 978535340 -1549418564 -1946521809 -640511279 1939477596 1225250850
REM
CELL 1.54180   50.00000   50.00000   50.00000   90.00000   90.00000   90.00000
LATT -1
SFAC C  
C      1  0.4486120000000  0.4772200000000  0.4288950000000 1.0
C      1  0.4497100000000  0.5361640000000  0.4535250000000 1.0
C      1  0.4947330000000  0.5150360000000  0.5891240000000 1.0
C      1  0.4781280000000  0.4111710000000  0.4727590000000 1.0
C      1  0.5331010000000  0.4237660000000  0.5193740000000 1.0
C      1  0.5233360000000  0.5040040000000  0.5370770000000 1.0
C      1  0.5805170000000  0.5532540000000  0.5244840000000 1.0
C      1  0.5870850000000  0.5273190000000  0.5152610000000 1.0
C      1  0.5706100000000  0.4815780000000  0.4578850000000 1.0
C      1  0.5639720000000  0.5556540000000  0.5486970000000 1.0
C      1  0.5141900000000  0.5306160000000  0.5281060000000 1.0
C      1  0.5443050000000  0.4345900000000  0.5659120000000 1.0
C      1  0.5165120000000  0.4985840000000  0.5860960000000 1.0
C      1  0.4217260000000  0.4436000000000  0.5069040000000 1.0
C      1  0.4760250000000  0.5436710000000  0.4219680000000 1.0
C      1  0.5509990000000  0.5079750000000  0.5487940000000 1.0
C      1  0.4355680000000  0.4719540000000  0.4563680000000 1.0
C      1  0.4868400000000  0.5290590000000  0.5150480000000 1.0
C      1  0.4578130000000  0.5006670000000  0.4165850000000 1.0
C      1  0.4874200000000  0.4110090000000  0.4996100000000 1.0
C      1  0.4959590000000  0.4633660000000  0.5315270000000 1.0
C      1  0.4981810000000  0.4402940000000  0.5530150000000 1.0
C      1  0.5392230000000  0.5051180000000  0.4217620000000 1.0
C      1  0.3986480000000  0.4828340000000  0.4876790000000 1.0
C      1  0.5798250000000  0.4792440000000  0.5320760000000 1.0
C      1  0.4721600000000  0.5563810000000  0.4468270000000 1.0
C      1  0.4742050000000  0.5044460000000  0.5192060000000 1.0
C      1  0.4869070000000  0.5323520000000  0.4849440000000 1.0
C      1  0.4964000000000  0.4585370000000  0.5766120000000 1.0
C      1  0.5111540000000  0.4346160000000  0.4389830000000 1.0
C      1  0.4952390000000  0.5007230000000  0.4564670000000 1.0
C      1  0.5498110000000  0.4448740000000  0.5086970000000 1.0
C      1  0.4478070000000  0.4999480000000  0.5054840000000 1.0
C      1  0.4708160000000  0.4298000000000  0.5470510000000 1.0
C      1  0.5477450000000  0.5790500000000  0.5452240000000 1.0
C      1  0.5229030000000  0.4632180000000  0.4745250000000 1.0
C      1  0.5226520000000  0.5296250000000  0.4226850000000 1.0
C      1  0.5538780000000  0.4977020000000  0.4985380000000 1.0
C      1  0.4551060000000  0.4895700000000  0.4789660000000 1.0
C      1  0.5943790000000  0.5187530000000  0.4890420000000 1.0
C      1  0.5293310000000  0.5457150000000  0.4447780000000 1.0
C      1  0.5352580000000  0.5799980000000  0.4783360000000 1.0
C      1  0.5695730000000  0.5063340000000  0.5247100000000 1.0
C      1  0.5170060000000  0.5663460000000  0.4611860000000 1.0
C      1  0.4643450000000  0.4528580000000  0.4308720000000 1.0
C      1  0.4312040000000  0.5471510000000  0.4737380000000 1.0
C      1  0.4005770000000  0.5313130000000  0.5096780000000 1.0
C      1  0.4796680000000  0.5772240000000  0.5197020000000 1.0
C      1  0.4788130000000  0.4724040000000  0.4869170000000 1.0
C      1  0.4617720000000  0.5619850000000  0.5383640000000 1.0
C      1  0.4705990000000  0.4716140000000  0.5710060000000 1.0
C      1  0.4680920000000  0.5141610000000  0.4667350000000 1.0
C      1  0.5863220000000  0.4690040000000  0.5048940000000 1.0
C      1  0.5281080000000  0.5909840000000  0.5050000000000 1.0
C      1  0.5462660000000  0.4618780000000  0.5706770000000 1.0
C      1  0.5632570000000  0.4804270000000  0.5560540000000 1.0
C      1  0.4480390000000  0.4424110000000  0.4520040000000 1.0
C      1  0.5249320000000  0.4159310000000  0.4726140000000 1.0
C      1  0.5354020000000  0.4409320000000  0.4596350000000 1.0
C      1  0.5508490000000  0.5300350000000  0.4592530000000 1.0
C      1  0.4200160000000  0.5362570000000  0.5297450000000 1.0
C      1  0.4521290000000  0.4681040000000  0.5338940000000 1.0
C      1  0.5369840000000  0.5205950000000  0.4874760000000 1.0
C      1  0.4964690000000  0.5268780000000  0.4122890000000 1.0
C      1  0.4519860000000  0.4234580000000  0.4719730000000 1.0
C      1  0.4076760000000  0.4755120000000  0.4629500000000 1.0
C      1  0.5989690000000  0.5381810000000  0.4700470000000 1.0
C      1  0.4071330000000  0.5354160000000  0.4825150000000 1.0
C      1  0.4737050000000  0.4558710000000  0.5125100000000 1.0
C      1  0.5278400000000  0.4847750000000  0.4074660000000 1.0
C      1  0.4423940000000  0.4275020000000  0.4997760000000 1.0
C      1  0.5733480000000  0.5491990000000  0.4658660000000 1.0
C      1  0.5522290000000  0.5897300000000  0.5198270000000 1.0
C      1  0.4387570000000  0.5566600000000  0.5228590000000 1.0
C      1  0.5171610000000  0.5462200000000  0.5564950000000 1.0
C      1  0.4957590000000  0.4930860000000  0.5010920000000 1.0
C      1  0.5474380000000  0.5356770000000  0.5601360000000 1.0
C      1  0.5062700000000  0.5854890000000  0.5245990000000 1.0
C      1  0.4854850000000  0.5002610000000  0.4081460000000 1.0
C      1  0.4702460000000  0.5735530000000  0.4926890000000 1.0
C      1  0.5162640000000  0.4121910000000  0.4995400000000 1.0
C      1  0.4515020000000  0.5274610000000  0.4249770000000 1.0
C      1  0.3960400000000  0.5105960000000  0.4921030000000 1.0
C      1  0.5159030000000  0.4815980000000  0.5195230000000 1.0
C      1  0.4551910000000  0.4503150000000  0.5567340000000 1.0
C      1  0.5083580000000  0.5119730000000  0.4803700000000 1.0
C      1  0.4929850000000  0.5383980000000  0.5716150000000 1.0
C      1  0.5630090000000  0.5715280000000  0.4797080000000 1.0
C      1  0.5021220000000  0.4774180000000  0.4115170000000 1.0
C      1  0.5011300000000  0.4145610000000  0.4557320000000 1.0
C      1  0.4603330000000  0.4981700000000  0.5818870000000 1.0
C      1  0.5728210000000  0.4474770000000  0.4918820000000 1.0
C      1  0.4444940000000  0.5621240000000  0.4946790000000 1.0
C      1  0.5257790000000  0.4265850000000  0.5478290000000 1.0
C      1  0.5206290000000  0.4726030000000  0.5817470000000 1.0
C      1  0.4972700000000  0.4715070000000  0.4633120000000 1.0
C      1  0.5338640000000  0.5406630000000  0.5085400000000 1.0
C      1  0.5202720000000  0.5748910000000  0.5486720000000 1.0
C      1  0.4882170000000  0.5615060000000  0.4703090000000 1.0
C      1  0.4291100000000  0.5134540000000  0.5441740000000 1.0
C      1  0.4494970000000  0.5189950000000  0.5629880000000 1.0
C      1  0.4773370000000  0.4835970000000  0.5422450000000 1.0
C      1  0.5359910000000  0.4719200000000  0.5003160000000 1.0
C      1  0.4113120000000  0.4689690000000  0.5105760000000 1.0
C      1  0.5809860000000  0.4917400000000  0.4843960000000 1.0
C      1  0.4937570000000  0.4567100000000  0.4321070000000 1.0
C      1  0.4670470000000  0.5425580000000  0.5601000000000 1.0
C      1  0.5718290000000  0.5744400000000  0.5067430000000 1.0
C      1  0.4723530000000  0.5074580000000  0.6048450000000 1.0
C      1  0.5572030000000  0.5038200000000  0.4442850000000 1.0
C      1  0.5635030000000  0.4539090000000  0.4639560000000 1.0
C      1  0.4679790000000  0.4256480000000  0.5164710000000 1.0
C      1  0.4303130000000  0.4867470000000  0.5258390000000 1.0
END
