TITL C-98130-1231-8 23.6749171665516 125000 -571.99092918106 0 0 82 (C1) n - 1
REM
REM in /rds/project/t2_vol4/rds-t2-cs072/BORA/CARBON/from-Arr/AIRSS/Generating-Clusters/GAP-ML-2020/Only-C1/SD-CG/HFTN-CG
REM
REM
REM
REM
REM
REM ./C.cell (11c1c37f851c82e70ff6c80c92926a4b)
REM AIRSS Version 0.9.1 bugfix July 2018 build 013d7b7c2542+ Fri, 06 Jul 2018 19:26:36 +0100
REM compiler GCC version 9.3.0
REM options -cpp -mtune=generic -march=x86-64 -g -O0
REM seed 1863999460 -1781131038 1330308772 21640508 -1061767793 1034193086 441098136 -250242973 415187704 200200172 -1887901158 -275419959 -1511574218 530304299 -177704438 9535304 -939429702 -633096930 2037399689 600885793 -989498284 -959519858 -878566820 18910065 -1406579285 -1961303054 -902191727 357568307 -293853488 -1243955014 -1205553230 -117627780 -1651098985
REM
CELL 1.54180   50.00000   50.00000   50.00000   90.00000   90.00000   90.00000
LATT -1
SFAC C  
C      1  0.5072930000000  0.5270470000000  0.4761130000000 1.0
C      1  0.5577420000000  0.5038120000000  0.4437630000000 1.0
C      1  0.4573510000000  0.5115870000000  0.5627510000000 1.0
C      1  0.5448320000000  0.5186750000000  0.5615560000000 1.0
C      1  0.5019010000000  0.5194080000000  0.5222880000000 1.0
C      1  0.4550980000000  0.4550200000000  0.5467230000000 1.0
C      1  0.4133260000000  0.5113570000000  0.4359400000000 1.0
C      1  0.5319410000000  0.4921400000000  0.4394690000000 1.0
C      1  0.5629980000000  0.5215310000000  0.5394220000000 1.0
C      1  0.5707210000000  0.5458080000000  0.4978610000000 1.0
C      1  0.4855160000000  0.4630080000000  0.4385170000000 1.0
C      1  0.4908010000000  0.4222160000000  0.5363570000000 1.0
C      1  0.5053580000000  0.5763290000000  0.5009010000000 1.0
C      1  0.4406430000000  0.5564040000000  0.4864220000000 1.0
C      1  0.4641390000000  0.4323150000000  0.4994520000000 1.0
C      1  0.4658480000000  0.4342030000000  0.5287660000000 1.0
C      1  0.5517870000000  0.4779210000000  0.5431020000000 1.0
C      1  0.5775360000000  0.4865630000000  0.4552910000000 1.0
C      1  0.5148350000000  0.4815390000000  0.5772630000000 1.0
C      1  0.4358900000000  0.4751270000000  0.5374060000000 1.0
C      1  0.4822750000000  0.5481250000000  0.4351240000000 1.0
C      1  0.4647630000000  0.5700950000000  0.4921910000000 1.0
C      1  0.4697720000000  0.4914800000000  0.5777860000000 1.0
C      1  0.5843330000000  0.4951380000000  0.4804340000000 1.0
C      1  0.5400170000000  0.5002710000000  0.4989200000000 1.0
C      1  0.5294660000000  0.4697480000000  0.4579230000000 1.0
C      1  0.5069190000000  0.4392180000000  0.5517440000000 1.0
C      1  0.4387960000000  0.5412460000000  0.4627310000000 1.0
C      1  0.5335990000000  0.4738950000000  0.4884160000000 1.0
C      1  0.4931280000000  0.4311780000000  0.4634560000000 1.0
C      1  0.5586570000000  0.4566660000000  0.5021080000000 1.0
C      1  0.4803020000000  0.5235740000000  0.4747620000000 1.0
C      1  0.5465410000000  0.5523040000000  0.4586780000000 1.0
C      1  0.5193660000000  0.5199210000000  0.5002340000000 1.0
C      1  0.4508920000000  0.5215960000000  0.5173270000000 1.0
C      1  0.4229150000000  0.5180650000000  0.4624700000000 1.0
C      1  0.4328670000000  0.5414650000000  0.5077140000000 1.0
C      1  0.5788910000000  0.5248980000000  0.4797830000000 1.0
C      1  0.4965570000000  0.4921110000000  0.5225170000000 1.0
C      1  0.4512910000000  0.4473000000000  0.4768180000000 1.0
C      1  0.4961230000000  0.5019000000000  0.5839270000000 1.0
C      1  0.5263710000000  0.5616100000000  0.5515880000000 1.0
C      1  0.4992840000000  0.4576150000000  0.5708040000000 1.0
C      1  0.5389210000000  0.4906720000000  0.5648260000000 1.0
C      1  0.5375630000000  0.4120780000000  0.5029610000000 1.0
C      1  0.4434520000000  0.4956110000000  0.4697000000000 1.0
C      1  0.5622030000000  0.4964430000000  0.5235310000000 1.0
C      1  0.4959300000000  0.5659830000000  0.4532500000000 1.0
C      1  0.5467340000000  0.4545050000000  0.5294640000000 1.0
C      1  0.5330780000000  0.5742480000000  0.5041230000000 1.0
C      1  0.4094750000000  0.4668720000000  0.4940270000000 1.0
C      1  0.5076270000000  0.5042260000000  0.4285820000000 1.0
C      1  0.5641040000000  0.5298630000000  0.4556950000000 1.0
C      1  0.4433270000000  0.5031460000000  0.5400550000000 1.0
C      1  0.4987290000000  0.5289030000000  0.5750610000000 1.0
C      1  0.4821320000000  0.5646890000000  0.5150400000000 1.0
C      1  0.5189390000000  0.4478920000000  0.5259290000000 1.0
C      1  0.5097520000000  0.4710010000000  0.5072240000000 1.0
C      1  0.4690620000000  0.4453420000000  0.4550860000000 1.0
C      1  0.5519610000000  0.5630870000000  0.4847720000000 1.0
C      1  0.5644520000000  0.5461420000000  0.5257960000000 1.0
C      1  0.4780680000000  0.5379730000000  0.5284350000000 1.0
C      1  0.5778930000000  0.4797610000000  0.5037170000000 1.0
C      1  0.5091980000000  0.4513310000000  0.4501580000000 1.0
C      1  0.5422940000000  0.5645990000000  0.5299960000000 1.0
C      1  0.5247550000000  0.5389150000000  0.5671740000000 1.0
C      1  0.4880190000000  0.5781170000000  0.4768290000000 1.0
C      1  0.4330290000000  0.5004030000000  0.4240360000000 1.0
C      1  0.5186530000000  0.5464830000000  0.4535530000000 1.0
C      1  0.4832050000000  0.4899070000000  0.4322230000000 1.0
C      1  0.5587310000000  0.4267560000000  0.4978840000000 1.0
C      1  0.4164050000000  0.4683090000000  0.5185490000000 1.0
C      1  0.4316540000000  0.4685000000000  0.4760420000000 1.0
C      1  0.4640450000000  0.5319340000000  0.4504630000000 1.0
C      1  0.5103450000000  0.4209150000000  0.5106050000000 1.0
C      1  0.5056630000000  0.5321390000000  0.4304280000000 1.0
C      1  0.4822250000000  0.4837290000000  0.5006930000000 1.0
C      1  0.4583110000000  0.5026370000000  0.4403190000000 1.0
C      1  0.4716250000000  0.4647510000000  0.5681190000000 1.0
C      1  0.4650070000000  0.5046940000000  0.4901330000000 1.0
C      1  0.4893370000000  0.4221420000000  0.4900310000000 1.0
C      1  0.4754210000000  0.5338750000000  0.5586700000000 1.0
END
