TITL C-98993-2887-6 -15.9869918108494 125000 -871.18095887017 0 0 124 (C1) n - 1
REM
REM in /rds/project/t2_vol4/rds-t2-cs072/BORA/CARBON/from-Arr/AIRSS/Generating-Clusters/GAP-ML-2020/Only-C1/SD-CG/HFTN-CG
REM
REM
REM
REM
REM
REM ./C.cell (11c1c37f851c82e70ff6c80c92926a4b)
REM AIRSS Version 0.9.1 bugfix July 2018 build 013d7b7c2542+ Fri, 06 Jul 2018 19:26:36 +0100
REM compiler GCC version 9.3.0
REM options -cpp -mtune=generic -march=x86-64 -g -O0
REM seed -2075772079 1920197004 311646004 593348344 -1521522990 1849628357 753218316 1903068599 -2068688126 -1474899634 1464443390 -54007735 1886949940 -367477131 1692847456 1026791812 -560006825 1140426276 -1862464349 1440212248 -209476455 343635342 161970791 684484300 -985030877 -839966950 430189762 -1922856332 -1234036185 221300664 48042154 363317747 488852074
REM
CELL 1.54180   50.00000   50.00000   50.00000   90.00000   90.00000   90.00000
LATT -1
SFAC C  
C      1  0.5287030000000  0.4113310000000  0.5285480000000 1.0
C      1  0.5257240000000  0.4898140000000  0.4658560000000 1.0
C      1  0.4600090000000  0.5448730000000  0.4305930000000 1.0
C      1  0.4770540000000  0.5675340000000  0.4387710000000 1.0
C      1  0.4831490000000  0.4744710000000  0.4211450000000 1.0
C      1  0.5277800000000  0.5825930000000  0.4717090000000 1.0
C      1  0.4886850000000  0.5026500000000  0.5841550000000 1.0
C      1  0.5160850000000  0.4314260000000  0.4350690000000 1.0
C      1  0.4249730000000  0.5659140000000  0.5069480000000 1.0
C      1  0.5319140000000  0.4534220000000  0.4890640000000 1.0
C      1  0.5819460000000  0.5171460000000  0.4599690000000 1.0
C      1  0.4106820000000  0.4701040000000  0.4700100000000 1.0
C      1  0.5554200000000  0.5249870000000  0.4218310000000 1.0
C      1  0.4873610000000  0.4286560000000  0.5631740000000 1.0
C      1  0.4378200000000  0.5227760000000  0.5247550000000 1.0
C      1  0.5795370000000  0.5410250000000  0.5080850000000 1.0
C      1  0.4773110000000  0.4396860000000  0.5008130000000 1.0
C      1  0.4506620000000  0.4197320000000  0.5289590000000 1.0
C      1  0.4719500000000  0.5112600000000  0.4748450000000 1.0
C      1  0.5155090000000  0.5253320000000  0.4981730000000 1.0
C      1  0.5182890000000  0.5866630000000  0.5177630000000 1.0
C      1  0.5580320000000  0.4411160000000  0.4528050000000 1.0
C      1  0.4696400000000  0.5216920000000  0.5206540000000 1.0
C      1  0.4441050000000  0.4977180000000  0.5674460000000 1.0
C      1  0.5493810000000  0.4282810000000  0.4812170000000 1.0
C      1  0.5292720000000  0.4787510000000  0.5259890000000 1.0
C      1  0.5739060000000  0.4352750000000  0.5229550000000 1.0
C      1  0.4627190000000  0.4674820000000  0.4969490000000 1.0
C      1  0.4975710000000  0.4431120000000  0.4545660000000 1.0
C      1  0.4940190000000  0.5041610000000  0.5115080000000 1.0
C      1  0.5885330000000  0.4545290000000  0.4830250000000 1.0
C      1  0.4837980000000  0.4677780000000  0.5367410000000 1.0
C      1  0.4766900000000  0.5254970000000  0.4184710000000 1.0
C      1  0.5060240000000  0.4043510000000  0.4862050000000 1.0
C      1  0.5980260000000  0.4988160000000  0.5055600000000 1.0
C      1  0.5034610000000  0.4900110000000  0.5349710000000 1.0
C      1  0.5254740000000  0.4596220000000  0.5748660000000 1.0
C      1  0.5492010000000  0.5288990000000  0.5437530000000 1.0
C      1  0.5897060000000  0.5208730000000  0.4883790000000 1.0
C      1  0.5418310000000  0.4848990000000  0.5737910000000 1.0
C      1  0.4672830000000  0.5857300000000  0.4585430000000 1.0
C      1  0.5236210000000  0.4477100000000  0.4144910000000 1.0
C      1  0.4562190000000  0.5687790000000  0.5420270000000 1.0
C      1  0.5216830000000  0.5606350000000  0.5703560000000 1.0
C      1  0.4185810000000  0.5468040000000  0.4869560000000 1.0
C      1  0.4700430000000  0.5905050000000  0.5294150000000 1.0
C      1  0.5049750000000  0.5097520000000  0.5578680000000 1.0
C      1  0.4980790000000  0.5896710000000  0.5370950000000 1.0
C      1  0.5547430000000  0.5609840000000  0.4524380000000 1.0
C      1  0.5278680000000  0.5222900000000  0.4117940000000 1.0
C      1  0.4536500000000  0.4183320000000  0.5027470000000 1.0
C      1  0.5720240000000  0.4661230000000  0.4620600000000 1.0
C      1  0.5592670000000  0.4964080000000  0.4229590000000 1.0
C      1  0.5403850000000  0.5560150000000  0.5488640000000 1.0
C      1  0.4187480000000  0.4578600000000  0.5512430000000 1.0
C      1  0.5993780000000  0.4704690000000  0.5034380000000 1.0
C      1  0.5078970000000  0.4679580000000  0.4733210000000 1.0
C      1  0.4966880000000  0.4436870000000  0.5230130000000 1.0
C      1  0.5043310000000  0.5612480000000  0.4318160000000 1.0
C      1  0.4409970000000  0.4499360000000  0.5649630000000 1.0
C      1  0.4762360000000  0.5563210000000  0.5576570000000 1.0
C      1  0.4413240000000  0.4946320000000  0.4283290000000 1.0
C      1  0.4567690000000  0.4220810000000  0.4729090000000 1.0
C      1  0.5481540000000  0.4464820000000  0.5619390000000 1.0
C      1  0.4521940000000  0.4489950000000  0.4566900000000 1.0
C      1  0.4345800000000  0.5384520000000  0.4421170000000 1.0
C      1  0.5443540000000  0.4345040000000  0.4295380000000 1.0
C      1  0.5278870000000  0.5706190000000  0.4453560000000 1.0
C      1  0.4110030000000  0.4800640000000  0.5371670000000 1.0
C      1  0.4529780000000  0.4722680000000  0.5778530000000 1.0
C      1  0.5143100000000  0.5438550000000  0.5920530000000 1.0
C      1  0.5907050000000  0.5033990000000  0.5331620000000 1.0
C      1  0.3990810000000  0.4803740000000  0.5105820000000 1.0
C      1  0.4872280000000  0.4231380000000  0.4751850000000 1.0
C      1  0.4413470000000  0.4714630000000  0.4736050000000 1.0
C      1  0.5037720000000  0.5364380000000  0.4172450000000 1.0
C      1  0.4276230000000  0.5098070000000  0.4481010000000 1.0
C      1  0.4402040000000  0.5815860000000  0.4661840000000 1.0
C      1  0.4980020000000  0.5485400000000  0.4942360000000 1.0
C      1  0.5743400000000  0.4328900000000  0.4948690000000 1.0
C      1  0.4648800000000  0.5150580000000  0.5711610000000 1.0
C      1  0.4595450000000  0.4730110000000  0.5247180000000 1.0
C      1  0.5112310000000  0.4728540000000  0.4120590000000 1.0
C      1  0.5288640000000  0.4075350000000  0.4993830000000 1.0
C      1  0.4026240000000  0.5025940000000  0.4921460000000 1.0
C      1  0.5682080000000  0.5375940000000  0.4440430000000 1.0
C      1  0.5196290000000  0.5157750000000  0.4709880000000 1.0
C      1  0.5313340000000  0.4934320000000  0.4109620000000 1.0
C      1  0.5764920000000  0.4912740000000  0.4460930000000 1.0
C      1  0.3955450000000  0.4601270000000  0.4913890000000 1.0
C      1  0.4665820000000  0.4980200000000  0.4191440000000 1.0
C      1  0.5348890000000  0.5108450000000  0.5630990000000 1.0
C      1  0.4037240000000  0.4967660000000  0.4634720000000 1.0
C      1  0.4982190000000  0.4524560000000  0.5787140000000 1.0
C      1  0.4851540000000  0.4864420000000  0.4873730000000 1.0
C      1  0.5401330000000  0.5202760000000  0.5132410000000 1.0
C      1  0.4590340000000  0.4287620000000  0.5540370000000 1.0
C      1  0.4729430000000  0.5357600000000  0.4931980000000 1.0
C      1  0.5028900000000  0.4205820000000  0.5402810000000 1.0
C      1  0.4374090000000  0.5878720000000  0.4942570000000 1.0
C      1  0.5536860000000  0.5730310000000  0.4790880000000 1.0
C      1  0.5779610000000  0.5280740000000  0.5342820000000 1.0
C      1  0.5855030000000  0.4782130000000  0.5472460000000 1.0
C      1  0.5478590000000  0.4785830000000  0.4829670000000 1.0
C      1  0.5470250000000  0.4927920000000  0.5094140000000 1.0
C      1  0.5909160000000  0.4579090000000  0.5280880000000 1.0
C      1  0.4266240000000  0.5569390000000  0.4616200000000 1.0
C      1  0.5650750000000  0.4701100000000  0.5646670000000 1.0
C      1  0.5418250000000  0.5720200000000  0.5251510000000 1.0
C      1  0.4989510000000  0.5729520000000  0.5595330000000 1.0
C      1  0.5066140000000  0.5808780000000  0.4907300000000 1.0
C      1  0.4351430000000  0.5536500000000  0.5302020000000 1.0
C      1  0.4279520000000  0.5021660000000  0.5447920000000 1.0
C      1  0.4801470000000  0.4740370000000  0.5864580000000 1.0
C      1  0.4747990000000  0.4539090000000  0.4396280000000 1.0
C      1  0.5253930000000  0.4520350000000  0.5170680000000 1.0
C      1  0.4441710000000  0.5029460000000  0.4736610000000 1.0
C      1  0.4815890000000  0.5950810000000  0.4824280000000 1.0
C      1  0.5613670000000  0.5642560000000  0.5049970000000 1.0
C      1  0.4622390000000  0.5979620000000  0.5034670000000 1.0
C      1  0.4254650000000  0.5193890000000  0.4962280000000 1.0
C      1  0.5021150000000  0.5238620000000  0.6026030000000 1.0
C      1  0.4798860000000  0.5286150000000  0.5499240000000 1.0
C      1  0.5478610000000  0.4324980000000  0.5357330000000 1.0
END
