TITL C-98981-2945-1 0.0690463902562607 125000 -367.32601607519 0 0 56 (C1) n - 1
REM
REM in /rds/project/t2_vol4/rds-t2-cs072/BORA/CARBON/from-Arr/AIRSS/Generating-Clusters/GAP-ML-2020/Only-C1/SD-CG/HFTN-CG
REM
REM
REM
REM
REM
REM ./C.cell (11c1c37f851c82e70ff6c80c92926a4b)
REM AIRSS Version 0.9.1 bugfix July 2018 build 013d7b7c2542+ Fri, 06 Jul 2018 19:26:36 +0100
REM compiler GCC version 9.3.0
REM options -cpp -mtune=generic -march=x86-64 -g -O0
REM seed -2122115364 1742865418 -1648163748 534089939 444590357 1671967062 365654680 1679624422 2010526429 292206346 -340938460 1690944486 -545830140 -1567343798 -900655146 -2106461406 684915963 -2109266681 1156059264 499029892 -1860534187 1330610419 518526627 703215065 341628582 -102049906 871594353 1536979670 1842095240 1942175398 -869109595 1890910937 618553850
REM
CELL 1.54180   50.00000   50.00000   50.00000   90.00000   90.00000   90.00000
LATT -1
SFAC C  
C      1  0.4735090000000  0.4917790000000  0.4605140000000 1.0
C      1  0.4714100000000  0.5014310000000  0.5100730000000 1.0
C      1  0.4829790000000  0.4833310000000  0.5550650000000 1.0
C      1  0.4638330000000  0.5354770000000  0.5453260000000 1.0
C      1  0.4877440000000  0.4752420000000  0.4435130000000 1.0
C      1  0.4653660000000  0.5526200000000  0.4977640000000 1.0
C      1  0.5048440000000  0.5655510000000  0.5253140000000 1.0
C      1  0.5128270000000  0.5727370000000  0.4986640000000 1.0
C      1  0.5078280000000  0.4864700000000  0.5691620000000 1.0
C      1  0.4357150000000  0.4369620000000  0.5068420000000 1.0
C      1  0.5241320000000  0.5519810000000  0.5411750000000 1.0
C      1  0.4749100000000  0.5133660000000  0.5595970000000 1.0
C      1  0.5153990000000  0.4816350000000  0.4417890000000 1.0
C      1  0.5001430000000  0.5151260000000  0.5727530000000 1.0
C      1  0.5031100000000  0.5271790000000  0.4880500000000 1.0
C      1  0.5376620000000  0.4644760000000  0.5342440000000 1.0
C      1  0.5632340000000  0.4856640000000  0.4930040000000 1.0
C      1  0.5747530000000  0.4949190000000  0.4498040000000 1.0
C      1  0.5426120000000  0.4715940000000  0.5060560000000 1.0
C      1  0.5109430000000  0.5036370000000  0.5266580000000 1.0
C      1  0.5191970000000  0.5316520000000  0.5608940000000 1.0
C      1  0.4367040000000  0.5081860000000  0.4828700000000 1.0
C      1  0.5530510000000  0.5113650000000  0.4547430000000 1.0
C      1  0.4930720000000  0.5223300000000  0.5137560000000 1.0
C      1  0.4245510000000  0.4597350000000  0.4970720000000 1.0
C      1  0.4922130000000  0.4647220000000  0.5006300000000 1.0
C      1  0.5448100000000  0.5353500000000  0.5281680000000 1.0
C      1  0.5255350000000  0.4628640000000  0.4610910000000 1.0
C      1  0.5486310000000  0.5113750000000  0.4846920000000 1.0
C      1  0.5087360000000  0.4248110000000  0.5212830000000 1.0
C      1  0.4426490000000  0.5114120000000  0.5114020000000 1.0
C      1  0.5806270000000  0.4798110000000  0.4721610000000 1.0
C      1  0.5246920000000  0.5485140000000  0.4872060000000 1.0
C      1  0.5184080000000  0.4739290000000  0.4876740000000 1.0
C      1  0.4917360000000  0.4283960000000  0.4711670000000 1.0
C      1  0.4870900000000  0.4475660000000  0.4515460000000 1.0
C      1  0.5131420000000  0.4370170000000  0.4561040000000 1.0
C      1  0.5120050000000  0.5702560000000  0.4714260000000 1.0
C      1  0.4701240000000  0.4808050000000  0.4876360000000 1.0
C      1  0.4950280000000  0.5515380000000  0.4531270000000 1.0
C      1  0.4773980000000  0.5378970000000  0.4742080000000 1.0
C      1  0.5362070000000  0.5123850000000  0.5457210000000 1.0
C      1  0.5241700000000  0.5092800000000  0.4469500000000 1.0
C      1  0.4391230000000  0.4789110000000  0.4859510000000 1.0
C      1  0.4391170000000  0.5506550000000  0.5063480000000 1.0
C      1  0.4878270000000  0.4333550000000  0.5013460000000 1.0
C      1  0.5084420000000  0.5322940000000  0.4387410000000 1.0
C      1  0.4591960000000  0.5158630000000  0.4656930000000 1.0
C      1  0.4813990000000  0.5481270000000  0.5236290000000 1.0
C      1  0.4394050000000  0.5332890000000  0.5289140000000 1.0
C      1  0.5238050000000  0.4407360000000  0.5340840000000 1.0
C      1  0.4895450000000  0.4818910000000  0.5260810000000 1.0
C      1  0.5473670000000  0.5353500000000  0.5006580000000 1.0
C      1  0.4595880000000  0.4288620000000  0.5073300000000 1.0
C      1  0.5336690000000  0.4843970000000  0.5555630000000 1.0
C      1  0.5187880000000  0.5038980000000  0.4787690000000 1.0
END
