TITL C-98121-1322-3 1022.15872601922 125000 -953.193392486924 0 0 137 (C1) n - 1
REM
REM in /rds/project/t2_vol4/rds-t2-cs072/BORA/CARBON/from-Arr/AIRSS/Generating-Clusters/GAP-ML-2020/Only-C1/SD-CG/HFTN-CG
REM
REM
REM
REM
REM
REM ./C.cell (11c1c37f851c82e70ff6c80c92926a4b)
REM AIRSS Version 0.9.1 bugfix July 2018 build 013d7b7c2542+ Fri, 06 Jul 2018 19:26:36 +0100
REM compiler GCC version 9.3.0
REM options -cpp -mtune=generic -march=x86-64 -g -O0
REM seed 258453288 -1193595227 -1372687309 1420784941 1749505131 1810747803 -1100706341 -958978587 1351674612 -926418165 -1024672930 1516035831 -428942716 102861958 1310904031 1322100925 -1264896349 1419920576 775394728 554621673 501258569 1638757849 -47790609 1105306448 672880043 98138822 699470014 540334261 1485491562 909789721 1740900261 -2126675770 -2138710037
REM
CELL 1.54180   50.00000   50.00000   50.00000   90.00000   90.00000   90.00000
LATT -1
SFAC C  
C      1  0.5395690000000  0.4377690000000  0.4600030000000 1.0
C      1  0.5146230000000  0.5528950000000  0.5271980000000 1.0
C      1  0.5865540000000  0.4629520000000  0.4618750000000 1.0
C      1  0.5305150000000  0.4240900000000  0.5567870000000 1.0
C      1  0.4860450000000  0.5705780000000  0.4787570000000 1.0
C      1  0.5028190000000  0.5000570000000  0.4938750000000 1.0
C      1  0.5485980000000  0.4875250000000  0.4116600000000 1.0
C      1  0.4332680000000  0.5543340000000  0.4872000000000 1.0
C      1  0.4985020000000  0.4194720000000  0.4740310000000 1.0
C      1  0.5408760000000  0.4867090000000  0.4689090000000 1.0
C      1  0.5566280000000  0.5107800000000  0.4539640000000 1.0
C      1  0.4275110000000  0.4363010000000  0.4677890000000 1.0
C      1  0.4789260000000  0.5018210000000  0.3979470000000 1.0
C      1  0.4626200000000  0.5369440000000  0.5211390000000 1.0
C      1  0.5454870000000  0.5411630000000  0.5284190000000 1.0
C      1  0.5743030000000  0.4773230000000  0.4158720000000 1.0
C      1  0.4320780000000  0.4654050000000  0.5581900000000 1.0
C      1  0.4945910000000  0.4981020000000  0.5914030000000 1.0
C      1  0.4030320000000  0.5212820000000  0.5020820000000 1.0
C      1  0.4626890000000  0.4943360000000  0.5164380000000 1.0
C      1  0.4573260000000  0.5796950000000  0.5480130000000 1.0
C      1  0.4500050000000  0.5131960000000  0.5335490000000 1.0
C      1  0.5006230000000  0.4385420000000  0.4287930000000 1.0
C      1  0.5207340000000  0.6070890000000  0.5050420000000 1.0
C      1  0.5884590000000  0.4802130000000  0.4386050000000 1.0
C      1  0.4439070000000  0.4485940000000  0.5359380000000 1.0
C      1  0.5476740000000  0.5349370000000  0.4678680000000 1.0
C      1  0.5140250000000  0.4782570000000  0.4562280000000 1.0
C      1  0.4346440000000  0.5762870000000  0.5293550000000 1.0
C      1  0.4713570000000  0.4912180000000  0.4634930000000 1.0
C      1  0.5870630000000  0.5056280000000  0.4534580000000 1.0
C      1  0.5117300000000  0.5596020000000  0.4969610000000 1.0
C      1  0.4414240000000  0.5775400000000  0.5014300000000 1.0
C      1  0.5428220000000  0.5281820000000  0.5800890000000 1.0
C      1  0.5602680000000  0.4534330000000  0.4996970000000 1.0
C      1  0.4509170000000  0.4683730000000  0.4107890000000 1.0
C      1  0.5110090000000  0.5409250000000  0.4133860000000 1.0
C      1  0.4268380000000  0.4833140000000  0.4809170000000 1.0
C      1  0.5073340000000  0.5755040000000  0.5476790000000 1.0
C      1  0.5427540000000  0.4716980000000  0.5397950000000 1.0
C      1  0.5387180000000  0.5394690000000  0.4206380000000 1.0
C      1  0.5818050000000  0.4721570000000  0.5086120000000 1.0
C      1  0.4868560000000  0.4305250000000  0.4991240000000 1.0
C      1  0.4557490000000  0.5122590000000  0.5661040000000 1.0
C      1  0.4255480000000  0.5271030000000  0.4520730000000 1.0
C      1  0.5786710000000  0.5102330000000  0.5605350000000 1.0
C      1  0.5184720000000  0.4192900000000  0.5293680000000 1.0
C      1  0.4072370000000  0.4742870000000  0.5213200000000 1.0
C      1  0.4582160000000  0.4237220000000  0.4412220000000 1.0
C      1  0.4062290000000  0.4932140000000  0.5001540000000 1.0
C      1  0.5211440000000  0.4835060000000  0.5933600000000 1.0
C      1  0.4918530000000  0.5190800000000  0.4195110000000 1.0
C      1  0.4953810000000  0.5030670000000  0.4476010000000 1.0
C      1  0.5007940000000  0.4582590000000  0.4064500000000 1.0
C      1  0.4827640000000  0.6026200000000  0.5146930000000 1.0
C      1  0.5444350000000  0.5003980000000  0.5891970000000 1.0
C      1  0.4662260000000  0.4396260000000  0.5709730000000 1.0
C      1  0.4633670000000  0.4270140000000  0.5445380000000 1.0
C      1  0.4530320000000  0.5135530000000  0.4036390000000 1.0
C      1  0.5583590000000  0.4578840000000  0.4703800000000 1.0
C      1  0.4865620000000  0.4225250000000  0.4469230000000 1.0
C      1  0.4674550000000  0.4901390000000  0.5827260000000 1.0
C      1  0.4909530000000  0.5060710000000  0.5203260000000 1.0
C      1  0.5491830000000  0.5139870000000  0.4254230000000 1.0
C      1  0.5045700000000  0.5672380000000  0.4194640000000 1.0
C      1  0.5193860000000  0.5436030000000  0.5837720000000 1.0
C      1  0.5232290000000  0.4528170000000  0.4403260000000 1.0
C      1  0.4915660000000  0.4465180000000  0.5645520000000 1.0
C      1  0.5267030000000  0.4198510000000  0.4783640000000 1.0
C      1  0.5311540000000  0.4969820000000  0.5427060000000 1.0
C      1  0.4538370000000  0.5017750000000  0.4867250000000 1.0
C      1  0.5632690000000  0.4254800000000  0.5078360000000 1.0
C      1  0.4434140000000  0.4464860000000  0.4268190000000 1.0
C      1  0.4227630000000  0.4534350000000  0.4448420000000 1.0
C      1  0.5194860000000  0.5787030000000  0.4391590000000 1.0
C      1  0.5271770000000  0.4679910000000  0.4139980000000 1.0
C      1  0.6012280000000  0.5033960000000  0.4781850000000 1.0
C      1  0.5554600000000  0.5742860000000  0.4867670000000 1.0
C      1  0.5085410000000  0.5850770000000  0.4637120000000 1.0
C      1  0.5931440000000  0.4966890000000  0.5409740000000 1.0
C      1  0.4989490000000  0.5223200000000  0.4703130000000 1.0
C      1  0.4171220000000  0.4797360000000  0.4530830000000 1.0
C      1  0.4629940000000  0.5329660000000  0.4211680000000 1.0
C      1  0.5354230000000  0.4646950000000  0.5117250000000 1.0
C      1  0.5455940000000  0.5104490000000  0.5198840000000 1.0
C      1  0.5646500000000  0.5578970000000  0.5089960000000 1.0
C      1  0.5674400000000  0.4899370000000  0.5758940000000 1.0
C      1  0.4204650000000  0.5020560000000  0.4368000000000 1.0
C      1  0.4559210000000  0.5336540000000  0.4915650000000 1.0
C      1  0.5318530000000  0.4926100000000  0.4974550000000 1.0
C      1  0.4369750000000  0.4547760000000  0.4889200000000 1.0
C      1  0.5282520000000  0.4557180000000  0.5875910000000 1.0
C      1  0.5660810000000  0.4659480000000  0.5574560000000 1.0
C      1  0.4115760000000  0.4829270000000  0.5478880000000 1.0
C      1  0.4244470000000  0.4521720000000  0.5150780000000 1.0
C      1  0.4735840000000  0.5429000000000  0.4694490000000 1.0
C      1  0.5888690000000  0.4222960000000  0.5201500000000 1.0
C      1  0.4528930000000  0.4651210000000  0.5773980000000 1.0
C      1  0.4855650000000  0.4172100000000  0.5261900000000 1.0
C      1  0.5943200000000  0.5191260000000  0.5010370000000 1.0
C      1  0.4895910000000  0.5343170000000  0.5324580000000 1.0
C      1  0.4078260000000  0.5111880000000  0.5519680000000 1.0
C      1  0.5155910000000  0.5685050000000  0.5721030000000 1.0
C      1  0.4963950000000  0.5262270000000  0.5853020000000 1.0
C      1  0.4360230000000  0.4937850000000  0.4137310000000 1.0
C      1  0.4679500000000  0.5873180000000  0.4947130000000 1.0
C      1  0.4774210000000  0.4736720000000  0.3994570000000 1.0
C      1  0.6028530000000  0.4404860000000  0.5329020000000 1.0
C      1  0.5209440000000  0.5387450000000  0.4772830000000 1.0
C      1  0.4045090000000  0.5310210000000  0.5298340000000 1.0
C      1  0.5887220000000  0.5449040000000  0.5060140000000 1.0
C      1  0.4518340000000  0.5392850000000  0.4457690000000 1.0
C      1  0.5109620000000  0.4472100000000  0.5170410000000 1.0
C      1  0.4822760000000  0.5890830000000  0.5396950000000 1.0
C      1  0.5584760000000  0.5606310000000  0.4611630000000 1.0
C      1  0.4759460000000  0.5346520000000  0.5655230000000 1.0
C      1  0.4399680000000  0.4128640000000  0.4597300000000 1.0
C      1  0.5022670000000  0.6236620000000  0.5113040000000 1.0
C      1  0.4941980000000  0.4624630000000  0.5368150000000 1.0
C      1  0.5283150000000  0.5851390000000  0.4885640000000 1.0
C      1  0.5983490000000  0.4757440000000  0.4848960000000 1.0
C      1  0.4696770000000  0.4546130000000  0.4949070000000 1.0
C      1  0.5478200000000  0.4454710000000  0.5686410000000 1.0
C      1  0.4558720000000  0.5585290000000  0.5668840000000 1.0
C      1  0.4141700000000  0.5361510000000  0.4775980000000 1.0
C      1  0.5124350000000  0.4335580000000  0.5764260000000 1.0
C      1  0.5596420000000  0.5323320000000  0.5571440000000 1.0
C      1  0.4271390000000  0.5223220000000  0.5704670000000 1.0
C      1  0.5766220000000  0.5013740000000  0.5171870000000 1.0
C      1  0.4170390000000  0.5557860000000  0.5403290000000 1.0
C      1  0.5371880000000  0.4133800000000  0.5052450000000 1.0
C      1  0.5901670000000  0.4658130000000  0.5388410000000 1.0
C      1  0.4291030000000  0.5495190000000  0.5654150000000 1.0
C      1  0.4894560000000  0.4751620000000  0.4791590000000 1.0
C      1  0.5042360000000  0.4898340000000  0.5393570000000 1.0
C      1  0.4673610000000  0.4655400000000  0.5230860000000 1.0
C      1  0.5446040000000  0.5628220000000  0.4372920000000 1.0
END
