TITL C-98126-1174-11 30.5369107297153 125000 -356.432958124235 0 0 52 (C1) n - 1
REM
REM in /rds/project/t2_vol4/rds-t2-cs072/BORA/CARBON/from-Arr/AIRSS/Generating-Clusters/GAP-ML-2020/Only-C1/SD-CG/HFTN-CG
REM
REM
REM
REM
REM
REM ./C.cell (11c1c37f851c82e70ff6c80c92926a4b)
REM AIRSS Version 0.9.1 bugfix July 2018 build 013d7b7c2542+ Fri, 06 Jul 2018 19:26:36 +0100
REM compiler GCC version 9.3.0
REM options -cpp -mtune=generic -march=x86-64 -g -O0
REM seed -973953335 1604608489 14685588 -804507946 1206110857 -877986614 211524505 -390409872 512893944 13842914 -766846280 30844845 1115978785 -1434044131 -814652681 -1713949978 912252840 506919525 1157870020 902092483 -1328150646 2120587682 -1916845540 353705148 1357225286 2110211171 -653044501 1373616867 1151853398 -712636560 597881193 855694752 1073212588
REM
CELL 1.54180   50.00000   50.00000   50.00000   90.00000   90.00000   90.00000
LATT -1
SFAC C  
C      1  0.5025530000000  0.5603780000000  0.4956790000000 1.0
C      1  0.5105800000000  0.5308030000000  0.5590760000000 1.0
C      1  0.4938580000000  0.4679390000000  0.4295720000000 1.0
C      1  0.5453250000000  0.5145440000000  0.4699900000000 1.0
C      1  0.5122100000000  0.4659880000000  0.5302940000000 1.0
C      1  0.5198180000000  0.4609090000000  0.4363010000000 1.0
C      1  0.5250590000000  0.5101640000000  0.4478780000000 1.0
C      1  0.4578790000000  0.4852070000000  0.4498370000000 1.0
C      1  0.5526070000000  0.4863000000000  0.4689620000000 1.0
C      1  0.5317050000000  0.5519870000000  0.5015330000000 1.0
C      1  0.4356390000000  0.5090200000000  0.5115850000000 1.0
C      1  0.4558840000000  0.5466810000000  0.4866820000000 1.0
C      1  0.5514140000000  0.5189730000000  0.5423120000000 1.0
C      1  0.5129740000000  0.5788820000000  0.5365930000000 1.0
C      1  0.4530330000000  0.5309660000000  0.4623040000000 1.0
C      1  0.5403570000000  0.4749990000000  0.5377300000000 1.0
C      1  0.5587650000000  0.5124830000000  0.5154820000000 1.0
C      1  0.4822870000000  0.5102250000000  0.4947670000000 1.0
C      1  0.4946910000000  0.5629470000000  0.5247720000000 1.0
C      1  0.4919450000000  0.4852020000000  0.4893540000000 1.0
C      1  0.4632650000000  0.4739190000000  0.5354880000000 1.0
C      1  0.4806010000000  0.5369940000000  0.4537650000000 1.0
C      1  0.4966660000000  0.5164490000000  0.4416060000000 1.0
C      1  0.4620620000000  0.5281610000000  0.5359850000000 1.0
C      1  0.4450230000000  0.4671070000000  0.4903880000000 1.0
C      1  0.4959040000000  0.4851970000000  0.5725560000000 1.0
C      1  0.5402940000000  0.4960220000000  0.5561610000000 1.0
C      1  0.4565510000000  0.4607630000000  0.4652760000000 1.0
C      1  0.5332310000000  0.4297170000000  0.5059050000000 1.0
C      1  0.4790300000000  0.4440490000000  0.4695900000000 1.0
C      1  0.4896670000000  0.5356060000000  0.5377140000000 1.0
C      1  0.5029080000000  0.5180670000000  0.5146670000000 1.0
C      1  0.5324490000000  0.5608170000000  0.5290970000000 1.0
C      1  0.4436620000000  0.5050290000000  0.4639940000000 1.0
C      1  0.4511290000000  0.5003210000000  0.5342270000000 1.0
C      1  0.5348150000000  0.4826260000000  0.4461340000000 1.0
C      1  0.5487270000000  0.5298610000000  0.4935640000000 1.0
C      1  0.4831600000000  0.4421030000000  0.4993130000000 1.0
C      1  0.5537420000000  0.4407600000000  0.4953910000000 1.0
C      1  0.5155560000000  0.5040470000000  0.5685090000000 1.0
C      1  0.4962520000000  0.4466330000000  0.4474110000000 1.0
C      1  0.5582130000000  0.4690900000000  0.4913420000000 1.0
C      1  0.5356660000000  0.5407730000000  0.5485100000000 1.0
C      1  0.5086420000000  0.4418790000000  0.5129520000000 1.0
C      1  0.4475150000000  0.5357920000000  0.5112380000000 1.0
C      1  0.4829640000000  0.5552740000000  0.4769060000000 1.0
C      1  0.4349700000000  0.4934680000000  0.4889820000000 1.0
C      1  0.5106030000000  0.4900150000000  0.5101610000000 1.0
C      1  0.4812380000000  0.4923650000000  0.4354840000000 1.0
C      1  0.4887680000000  0.4714430000000  0.5499240000000 1.0
C      1  0.5572750000000  0.4840940000000  0.5152480000000 1.0
C      1  0.4608680000000  0.4569630000000  0.5118090000000 1.0
END
