TITL C-98130-1231-4 -0.0154022738143343 125000 -92.5306476212619 0 0 15 (C1) n - 1
REM
REM in /rds/project/t2_vol4/rds-t2-cs072/BORA/CARBON/from-Arr/AIRSS/Generating-Clusters/GAP-ML-2020/Only-C1/SD-CG/HFTN-CG
REM
REM
REM
REM
REM
REM ./C.cell (11c1c37f851c82e70ff6c80c92926a4b)
REM AIRSS Version 0.9.1 bugfix July 2018 build 013d7b7c2542+ Fri, 06 Jul 2018 19:26:36 +0100
REM compiler GCC version 9.3.0
REM options -cpp -mtune=generic -march=x86-64 -g -O0
REM seed 1946469698 -1253179472 -204696455 -2033760406 952565560 1176651231 1919469519 1321820868 1017176922 -1176931451 -1280282790 -1175887485 983592020 356803391 164542245 726310004 -976554618 869872605 -1085962589 664691439 -1142599630 -896074752 1687819745 1945869761 595027843 -1471400429 -1722197919 -1074818983 1914796563 -899927231 1093471210 368136566 -135599917
REM
CELL 1.54180   50.00000   50.00000   50.00000   90.00000   90.00000   90.00000
LATT -1
SFAC C  
C      1  0.4906740000000  0.5508950000000  0.4842070000000 1.0
C      1  0.4508250000000  0.5288960000000  0.4767780000000 1.0
C      1  0.4994780000000  0.5295360000000  0.4991310000000 1.0
C      1  0.5471500000000  0.5295370000000  0.5228630000000 1.0
C      1  0.5484560000000  0.5104760000000  0.5016560000000 1.0
C      1  0.5256920000000  0.5272830000000  0.5048810000000 1.0
C      1  0.5345930000000  0.4395970000000  0.4957110000000 1.0
C      1  0.5312400000000  0.4596390000000  0.5118190000000 1.0
C      1  0.4817960000000  0.5069540000000  0.5042960000000 1.0
C      1  0.4671480000000  0.5493490000000  0.4728950000000 1.0
C      1  0.5163270000000  0.4764320000000  0.5242270000000 1.0
C      1  0.4910610000000  0.4821790000000  0.5144790000000 1.0
C      1  0.4815750000000  0.4398810000000  0.4905110000000 1.0
C      1  0.4563020000000  0.5084830000000  0.4921630000000 1.0
C      1  0.4776820000000  0.4608630000000  0.5043840000000 1.0
END
