TITL C-98142-1525-1 185.989635921233 125000 -600.092243645661 0 0 87 (C1) n - 1
REM
REM in /rds/project/t2_vol4/rds-t2-cs072/BORA/CARBON/from-Arr/AIRSS/Generating-Clusters/GAP-ML-2020/Only-C1/SD-CG/HFTN-CG
REM
REM
REM
REM
REM
REM ./C.cell (11c1c37f851c82e70ff6c80c92926a4b)
REM AIRSS Version 0.9.1 bugfix July 2018 build 013d7b7c2542+ Fri, 06 Jul 2018 19:26:36 +0100
REM compiler GCC version 9.3.0
REM options -cpp -mtune=generic -march=x86-64 -g -O0
REM seed -1163810591 2056350499 647229235 -1355485316 1054334093 -205256852 1286105595 -744472515 -702928432 847237040 -166469114 1617860938 -367358899 -880993677 -1946666479 1371087061 997844437 -1219680702 1528258668 -564449801 -1874727136 365797661 1320060448 1585230309 -701313501 -642343216 1950506743 1759864292 -1992849800 -926222590 30592135 532614240 452998742
REM
CELL 1.54180   50.00000   50.00000   50.00000   90.00000   90.00000   90.00000
LATT -1
SFAC C  
C      1  0.4764200000000  0.4752570000000  0.5739670000000 1.0
C      1  0.5171860000000  0.5314480000000  0.4769920000000 1.0
C      1  0.4197970000000  0.4884540000000  0.4723010000000 1.0
C      1  0.4441490000000  0.4581730000000  0.5319360000000 1.0
C      1  0.5100880000000  0.5264230000000  0.4261240000000 1.0
C      1  0.5105950000000  0.4649180000000  0.4796080000000 1.0
C      1  0.4934080000000  0.5712860000000  0.4934210000000 1.0
C      1  0.4399920000000  0.5162320000000  0.4411370000000 1.0
C      1  0.4959580000000  0.5563230000000  0.5560740000000 1.0
C      1  0.5340470000000  0.4729780000000  0.4956450000000 1.0
C      1  0.5423510000000  0.5410740000000  0.5600740000000 1.0
C      1  0.5193350000000  0.5099400000000  0.4504890000000 1.0
C      1  0.4904320000000  0.4614110000000  0.5009110000000 1.0
C      1  0.5185930000000  0.4951560000000  0.5071370000000 1.0
C      1  0.4686020000000  0.5219760000000  0.5690500000000 1.0
C      1  0.4847660000000  0.4561910000000  0.4265260000000 1.0
C      1  0.5606930000000  0.5279620000000  0.4501880000000 1.0
C      1  0.5885050000000  0.5261940000000  0.4912880000000 1.0
C      1  0.4868010000000  0.5603450000000  0.4481200000000 1.0
C      1  0.4703920000000  0.5443670000000  0.5510480000000 1.0
C      1  0.5345360000000  0.4329130000000  0.5124990000000 1.0
C      1  0.4654050000000  0.4416490000000  0.5404440000000 1.0
C      1  0.4304010000000  0.5349680000000  0.4863770000000 1.0
C      1  0.5227640000000  0.4876970000000  0.5635320000000 1.0
C      1  0.4717550000000  0.4898220000000  0.4648320000000 1.0
C      1  0.5136230000000  0.4373570000000  0.5536980000000 1.0
C      1  0.4731590000000  0.5147890000000  0.5135140000000 1.0
C      1  0.5723730000000  0.5405430000000  0.4739530000000 1.0
C      1  0.5335550000000  0.5356770000000  0.5014650000000 1.0
C      1  0.5304920000000  0.4559500000000  0.4428910000000 1.0
C      1  0.4778340000000  0.4479610000000  0.5659280000000 1.0
C      1  0.5130400000000  0.5353590000000  0.5679120000000 1.0
C      1  0.5132940000000  0.5126550000000  0.5461060000000 1.0
C      1  0.4903190000000  0.4315640000000  0.4670070000000 1.0
C      1  0.4565050000000  0.5370680000000  0.4343110000000 1.0
C      1  0.5617690000000  0.5034520000000  0.5315490000000 1.0
C      1  0.4508260000000  0.4897320000000  0.4411660000000 1.0
C      1  0.5594770000000  0.5162960000000  0.5592190000000 1.0
C      1  0.5197520000000  0.4397140000000  0.4657250000000 1.0
C      1  0.4462450000000  0.4474390000000  0.4589860000000 1.0
C      1  0.4349400000000  0.5268480000000  0.5134030000000 1.0
C      1  0.5765610000000  0.4760660000000  0.4999530000000 1.0
C      1  0.4336710000000  0.4564310000000  0.5055170000000 1.0
C      1  0.5000880000000  0.4772060000000  0.5239810000000 1.0
C      1  0.5305140000000  0.5421090000000  0.4166010000000 1.0
C      1  0.5404680000000  0.5634690000000  0.5088760000000 1.0
C      1  0.4475940000000  0.4408700000000  0.4862350000000 1.0
C      1  0.4992590000000  0.4320990000000  0.5755620000000 1.0
C      1  0.5355300000000  0.5663120000000  0.4608750000000 1.0
C      1  0.5110110000000  0.4246890000000  0.5272190000000 1.0
C      1  0.5410940000000  0.4585660000000  0.5238400000000 1.0
C      1  0.4932510000000  0.5179370000000  0.5825600000000 1.0
C      1  0.5805130000000  0.5045490000000  0.5058560000000 1.0
C      1  0.4672720000000  0.5614300000000  0.5006230000000 1.0
C      1  0.5011220000000  0.4888630000000  0.4639960000000 1.0
C      1  0.4608170000000  0.5410410000000  0.5223760000000 1.0
C      1  0.4849650000000  0.5394040000000  0.4278250000000 1.0
C      1  0.4756370000000  0.4353230000000  0.4928820000000 1.0
C      1  0.4726430000000  0.5090290000000  0.4860520000000 1.0
C      1  0.4590840000000  0.5582680000000  0.4540890000000 1.0
C      1  0.5064560000000  0.5605460000000  0.4689000000000 1.0
C      1  0.5424130000000  0.4353610000000  0.4844730000000 1.0
C      1  0.4618160000000  0.4949560000000  0.5577370000000 1.0
C      1  0.4862250000000  0.5005410000000  0.5352600000000 1.0
C      1  0.4398780000000  0.4849770000000  0.5412470000000 1.0
C      1  0.4204540000000  0.4813120000000  0.4993030000000 1.0
C      1  0.4994120000000  0.4901710000000  0.5815330000000 1.0
C      1  0.5402390000000  0.5607860000000  0.5399770000000 1.0
C      1  0.5206980000000  0.4649240000000  0.5438570000000 1.0
C      1  0.5513540000000  0.4733430000000  0.4525950000000 1.0
C      1  0.5332330000000  0.5141870000000  0.5227420000000 1.0
C      1  0.5542390000000  0.5623790000000  0.4821400000000 1.0
C      1  0.5578760000000  0.4627290000000  0.4795830000000 1.0
C      1  0.4830120000000  0.4288470000000  0.5200690000000 1.0
C      1  0.4239150000000  0.5164250000000  0.4657580000000 1.0
C      1  0.5016560000000  0.5092060000000  0.4875440000000 1.0
C      1  0.4323060000000  0.4711360000000  0.4521250000000 1.0
C      1  0.5655110000000  0.4731240000000  0.5267490000000 1.0
C      1  0.5135740000000  0.5766970000000  0.5118760000000 1.0
C      1  0.5097390000000  0.4626440000000  0.4257280000000 1.0
C      1  0.5473970000000  0.5016590000000  0.4483640000000 1.0
C      1  0.5476340000000  0.4968060000000  0.5736340000000 1.0
C      1  0.5133270000000  0.5717000000000  0.5401540000000 1.0
C      1  0.4493360000000  0.5556920000000  0.4799280000000 1.0
C      1  0.5437120000000  0.5484770000000  0.4393360000000 1.0
C      1  0.4266050000000  0.5000650000000  0.5205830000000 1.0
C      1  0.4727160000000  0.4420880000000  0.4473300000000 1.0
END
