TITL C-98984-2973-1 -21.1590796171888 125000 -207.121665015209 0 0 32 (C1) n - 1
REM
REM in /rds/project/t2_vol4/rds-t2-cs072/BORA/CARBON/from-Arr/AIRSS/Generating-Clusters/GAP-ML-2020/Only-C1/SD-CG/HFTN-CG
REM
REM
REM
REM
REM
REM ./C.cell (11c1c37f851c82e70ff6c80c92926a4b)
REM AIRSS Version 0.9.1 bugfix July 2018 build 013d7b7c2542+ Fri, 06 Jul 2018 19:26:36 +0100
REM compiler GCC version 9.3.0
REM options -cpp -mtune=generic -march=x86-64 -g -O0
REM seed -1247545298 664816616 -118791177 966200400 1294744664 1499740501 1491847262 1585441170 -230335934 290282034 -354179457 1355290253 716425507 2115670818 -324915613 761317801 -1890945685 -1892792628 -41591228 -1384497863 1188855537 -254971224 1634573400 309070000 1611715988 -650871781 345141227 560077036 -235643945 2093649080 1707496100 -1715492230 81038629
REM
CELL 1.54180   50.00000   50.00000   50.00000   90.00000   90.00000   90.00000
LATT -1
SFAC C  
C      1  0.5252140000000  0.4766290000000  0.5220230000000 1.0
C      1  0.5440300000000  0.5244240000000  0.5229400000000 1.0
C      1  0.4518330000000  0.5321240000000  0.5090750000000 1.0
C      1  0.5270890000000  0.4735280000000  0.4649270000000 1.0
C      1  0.4985120000000  0.5298930000000  0.5028720000000 1.0
C      1  0.4643430000000  0.5551760000000  0.4756820000000 1.0
C      1  0.5580570000000  0.5095490000000  0.5391820000000 1.0
C      1  0.4464250000000  0.4597200000000  0.5196920000000 1.0
C      1  0.4392540000000  0.5429060000000  0.4867530000000 1.0
C      1  0.4848590000000  0.5034810000000  0.5185780000000 1.0
C      1  0.4674630000000  0.4548740000000  0.5050670000000 1.0
C      1  0.4573960000000  0.5084870000000  0.5240380000000 1.0
C      1  0.5529950000000  0.4858010000000  0.5240890000000 1.0
C      1  0.4923680000000  0.4532400000000  0.4962200000000 1.0
C      1  0.5279130000000  0.5284180000000  0.5016850000000 1.0
C      1  0.5152010000000  0.4527230000000  0.4800830000000 1.0
C      1  0.4463850000000  0.4832220000000  0.5360910000000 1.0
C      1  0.4876400000000  0.4803390000000  0.5592050000000 1.0
C      1  0.5202330000000  0.5183290000000  0.4534020000000 1.0
C      1  0.4777760000000  0.5487300000000  0.5012900000000 1.0
C      1  0.5387490000000  0.5191290000000  0.4752850000000 1.0
C      1  0.4770870000000  0.5510920000000  0.4516050000000 1.0
C      1  0.5204610000000  0.4920250000000  0.4952490000000 1.0
C      1  0.4867640000000  0.5025450000000  0.4637200000000 1.0
C      1  0.4928910000000  0.5027290000000  0.4912660000000 1.0
C      1  0.4620150000000  0.4799340000000  0.5588490000000 1.0
C      1  0.5198110000000  0.4522870000000  0.5069020000000 1.0
C      1  0.5634400000000  0.4802660000000  0.4984000000000 1.0
C      1  0.5481260000000  0.4900310000000  0.4775240000000 1.0
C      1  0.4933730000000  0.5298800000000  0.4510300000000 1.0
C      1  0.5017790000000  0.4876410000000  0.5362940000000 1.0
C      1  0.5105200000000  0.4908460000000  0.4509810000000 1.0
END
