TITL C-98989-1506-3 0.0758273698698717 125000 -226.877927325026 0 0 35 (C1) n - 1
REM
REM in /rds/project/t2_vol4/rds-t2-cs072/BORA/CARBON/from-Arr/AIRSS/Generating-Clusters/GAP-ML-2020/Only-C1/SD-CG/HFTN-CG
REM
REM
REM
REM
REM
REM ./C.cell (11c1c37f851c82e70ff6c80c92926a4b)
REM AIRSS Version 0.9.1 bugfix July 2018 build 013d7b7c2542+ Fri, 06 Jul 2018 19:26:36 +0100
REM compiler GCC version 9.3.0
REM options -cpp -mtune=generic -march=x86-64 -g -O0
REM seed -2139839760 295684673 819177040 543668010 1987739436 1335917784 -242730546 -2134476565 -416515776 32602023 661858153 -757469833 307109522 -1153380448 1202556083 -301706951 1068228841 -121277339 -1598661052 -708674443 382024527 -920044442 176648488 783031736 -592277891 -1071636917 955274680 -1386926326 375474386 832756338 -1485764303 -783151718 -2120381569
REM
CELL 1.54180   50.00000   50.00000   50.00000   90.00000   90.00000   90.00000
LATT -1
SFAC C  
C      1  0.4688310000000  0.4812530000000  0.5454980000000 1.0
C      1  0.5448800000000  0.4738630000000  0.5160960000000 1.0
C      1  0.5323820000000  0.5172620000000  0.5608220000000 1.0
C      1  0.5196750000000  0.5101080000000  0.4544740000000 1.0
C      1  0.5557410000000  0.4973090000000  0.5214560000000 1.0
C      1  0.4812230000000  0.5053950000000  0.5530430000000 1.0
C      1  0.5055420000000  0.4841140000000  0.4610110000000 1.0
C      1  0.5611790000000  0.5384630000000  0.5272970000000 1.0
C      1  0.4757240000000  0.5403770000000  0.5223370000000 1.0
C      1  0.5583110000000  0.4893280000000  0.4411520000000 1.0
C      1  0.5547600000000  0.5159980000000  0.5443700000000 1.0
C      1  0.5032450000000  0.5265180000000  0.5204320000000 1.0
C      1  0.4898600000000  0.5055190000000  0.5030130000000 1.0
C      1  0.5082950000000  0.5162300000000  0.5477460000000 1.0
C      1  0.5049990000000  0.4835420000000  0.4903930000000 1.0
C      1  0.5226190000000  0.5315620000000  0.4988890000000 1.0
C      1  0.4531660000000  0.4529650000000  0.5104160000000 1.0
C      1  0.4609180000000  0.5211510000000  0.5371090000000 1.0
C      1  0.4500980000000  0.4851210000000  0.4792500000000 1.0
C      1  0.4942850000000  0.4576150000000  0.5046700000000 1.0
C      1  0.4627280000000  0.4619990000000  0.4655190000000 1.0
C      1  0.5226950000000  0.4651320000000  0.5041960000000 1.0
C      1  0.5436850000000  0.5114680000000  0.4420460000000 1.0
C      1  0.5586020000000  0.4637480000000  0.4439750000000 1.0
C      1  0.4718720000000  0.5716860000000  0.4855610000000 1.0
C      1  0.4748860000000  0.4606070000000  0.5271280000000 1.0
C      1  0.4797800000000  0.4821820000000  0.4510960000000 1.0
C      1  0.4720870000000  0.4462570000000  0.4871970000000 1.0
C      1  0.5495860000000  0.5247550000000  0.5048480000000 1.0
C      1  0.5096320000000  0.5272240000000  0.4742090000000 1.0
C      1  0.4811150000000  0.5223790000000  0.4802340000000 1.0
C      1  0.4471360000000  0.4972800000000  0.5293170000000 1.0
C      1  0.4443380000000  0.4803150000000  0.5061940000000 1.0
C      1  0.4707220000000  0.5472640000000  0.4944680000000 1.0
C      1  0.4654020000000  0.5040120000000  0.4645370000000 1.0
END
