TITL C-98976-2928-4 -0.350101959334644 125000 -873.593147193114 0 0 126 (C1) n - 1
REM
REM in /rds/project/t2_vol4/rds-t2-cs072/BORA/CARBON/from-Arr/AIRSS/Generating-Clusters/GAP-ML-2020/Only-C1/SD-CG/HFTN-CG
REM
REM
REM
REM
REM
REM ./C.cell (11c1c37f851c82e70ff6c80c92926a4b)
REM AIRSS Version 0.9.1 bugfix July 2018 build 013d7b7c2542+ Fri, 06 Jul 2018 19:26:36 +0100
REM compiler GCC version 9.3.0
REM options -cpp -mtune=generic -march=x86-64 -g -O0
REM seed -215250240 24504940 -662032861 -100621028 -212235464 -885658722 -1023194476 688908862 340243746 1737645876 -1182351288 910472419 1852796876 -916067806 -1552383814 -1373834268 1161896307 -1002324437 1619230354 553796916 1201787673 -1445729393 2010983341 -122079273 334214823 -2130398100 -1085319295 -1138567072 329206974 1154043614 -99246250 -1048395440 125577001
REM
CELL 1.54180   50.00000   50.00000   50.00000   90.00000   90.00000   90.00000
LATT -1
SFAC C  
C      1  0.5935140000000  0.5176200000000  0.4860370000000 1.0
C      1  0.5653090000000  0.5323680000000  0.5622110000000 1.0
C      1  0.4761400000000  0.5183620000000  0.5234480000000 1.0
C      1  0.4431940000000  0.4803380000000  0.5586760000000 1.0
C      1  0.4706780000000  0.4451480000000  0.4742600000000 1.0
C      1  0.5014510000000  0.5072630000000  0.5644930000000 1.0
C      1  0.5142990000000  0.5847350000000  0.5664710000000 1.0
C      1  0.5040770000000  0.4605750000000  0.4025040000000 1.0
C      1  0.4305720000000  0.5139510000000  0.4208050000000 1.0
C      1  0.5711080000000  0.4799140000000  0.5768650000000 1.0
C      1  0.4851790000000  0.5154150000000  0.4728420000000 1.0
C      1  0.5056170000000  0.5442590000000  0.4323040000000 1.0
C      1  0.4339950000000  0.4317850000000  0.4508740000000 1.0
C      1  0.5623770000000  0.4479800000000  0.4362190000000 1.0
C      1  0.5850380000000  0.4736850000000  0.4722250000000 1.0
C      1  0.5425780000000  0.4698440000000  0.5219540000000 1.0
C      1  0.5222050000000  0.5409600000000  0.4569030000000 1.0
C      1  0.5649410000000  0.5197300000000  0.4493080000000 1.0
C      1  0.4828800000000  0.5588030000000  0.4405310000000 1.0
C      1  0.4378490000000  0.5513690000000  0.5454380000000 1.0
C      1  0.5265020000000  0.4884700000000  0.4440980000000 1.0
C      1  0.4186580000000  0.5346210000000  0.4774520000000 1.0
C      1  0.4354670000000  0.4418510000000  0.5234950000000 1.0
C      1  0.4563900000000  0.5235770000000  0.4192620000000 1.0
C      1  0.4789040000000  0.4689090000000  0.5221940000000 1.0
C      1  0.4213160000000  0.4613240000000  0.4831420000000 1.0
C      1  0.4815040000000  0.4749360000000  0.4085680000000 1.0
C      1  0.5860330000000  0.5022070000000  0.4630440000000 1.0
C      1  0.4911900000000  0.6043180000000  0.5197270000000 1.0
C      1  0.5686140000000  0.5466740000000  0.4632340000000 1.0
C      1  0.5624620000000  0.4550440000000  0.5646590000000 1.0
C      1  0.4482980000000  0.5775170000000  0.5038030000000 1.0
C      1  0.5319700000000  0.5680340000000  0.5316050000000 1.0
C      1  0.4453430000000  0.4708480000000  0.5299330000000 1.0
C      1  0.5709460000000  0.4496880000000  0.4642120000000 1.0
C      1  0.4678560000000  0.5880390000000  0.5204590000000 1.0
C      1  0.4763310000000  0.5298840000000  0.5960900000000 1.0
C      1  0.4449500000000  0.5459670000000  0.4657850000000 1.0
C      1  0.5395080000000  0.5720420000000  0.5604250000000 1.0
C      1  0.5318630000000  0.5057980000000  0.4879910000000 1.0
C      1  0.4634970000000  0.4171700000000  0.4804300000000 1.0
C      1  0.5637210000000  0.5021690000000  0.5637490000000 1.0
C      1  0.5209950000000  0.5364690000000  0.5244870000000 1.0
C      1  0.4635390000000  0.4604450000000  0.4274870000000 1.0
C      1  0.4306740000000  0.4943270000000  0.5137510000000 1.0
C      1  0.5254940000000  0.4228020000000  0.4550490000000 1.0
C      1  0.4415860000000  0.4380650000000  0.4269730000000 1.0
C      1  0.5644100000000  0.5140030000000  0.5216200000000 1.0
C      1  0.4848400000000  0.4489740000000  0.4476430000000 1.0
C      1  0.4718070000000  0.4105680000000  0.5492610000000 1.0
C      1  0.4925800000000  0.4773690000000  0.5704140000000 1.0
C      1  0.5556540000000  0.5172550000000  0.4211360000000 1.0
C      1  0.5186110000000  0.5084960000000  0.5394160000000 1.0
C      1  0.4538220000000  0.5132590000000  0.5063630000000 1.0
C      1  0.4983620000000  0.5427310000000  0.4790920000000 1.0
C      1  0.4584120000000  0.5460050000000  0.4379640000000 1.0
C      1  0.5120110000000  0.4319940000000  0.5777790000000 1.0
C      1  0.5025300000000  0.5678140000000  0.5859970000000 1.0
C      1  0.5150000000000  0.4266070000000  0.5301230000000 1.0
C      1  0.5215110000000  0.5449430000000  0.5906130000000 1.0
C      1  0.4571770000000  0.5694760000000  0.4782270000000 1.0
C      1  0.4309600000000  0.5601930000000  0.5186650000000 1.0
C      1  0.4523660000000  0.4807970000000  0.4477250000000 1.0
C      1  0.4585250000000  0.5206050000000  0.4801550000000 1.0
C      1  0.5348070000000  0.4772430000000  0.4941230000000 1.0
C      1  0.4148890000000  0.5071520000000  0.4690090000000 1.0
C      1  0.4590790000000  0.5115060000000  0.5809270000000 1.0
C      1  0.5411460000000  0.5256000000000  0.5053670000000 1.0
C      1  0.5084670000000  0.5883210000000  0.4796650000000 1.0
C      1  0.4945990000000  0.4963070000000  0.5198920000000 1.0
C      1  0.4765330000000  0.5564240000000  0.5838360000000 1.0
C      1  0.5834120000000  0.5448420000000  0.4870600000000 1.0
C      1  0.5738370000000  0.5572740000000  0.5115710000000 1.0
C      1  0.4802340000000  0.4957920000000  0.4494170000000 1.0
C      1  0.5062020000000  0.4243340000000  0.5025590000000 1.0
C      1  0.5310120000000  0.4240930000000  0.4829270000000 1.0
C      1  0.5739420000000  0.5384950000000  0.5352970000000 1.0
C      1  0.5024460000000  0.4748360000000  0.4534000000000 1.0
C      1  0.5639210000000  0.4684540000000  0.4166370000000 1.0
C      1  0.5076800000000  0.4716700000000  0.4828680000000 1.0
C      1  0.4354390000000  0.4175860000000  0.4770970000000 1.0
C      1  0.5674410000000  0.4532550000000  0.5131190000000 1.0
C      1  0.4488370000000  0.4198610000000  0.5349460000000 1.0
C      1  0.4957300000000  0.4256130000000  0.5536250000000 1.0
C      1  0.5352810000000  0.5123870000000  0.4590750000000 1.0
C      1  0.4814390000000  0.5050530000000  0.4182310000000 1.0
C      1  0.5154520000000  0.4391410000000  0.4155890000000 1.0
C      1  0.4663630000000  0.5527660000000  0.5557760000000 1.0
C      1  0.4935170000000  0.5422810000000  0.5138560000000 1.0
C      1  0.4821880000000  0.5659200000000  0.5334000000000 1.0
C      1  0.4858310000000  0.5688130000000  0.4691920000000 1.0
C      1  0.5502570000000  0.5739400000000  0.5090520000000 1.0
C      1  0.4813740000000  0.4067250000000  0.4996580000000 1.0
C      1  0.5038010000000  0.5226120000000  0.5905100000000 1.0
C      1  0.4162010000000  0.5397530000000  0.5052080000000 1.0
C      1  0.5336510000000  0.4496310000000  0.5655010000000 1.0
C      1  0.5470240000000  0.5499440000000  0.5769860000000 1.0
C      1  0.5850590000000  0.4741620000000  0.5000860000000 1.0
C      1  0.5055310000000  0.5221940000000  0.4140920000000 1.0
C      1  0.4666340000000  0.4010770000000  0.5226830000000 1.0
C      1  0.5009500000000  0.6105390000000  0.4948360000000 1.0
C      1  0.5450750000000  0.4883440000000  0.4188820000000 1.0
C      1  0.5061360000000  0.5841520000000  0.5381130000000 1.0
C      1  0.5724360000000  0.4449050000000  0.5402920000000 1.0
C      1  0.4235550000000  0.5267950000000  0.5496780000000 1.0
C      1  0.5017350000000  0.4269400000000  0.4385780000000 1.0
C      1  0.4149420000000  0.4875250000000  0.4897750000000 1.0
C      1  0.5468380000000  0.4958900000000  0.5383430000000 1.0
C      1  0.5323000000000  0.5142750000000  0.4081910000000 1.0
C      1  0.4454580000000  0.4602140000000  0.4675190000000 1.0
C      1  0.4648990000000  0.4825420000000  0.5776120000000 1.0
C      1  0.5362460000000  0.5779360000000  0.4839010000000 1.0
C      1  0.4889890000000  0.4529760000000  0.4970030000000 1.0
C      1  0.5238510000000  0.4534740000000  0.5382410000000 1.0
C      1  0.5569960000000  0.4375540000000  0.4867860000000 1.0
C      1  0.4752350000000  0.5220480000000  0.5534050000000 1.0
C      1  0.4246150000000  0.4370850000000  0.4976370000000 1.0
C      1  0.5021910000000  0.4994290000000  0.4915280000000 1.0
C      1  0.5115620000000  0.4575840000000  0.5852660000000 1.0
C      1  0.4284580000000  0.4991560000000  0.4439480000000 1.0
C      1  0.4338770000000  0.5073770000000  0.5669120000000 1.0
C      1  0.5870110000000  0.5012570000000  0.5079510000000 1.0
C      1  0.5391920000000  0.4330350000000  0.4319060000000 1.0
C      1  0.4943370000000  0.4596120000000  0.5452170000000 1.0
C      1  0.5439480000000  0.5600850000000  0.4640400000000 1.0
C      1  0.4147240000000  0.5178270000000  0.5245410000000 1.0
END
