TITL C-98982-3150-9 -42.7966002328992 125000 -237.209295607731 0 0 36 (C1) n - 1
REM
REM in /rds/project/t2_vol4/rds-t2-cs072/BORA/CARBON/from-Arr/AIRSS/Generating-Clusters/GAP-ML-2020/Only-C1/SD-CG/HFTN-CG
REM
REM
REM
REM
REM
REM ./C.cell (11c1c37f851c82e70ff6c80c92926a4b)
REM AIRSS Version 0.9.1 bugfix July 2018 build 013d7b7c2542+ Fri, 06 Jul 2018 19:26:36 +0100
REM compiler GCC version 9.3.0
REM options -cpp -mtune=generic -march=x86-64 -g -O0
REM seed 1295675542 -364879036 -1604167286 -22297903 -154940925 908854042 27745481 889406909 744256393 1144359507 1087733102 -29864192 -873503529 -302866175 -1765462996 -105751877 -1066301728 573884577 320836756 -1440674642 -566983717 -1698907057 -1145477816 -97128792 -1467701239 -1460647809 -1795736129 1141077 -649469091 109127954 -1949748531 667400098 -1375247663
REM
CELL 1.54180   50.00000   50.00000   50.00000   90.00000   90.00000   90.00000
LATT -1
SFAC C  
C      1  0.5221620000000  0.5137790000000  0.5423200000000 1.0
C      1  0.4802810000000  0.5431870000000  0.5313480000000 1.0
C      1  0.4797820000000  0.5575620000000  0.4878660000000 1.0
C      1  0.5179320000000  0.4818580000000  0.4385950000000 1.0
C      1  0.5231100000000  0.5526870000000  0.4792050000000 1.0
C      1  0.4932490000000  0.4422290000000  0.4859780000000 1.0
C      1  0.4635700000000  0.5177040000000  0.4688250000000 1.0
C      1  0.4891240000000  0.5251180000000  0.4547140000000 1.0
C      1  0.4603690000000  0.5368480000000  0.4908230000000 1.0
C      1  0.5089890000000  0.5192620000000  0.5673850000000 1.0
C      1  0.5207070000000  0.4589550000000  0.4540740000000 1.0
C      1  0.4512620000000  0.4664830000000  0.4791230000000 1.0
C      1  0.4661170000000  0.4519620000000  0.5227720000000 1.0
C      1  0.5029390000000  0.5124790000000  0.4973550000000 1.0
C      1  0.5139500000000  0.4632200000000  0.5268270000000 1.0
C      1  0.5517790000000  0.4929210000000  0.5128820000000 1.0
C      1  0.5359920000000  0.4592240000000  0.4809140000000 1.0
C      1  0.4623980000000  0.4750500000000  0.5383880000000 1.0
C      1  0.5170110000000  0.4501550000000  0.5008070000000 1.0
C      1  0.4945300000000  0.5588480000000  0.5126860000000 1.0
C      1  0.4616420000000  0.4911870000000  0.4804730000000 1.0
C      1  0.5574980000000  0.5202610000000  0.5135600000000 1.0
C      1  0.4985760000000  0.5501310000000  0.4665230000000 1.0
C      1  0.5010950000000  0.4411820000000  0.4589940000000 1.0
C      1  0.4595000000000  0.5283860000000  0.5182720000000 1.0
C      1  0.5111160000000  0.5044210000000  0.4519240000000 1.0
C      1  0.5443780000000  0.4851900000000  0.4861340000000 1.0
C      1  0.5224930000000  0.5032090000000  0.4782540000000 1.0
C      1  0.4669730000000  0.4486550000000  0.4950130000000 1.0
C      1  0.5365070000000  0.5341380000000  0.5234030000000 1.0
C      1  0.4700950000000  0.5016220000000  0.5295430000000 1.0
C      1  0.5226880000000  0.5541920000000  0.5073310000000 1.0
C      1  0.5303890000000  0.4865330000000  0.5315450000000 1.0
C      1  0.4907330000000  0.5200630000000  0.5461050000000 1.0
C      1  0.4877980000000  0.4586880000000  0.5373120000000 1.0
C      1  0.4832630000000  0.4926110000000  0.5027250000000 1.0
END
