TITL C-98125-1250-1 -1.11307186521293 125000 -772.755199853535 0 0 110 (C1) n - 1
REM
REM in /rds/project/t2_vol4/rds-t2-cs072/BORA/CARBON/from-Arr/AIRSS/Generating-Clusters/GAP-ML-2020/Only-C1/SD-CG/HFTN-CG
REM
REM
REM
REM
REM
REM ./C.cell (11c1c37f851c82e70ff6c80c92926a4b)
REM AIRSS Version 0.9.1 bugfix July 2018 build 013d7b7c2542+ Fri, 06 Jul 2018 19:26:36 +0100
REM compiler GCC version 9.3.0
REM options -cpp -mtune=generic -march=x86-64 -g -O0
REM seed -1081510344 640062865 948933607 -1046538270 2133719652 -2113540201 -223489804 -1929998812 2050385544 1513469117 1281387808 1302468019 1047685699 935046379 473446560 -755166091 139468863 -280810325 -1413483604 2014393229 -280110085 -2115992350 -1520140027 -1677454669 -1070756207 1022023150 688163974 -1339085585 1443806550 -1787468260 1944766146 -1308661486 702734211
REM
CELL 1.54180   50.00000   50.00000   50.00000   90.00000   90.00000   90.00000
LATT -1
SFAC C  
C      1  0.4643470000000  0.5600400000000  0.4577280000000 1.0
C      1  0.4255160000000  0.5526130000000  0.4852370000000 1.0
C      1  0.5385040000000  0.4640540000000  0.5633100000000 1.0
C      1  0.5055650000000  0.4620420000000  0.5222060000000 1.0
C      1  0.5349950000000  0.4918220000000  0.4918620000000 1.0
C      1  0.5002780000000  0.5590380000000  0.5111130000000 1.0
C      1  0.4602150000000  0.4173890000000  0.4912170000000 1.0
C      1  0.5225970000000  0.5009690000000  0.5469120000000 1.0
C      1  0.4160060000000  0.4516410000000  0.5305180000000 1.0
C      1  0.4935930000000  0.5007000000000  0.5901960000000 1.0
C      1  0.5464700000000  0.4389190000000  0.5538460000000 1.0
C      1  0.4816120000000  0.4758420000000  0.5091470000000 1.0
C      1  0.5644000000000  0.4425470000000  0.5305970000000 1.0
C      1  0.4719510000000  0.5807400000000  0.4761830000000 1.0
C      1  0.5384220000000  0.5794670000000  0.5182760000000 1.0
C      1  0.4284050000000  0.5167120000000  0.5318710000000 1.0
C      1  0.4330600000000  0.4762940000000  0.4400380000000 1.0
C      1  0.4549710000000  0.4587160000000  0.4315440000000 1.0
C      1  0.5462340000000  0.5138190000000  0.5070890000000 1.0
C      1  0.5124810000000  0.4295900000000  0.4474940000000 1.0
C      1  0.4624020000000  0.5137690000000  0.4699860000000 1.0
C      1  0.5549770000000  0.5416650000000  0.4926420000000 1.0
C      1  0.4243240000000  0.4462940000000  0.4770050000000 1.0
C      1  0.4388580000000  0.5440880000000  0.5324750000000 1.0
C      1  0.4352380000000  0.5216600000000  0.4570730000000 1.0
C      1  0.5940590000000  0.5138030000000  0.4794310000000 1.0
C      1  0.5880360000000  0.4937630000000  0.4598610000000 1.0
C      1  0.5845160000000  0.4691410000000  0.4733370000000 1.0
C      1  0.5770440000000  0.5353930000000  0.4743120000000 1.0
C      1  0.4655410000000  0.5023920000000  0.4217600000000 1.0
C      1  0.5697660000000  0.5044470000000  0.4403440000000 1.0
C      1  0.5558970000000  0.4868080000000  0.5649950000000 1.0
C      1  0.4168550000000  0.4840010000000  0.4915120000000 1.0
C      1  0.5758220000000  0.5130040000000  0.5272730000000 1.0
C      1  0.4392610000000  0.5031910000000  0.4340760000000 1.0
C      1  0.4249950000000  0.4579130000000  0.5040840000000 1.0
C      1  0.5028240000000  0.5395860000000  0.5711270000000 1.0
C      1  0.4901960000000  0.5374600000000  0.4961640000000 1.0
C      1  0.4551050000000  0.4467720000000  0.5616330000000 1.0
C      1  0.5122560000000  0.5424320000000  0.5313250000000 1.0
C      1  0.5753520000000  0.4888400000000  0.5443920000000 1.0
C      1  0.4595060000000  0.4342760000000  0.4458430000000 1.0
C      1  0.5938440000000  0.5033840000000  0.5054830000000 1.0
C      1  0.4706510000000  0.4267220000000  0.5478360000000 1.0
C      1  0.5510280000000  0.4344190000000  0.4792230000000 1.0
C      1  0.4841260000000  0.5230630000000  0.4262850000000 1.0
C      1  0.4836160000000  0.4103200000000  0.4773640000000 1.0
C      1  0.4720700000000  0.5036980000000  0.5472980000000 1.0
C      1  0.5642150000000  0.4523880000000  0.4613670000000 1.0
C      1  0.5103310000000  0.5713260000000  0.4260290000000 1.0
C      1  0.5404200000000  0.5118280000000  0.5695600000000 1.0
C      1  0.5072510000000  0.4157590000000  0.4921690000000 1.0
C      1  0.5495510000000  0.5386600000000  0.5599750000000 1.0
C      1  0.4982370000000  0.4308020000000  0.5172790000000 1.0
C      1  0.4418320000000  0.4954690000000  0.5511030000000 1.0
C      1  0.5578210000000  0.5586350000000  0.5172170000000 1.0
C      1  0.4376040000000  0.5623930000000  0.5087280000000 1.0
C      1  0.4196670000000  0.4719140000000  0.4649140000000 1.0
C      1  0.5429420000000  0.5478900000000  0.4465410000000 1.0
C      1  0.5112780000000  0.5221510000000  0.4173340000000 1.0
C      1  0.4178060000000  0.5089170000000  0.5051300000000 1.0
C      1  0.5116690000000  0.4735600000000  0.5511160000000 1.0
C      1  0.5129790000000  0.4991700000000  0.4754340000000 1.0
C      1  0.5230430000000  0.4958290000000  0.4178520000000 1.0
C      1  0.4739310000000  0.5310090000000  0.5654930000000 1.0
C      1  0.5055930000000  0.4727290000000  0.4194620000000 1.0
C      1  0.4760940000000  0.4756820000000  0.4197080000000 1.0
C      1  0.5200090000000  0.5740440000000  0.4925970000000 1.0
C      1  0.4478170000000  0.4927920000000  0.5811020000000 1.0
C      1  0.5672560000000  0.5404490000000  0.5382240000000 1.0
C      1  0.5496170000000  0.4425730000000  0.5063820000000 1.0
C      1  0.5264220000000  0.4231560000000  0.4720110000000 1.0
C      1  0.4680590000000  0.5214060000000  0.4991000000000 1.0
C      1  0.5308060000000  0.4664900000000  0.5069210000000 1.0
C      1  0.5810220000000  0.4657520000000  0.5280150000000 1.0
C      1  0.5250320000000  0.4213090000000  0.5552450000000 1.0
C      1  0.5067290000000  0.5294250000000  0.4736030000000 1.0
C      1  0.4583550000000  0.5516370000000  0.5522610000000 1.0
C      1  0.5245100000000  0.5469690000000  0.4246280000000 1.0
C      1  0.5227590000000  0.5172690000000  0.5240750000000 1.0
C      1  0.5241730000000  0.5542110000000  0.5564040000000 1.0
C      1  0.4695370000000  0.4866790000000  0.4668780000000 1.0
C      1  0.4635630000000  0.4676140000000  0.5781430000000 1.0
C      1  0.5494750000000  0.4882420000000  0.4285400000000 1.0
C      1  0.4998920000000  0.4198080000000  0.5462050000000 1.0
C      1  0.4766540000000  0.5024900000000  0.5187360000000 1.0
C      1  0.5907810000000  0.4749940000000  0.5024820000000 1.0
C      1  0.4817230000000  0.5339870000000  0.4536570000000 1.0
C      1  0.4665130000000  0.4298810000000  0.5176130000000 1.0
C      1  0.4959920000000  0.5903410000000  0.5456820000000 1.0
C      1  0.5234890000000  0.5819030000000  0.5445650000000 1.0
C      1  0.4396440000000  0.4637110000000  0.5431840000000 1.0
C      1  0.5218690000000  0.4516030000000  0.4321020000000 1.0
C      1  0.5482210000000  0.4615370000000  0.4386500000000 1.0
C      1  0.4594490000000  0.5805280000000  0.5024520000000 1.0
C      1  0.4909690000000  0.4786670000000  0.4801570000000 1.0
C      1  0.5321220000000  0.5503430000000  0.4747640000000 1.0
C      1  0.4729870000000  0.5760950000000  0.5489850000000 1.0
C      1  0.4673320000000  0.5129920000000  0.5898370000000 1.0
C      1  0.4552780000000  0.4574580000000  0.5158510000000 1.0
C      1  0.5063770000000  0.5860070000000  0.4464360000000 1.0
C      1  0.4172230000000  0.5254340000000  0.4825080000000 1.0
C      1  0.4880550000000  0.4812800000000  0.5679160000000 1.0
C      1  0.4812020000000  0.5802610000000  0.5213380000000 1.0
C      1  0.5154250000000  0.5174520000000  0.5833680000000 1.0
C      1  0.4381790000000  0.5513250000000  0.4595400000000 1.0
C      1  0.4444520000000  0.4292450000000  0.4701480000000 1.0
C      1  0.5003170000000  0.5876070000000  0.4731460000000 1.0
C      1  0.4848910000000  0.4217380000000  0.4512660000000 1.0
C      1  0.5657730000000  0.5319300000000  0.4483460000000 1.0
END
