TITL C-98126-1174-13 -0.0261337267479882 125000 -161.914411376299 0 0 25 (C1) n - 1
REM
REM in /rds/project/t2_vol4/rds-t2-cs072/BORA/CARBON/from-Arr/AIRSS/Generating-Clusters/GAP-ML-2020/Only-C1/SD-CG/HFTN-CG
REM
REM
REM
REM
REM
REM ./C.cell (11c1c37f851c82e70ff6c80c92926a4b)
REM AIRSS Version 0.9.1 bugfix July 2018 build 013d7b7c2542+ Fri, 06 Jul 2018 19:26:36 +0100
REM compiler GCC version 9.3.0
REM options -cpp -mtune=generic -march=x86-64 -g -O0
REM seed 1840738553 1497822421 1899658823 -1987612520 -35713844 2057280340 59414820 2028347365 -1417357545 51086609 1327671863 875582499 -1116546984 1053171228 -189208142 -74868078 -1189577560 1026654762 1120965096 1608371519 -316557189 1646321833 -797380260 1856261604 724525237 1378376497 216782163 1819483609 -1667814634 -1613888329 1648251428 -1921167500 1064170701
REM
CELL 1.54180   50.00000   50.00000   50.00000   90.00000   90.00000   90.00000
LATT -1
SFAC C  
C      1  0.5454310000000  0.5014440000000  0.5134940000000 1.0
C      1  0.4713480000000  0.4725260000000  0.5315150000000 1.0
C      1  0.5125200000000  0.5304060000000  0.4835000000000 1.0
C      1  0.5510490000000  0.4781090000000  0.5054120000000 1.0
C      1  0.5348460000000  0.5242810000000  0.5245420000000 1.0
C      1  0.4788510000000  0.4975530000000  0.5409300000000 1.0
C      1  0.5002000000000  0.5044820000000  0.5574960000000 1.0
C      1  0.4719110000000  0.5129120000000  0.4984270000000 1.0
C      1  0.5034800000000  0.4573870000000  0.4784540000000 1.0
C      1  0.4993760000000  0.5065190000000  0.4925360000000 1.0
C      1  0.4883290000000  0.4921830000000  0.4513150000000 1.0
C      1  0.5061680000000  0.5607600000000  0.5219200000000 1.0
C      1  0.4935650000000  0.5172210000000  0.4396010000000 1.0
C      1  0.4724160000000  0.5218950000000  0.5253070000000 1.0
C      1  0.4665210000000  0.4808400000000  0.4650090000000 1.0
C      1  0.5437770000000  0.4547130000000  0.4957860000000 1.0
C      1  0.5141760000000  0.5242980000000  0.5452250000000 1.0
C      1  0.5250350000000  0.4409240000000  0.4841580000000 1.0
C      1  0.5046120000000  0.5316030000000  0.4576090000000 1.0
C      1  0.4756840000000  0.4578040000000  0.4811890000000 1.0
C      1  0.4643880000000  0.4691610000000  0.5059030000000 1.0
C      1  0.5055740000000  0.4859560000000  0.4728300000000 1.0
C      1  0.4549940000000  0.4923260000000  0.4893160000000 1.0
C      1  0.5226990000000  0.5446660000000  0.5057530000000 1.0
C      1  0.4930500000000  0.5400330000000  0.5327730000000 1.0
END
