TITL C-98981-2945-6 65.0797786462401 125000 -129.240795102714 0 0 20 (C1) n - 1
REM
REM in /rds/project/t2_vol4/rds-t2-cs072/BORA/CARBON/from-Arr/AIRSS/Generating-Clusters/GAP-ML-2020/Only-C1/SD-CG/HFTN-CG
REM
REM
REM
REM
REM
REM ./C.cell (11c1c37f851c82e70ff6c80c92926a4b)
REM AIRSS Version 0.9.1 bugfix July 2018 build 013d7b7c2542+ Fri, 06 Jul 2018 19:26:36 +0100
REM compiler GCC version 9.3.0
REM options -cpp -mtune=generic -march=x86-64 -g -O0
REM seed -981125773 -72087590 -217253779 1680492839 -143626025 -1573157726 187299974 -406532358 1168888178 -452316294 907413481 -356137024 271306372 1012401269 -1908783286 -823923958 -385604741 774225793 -1120234375 634205703 -347370531 1127724707 -1404625807 -8824678 -830739644 -1576156327 325807953 1874963780 982368393 -2119338188 -1318298442 -747947356 -1148564465
REM
CELL 1.54180   50.00000   50.00000   50.00000   90.00000   90.00000   90.00000
LATT -1
SFAC C  
C      1  0.4940080000000  0.4640660000000  0.4865620000000 1.0
C      1  0.5330260000000  0.5268460000000  0.4936750000000 1.0
C      1  0.4817770000000  0.5415120000000  0.4800640000000 1.0
C      1  0.4835720000000  0.4709950000000  0.4610180000000 1.0
C      1  0.4913400000000  0.5368530000000  0.5282140000000 1.0
C      1  0.4723830000000  0.4967980000000  0.4627770000000 1.0
C      1  0.5158370000000  0.5072650000000  0.4838460000000 1.0
C      1  0.5631340000000  0.4813440000000  0.5152460000000 1.0
C      1  0.4749740000000  0.4559960000000  0.5060310000000 1.0
C      1  0.4903740000000  0.5158800000000  0.4730730000000 1.0
C      1  0.5688620000000  0.5075190000000  0.5174860000000 1.0
C      1  0.4354460000000  0.4834500000000  0.4926150000000 1.0
C      1  0.5541400000000  0.5275670000000  0.5080840000000 1.0
C      1  0.5428300000000  0.4715180000000  0.5027990000000 1.0
C      1  0.4852160000000  0.5459820000000  0.5051690000000 1.0
C      1  0.4514760000000  0.4665350000000  0.5057910000000 1.0
C      1  0.4998780000000  0.5030360000000  0.5663120000000 1.0
C      1  0.4967270000000  0.5203890000000  0.5475150000000 1.0
C      1  0.4456440000000  0.4975200000000  0.4732500000000 1.0
C      1  0.5193560000000  0.4789290000000  0.4904750000000 1.0
END
