TITL C-98993-2887-1 -0.0731165975405414 125000 -410.993840961023 0 0 61 (C1) n - 1
REM
REM in /rds/project/t2_vol4/rds-t2-cs072/BORA/CARBON/from-Arr/AIRSS/Generating-Clusters/GAP-ML-2020/Only-C1/SD-CG/HFTN-CG
REM
REM
REM
REM
REM
REM ./C.cell (11c1c37f851c82e70ff6c80c92926a4b)
REM AIRSS Version 0.9.1 bugfix July 2018 build 013d7b7c2542+ Fri, 06 Jul 2018 19:26:36 +0100
REM compiler GCC version 9.3.0
REM options -cpp -mtune=generic -march=x86-64 -g -O0
REM seed 1583139060 1520004741 -2012594568 1058799178 1924961779 -780392914 1766594911 124632409 1934706589 -1839259367 -1876188254 637111174 1361915245 -601234685 -1935464750 -2138505223 534258128 -541321269 -1449537224 2143606818 -1385126736 -1572608625 -97921196 -1400814247 1134451168 -145998194 -649663664 -1458551177 -1565313457 1115320779 -97189241 366956857 -971496865
REM
CELL 1.54180   50.00000   50.00000   50.00000   90.00000   90.00000   90.00000
LATT -1
SFAC C  
C      1  0.5519410000000  0.4550930000000  0.5351870000000 1.0
C      1  0.5736270000000  0.4827110000000  0.4811420000000 1.0
C      1  0.4678750000000  0.5182890000000  0.4597320000000 1.0
C      1  0.5302840000000  0.4527170000000  0.4934380000000 1.0
C      1  0.4335280000000  0.5295700000000  0.4866760000000 1.0
C      1  0.5562510000000  0.4483440000000  0.5069550000000 1.0
C      1  0.4681410000000  0.5001000000000  0.5057510000000 1.0
C      1  0.5445040000000  0.5203140000000  0.5418410000000 1.0
C      1  0.4419390000000  0.4619430000000  0.4997460000000 1.0
C      1  0.4998790000000  0.4893610000000  0.4315280000000 1.0
C      1  0.5062750000000  0.5181460000000  0.5700550000000 1.0
C      1  0.5211520000000  0.5177650000000  0.4638430000000 1.0
C      1  0.5597090000000  0.4863020000000  0.4566550000000 1.0
C      1  0.4985010000000  0.5316260000000  0.5276990000000 1.0
C      1  0.5092200000000  0.4986650000000  0.4838080000000 1.0
C      1  0.5195190000000  0.5319120000000  0.5486640000000 1.0
C      1  0.5501500000000  0.5010880000000  0.5177800000000 1.0
C      1  0.4905250000000  0.5743890000000  0.5133730000000 1.0
C      1  0.4923010000000  0.5564560000000  0.4682320000000 1.0
C      1  0.4810060000000  0.4995380000000  0.4813520000000 1.0
C      1  0.4857050000000  0.4379130000000  0.4835480000000 1.0
C      1  0.4335160000000  0.4889030000000  0.4569990000000 1.0
C      1  0.4661570000000  0.4476460000000  0.5029970000000 1.0
C      1  0.5191760000000  0.5473540000000  0.4796150000000 1.0
C      1  0.4749540000000  0.5456570000000  0.5438110000000 1.0
C      1  0.5634390000000  0.5292780000000  0.4772130000000 1.0
C      1  0.5304730000000  0.4489530000000  0.5508750000000 1.0
C      1  0.5403170000000  0.4674870000000  0.4450840000000 1.0
C      1  0.4514050000000  0.5486880000000  0.4996590000000 1.0
C      1  0.5593910000000  0.4822870000000  0.5394850000000 1.0
C      1  0.5503200000000  0.5130670000000  0.4571060000000 1.0
C      1  0.5780240000000  0.4584100000000  0.4934760000000 1.0
C      1  0.4403530000000  0.4875830000000  0.5137410000000 1.0
C      1  0.5480860000000  0.5521470000000  0.4779070000000 1.0
C      1  0.4540720000000  0.4688190000000  0.4486240000000 1.0
C      1  0.5254700000000  0.4519610000000  0.4639480000000 1.0
C      1  0.5133910000000  0.4712640000000  0.5554090000000 1.0
C      1  0.5231600000000  0.4840940000000  0.5054350000000 1.0
C      1  0.5488600000000  0.4992690000000  0.5607220000000 1.0
C      1  0.4401150000000  0.5158490000000  0.4626450000000 1.0
C      1  0.4235240000000  0.5117920000000  0.5069260000000 1.0
C      1  0.4820790000000  0.4672570000000  0.4430720000000 1.0
C      1  0.5067860000000  0.4384840000000  0.5032020000000 1.0
C      1  0.4748320000000  0.5638210000000  0.4909810000000 1.0
C      1  0.4507170000000  0.5418340000000  0.5273650000000 1.0
C      1  0.4836730000000  0.5378290000000  0.4485070000000 1.0
C      1  0.4970880000000  0.4489350000000  0.4597470000000 1.0
C      1  0.5693480000000  0.5080350000000  0.4965430000000 1.0
C      1  0.4663450000000  0.5023340000000  0.5535560000000 1.0
C      1  0.4889560000000  0.4517140000000  0.5209310000000 1.0
C      1  0.4851290000000  0.5023770000000  0.5287620000000 1.0
C      1  0.4376840000000  0.4659570000000  0.4713490000000 1.0
C      1  0.5216260000000  0.4940460000000  0.5719850000000 1.0
C      1  0.5242590000000  0.4788720000000  0.4258840000000 1.0
C      1  0.5027130000000  0.4786530000000  0.5287900000000 1.0
C      1  0.4845040000000  0.5727820000000  0.5399270000000 1.0
C      1  0.4404680000000  0.4984850000000  0.5430370000000 1.0
C      1  0.4305110000000  0.5230800000000  0.5330310000000 1.0
C      1  0.5021290000000  0.5173820000000  0.4411310000000 1.0
C      1  0.5068070000000  0.5513680000000  0.5069160000000 1.0
C      1  0.4781100000000  0.5240040000000  0.5666020000000 1.0
END
