TITL C-98975-6211-2 -0.0591654457879381 125000 -423.333148570893 0 0 61 (C1) n - 1
REM
REM in /rds/project/t2_vol4/rds-t2-cs072/BORA/CARBON/from-Arr/AIRSS/Generating-Clusters/GAP-ML-2020/Only-C1/SD-CG/HFTN-CG
REM
REM
REM
REM
REM
REM ./C.cell (11c1c37f851c82e70ff6c80c92926a4b)
REM AIRSS Version 0.9.1 bugfix July 2018 build 013d7b7c2542+ Fri, 06 Jul 2018 19:26:36 +0100
REM compiler GCC version 9.3.0
REM options -cpp -mtune=generic -march=x86-64 -g -O0
REM seed -1680292593 -708674178 -761173357 -2103611885 -272396906 1783033221 -2099882072 48932248 456658149 84215925 26357825 -326327851 -182219746 2038983837 670064123 -867109160 -1753171849 231535569 563596201 -2124723578 2876243 626839483 1920024466 1696423533 1909209760 -181139255 -38351967 854779878 -1362504301 -1029376131 -1251584789 844160840 1313682646
REM
CELL 1.54180   50.00000   50.00000   50.00000   90.00000   90.00000   90.00000
LATT -1
SFAC C  
C      1  0.4398580000000  0.5129570000000  0.4896860000000 1.0
C      1  0.4817720000000  0.5400380000000  0.5636130000000 1.0
C      1  0.5358100000000  0.4738640000000  0.5353140000000 1.0
C      1  0.4746260000000  0.4368230000000  0.5298510000000 1.0
C      1  0.4924750000000  0.4626320000000  0.4994440000000 1.0
C      1  0.5051180000000  0.5498770000000  0.5494250000000 1.0
C      1  0.4382170000000  0.5097400000000  0.5192520000000 1.0
C      1  0.4541340000000  0.4688780000000  0.4633940000000 1.0
C      1  0.5069070000000  0.5743650000000  0.4632630000000 1.0
C      1  0.5223790000000  0.4518260000000  0.4609160000000 1.0
C      1  0.5589600000000  0.5246200000000  0.4871320000000 1.0
C      1  0.4676150000000  0.5605900000000  0.4854310000000 1.0
C      1  0.4534020000000  0.4482830000000  0.4841830000000 1.0
C      1  0.4774190000000  0.4367240000000  0.4985410000000 1.0
C      1  0.5187070000000  0.4550520000000  0.5193730000000 1.0
C      1  0.5338040000000  0.5532870000000  0.5130570000000 1.0
C      1  0.5265120000000  0.5303670000000  0.5527360000000 1.0
C      1  0.4544750000000  0.5350810000000  0.4764770000000 1.0
C      1  0.4804990000000  0.5636860000000  0.4598050000000 1.0
C      1  0.5426280000000  0.5129440000000  0.4416540000000 1.0
C      1  0.4792250000000  0.4756620000000  0.4529020000000 1.0
C      1  0.5443670000000  0.5327370000000  0.5301300000000 1.0
C      1  0.5082130000000  0.5115260000000  0.4962070000000 1.0
C      1  0.5016660000000  0.4421840000000  0.5398240000000 1.0
C      1  0.4366140000000  0.4867680000000  0.4784060000000 1.0
C      1  0.4581420000000  0.4555320000000  0.5420850000000 1.0
C      1  0.5558390000000  0.4853430000000  0.5180640000000 1.0
C      1  0.5369620000000  0.4464250000000  0.4980800000000 1.0
C      1  0.4863550000000  0.5094050000000  0.5103850000000 1.0
C      1  0.4865950000000  0.4976190000000  0.5346270000000 1.0
C      1  0.5225990000000  0.4300540000000  0.4784570000000 1.0
C      1  0.5587650000000  0.5136600000000  0.5141280000000 1.0
C      1  0.4470780000000  0.4765350000000  0.5220210000000 1.0
C      1  0.4900180000000  0.4940620000000  0.4327940000000 1.0
C      1  0.4359540000000  0.4648270000000  0.4986760000000 1.0
C      1  0.5216850000000  0.5322470000000  0.4440210000000 1.0
C      1  0.5269860000000  0.5537350000000  0.4620850000000 1.0
C      1  0.5144250000000  0.4962460000000  0.4761240000000 1.0
C      1  0.4724970000000  0.5373500000000  0.4520720000000 1.0
C      1  0.5599200000000  0.4791400000000  0.4690120000000 1.0
C      1  0.5014000000000  0.4596690000000  0.5622200000000 1.0
C      1  0.4734750000000  0.4947880000000  0.5619120000000 1.0
C      1  0.5115060000000  0.4845170000000  0.4186490000000 1.0
C      1  0.4978560000000  0.4204610000000  0.4867570000000 1.0
C      1  0.4935300000000  0.5223250000000  0.4394120000000 1.0
C      1  0.4756280000000  0.4821490000000  0.5122500000000 1.0
C      1  0.4893880000000  0.5732600000000  0.5043400000000 1.0
C      1  0.5084630000000  0.5627740000000  0.5236140000000 1.0
C      1  0.4740320000000  0.4667430000000  0.5649180000000 1.0
C      1  0.5165990000000  0.5078740000000  0.5678330000000 1.0
C      1  0.5421110000000  0.5476660000000  0.4859500000000 1.0
C      1  0.5562980000000  0.4678270000000  0.4950610000000 1.0
C      1  0.5600840000000  0.5077300000000  0.4645300000000 1.0
C      1  0.5344340000000  0.4872360000000  0.4319670000000 1.0
C      1  0.5437410000000  0.4664390000000  0.4492480000000 1.0
C      1  0.4547550000000  0.5422460000000  0.5559290000000 1.0
C      1  0.5221800000000  0.4805000000000  0.5595720000000 1.0
C      1  0.4407590000000  0.5275650000000  0.5398570000000 1.0
C      1  0.5012900000000  0.4709340000000  0.4720030000000 1.0
C      1  0.4895420000000  0.5142710000000  0.5752830000000 1.0
C      1  0.5037070000000  0.5903380000000  0.4860460000000 1.0
END
