TITL C-98152-1164-11 -0.0327993555644048 125000 -332.028731094682 0 0 50 (C1) n - 1
REM
REM in /rds/project/t2_vol4/rds-t2-cs072/BORA/CARBON/from-Arr/AIRSS/Generating-Clusters/GAP-ML-2020/Only-C1/SD-CG/HFTN-CG
REM
REM
REM
REM
REM
REM ./C.cell (11c1c37f851c82e70ff6c80c92926a4b)
REM AIRSS Version 0.9.1 bugfix July 2018 build 013d7b7c2542+ Fri, 06 Jul 2018 19:26:36 +0100
REM compiler GCC version 9.3.0
REM options -cpp -mtune=generic -march=x86-64 -g -O0
REM seed -1798515412 68844744 817776461 -199221424 314402432 -1249542126 1331942183 -2047428251 1255150393 -1922765544 2121800466 -2038916850 1618646925 2015000405 -998759011 1967778290 1453323278 -833774315 1498257405 -502407136 1999145413 27233047 -651424411 776641275 1372424401 2097289240 -1846390493 307640711 -1366039907 -747060699 155843838 1919074953 -1002349486
REM
CELL 1.54180   50.00000   50.00000   50.00000   90.00000   90.00000   90.00000
LATT -1
SFAC C  
C      1  0.4647740000000  0.4768050000000  0.5691930000000 1.0
C      1  0.4403400000000  0.4972390000000  0.5391320000000 1.0
C      1  0.5471410000000  0.5416950000000  0.5370930000000 1.0
C      1  0.4839170000000  0.4696300000000  0.5001090000000 1.0
C      1  0.4767420000000  0.5198460000000  0.4425890000000 1.0
C      1  0.4722080000000  0.5230840000000  0.5132500000000 1.0
C      1  0.4920970000000  0.4912050000000  0.4812880000000 1.0
C      1  0.4460130000000  0.4993440000000  0.4928770000000 1.0
C      1  0.5192210000000  0.5005540000000  0.4901710000000 1.0
C      1  0.5022450000000  0.5389170000000  0.5542260000000 1.0
C      1  0.4918840000000  0.4415280000000  0.4913450000000 1.0
C      1  0.4457130000000  0.4698630000000  0.5278710000000 1.0
C      1  0.5397440000000  0.5076880000000  0.5590270000000 1.0
C      1  0.5223360000000  0.5351860000000  0.4527400000000 1.0
C      1  0.4589040000000  0.4732980000000  0.4486460000000 1.0
C      1  0.4694760000000  0.4650230000000  0.5446650000000 1.0
C      1  0.4822570000000  0.5502310000000  0.5094910000000 1.0
C      1  0.4609370000000  0.5027230000000  0.5619630000000 1.0
C      1  0.5657120000000  0.5256250000000  0.5245480000000 1.0
C      1  0.5381600000000  0.5225360000000  0.4745270000000 1.0
C      1  0.5131830000000  0.5563350000000  0.4709390000000 1.0
C      1  0.4438700000000  0.5137080000000  0.5175670000000 1.0
C      1  0.5179220000000  0.4910340000000  0.4393930000000 1.0
C      1  0.5620670000000  0.4991730000000  0.5185660000000 1.0
C      1  0.5078590000000  0.4652040000000  0.4403120000000 1.0
C      1  0.4720790000000  0.5345670000000  0.4668160000000 1.0
C      1  0.4916700000000  0.5063560000000  0.5290740000000 1.0
C      1  0.5027170000000  0.5537000000000  0.5285800000000 1.0
C      1  0.4710480000000  0.5125610000000  0.4852370000000 1.0
C      1  0.5149990000000  0.4311160000000  0.5014600000000 1.0
C      1  0.5328770000000  0.5477130000000  0.4891670000000 1.0
C      1  0.5371670000000  0.4751540000000  0.4858160000000 1.0
C      1  0.5266630000000  0.5427140000000  0.5165120000000 1.0
C      1  0.5214040000000  0.4691650000000  0.5293540000000 1.0
C      1  0.5185540000000  0.5107310000000  0.5173490000000 1.0
C      1  0.5297430000000  0.4725470000000  0.4564200000000 1.0
C      1  0.5303810000000  0.5326630000000  0.5592130000000 1.0
C      1  0.4925550000000  0.4762490000000  0.5276420000000 1.0
C      1  0.4530750000000  0.4715140000000  0.4989500000000 1.0
C      1  0.4849050000000  0.5172540000000  0.5550220000000 1.0
C      1  0.4521120000000  0.4582030000000  0.4730310000000 1.0
C      1  0.4825850000000  0.4538380000000  0.4443050000000 1.0
C      1  0.4600900000000  0.4978150000000  0.4384280000000 1.0
C      1  0.5632130000000  0.5100890000000  0.4729050000000 1.0
C      1  0.5374560000000  0.4928300000000  0.5345660000000 1.0
C      1  0.5301680000000  0.4536510000000  0.5075290000000 1.0
C      1  0.5056280000000  0.5171210000000  0.4404310000000 1.0
C      1  0.4751730000000  0.4398300000000  0.4680540000000 1.0
C      1  0.5621140000000  0.4896580000000  0.4921190000000 1.0
C      1  0.4869050000000  0.5554880000000  0.4804940000000 1.0
END
