TITL C-98974-2854-3 0.173497453905885 125000 -466.978533600602 0 0 66 (C1) n - 1
REM
REM in /rds/project/t2_vol4/rds-t2-cs072/BORA/CARBON/from-Arr/AIRSS/Generating-Clusters/GAP-ML-2020/Only-C1/SD-CG/HFTN-CG
REM
REM
REM
REM
REM
REM ./C.cell (11c1c37f851c82e70ff6c80c92926a4b)
REM AIRSS Version 0.9.1 bugfix July 2018 build 013d7b7c2542+ Fri, 06 Jul 2018 19:26:36 +0100
REM compiler GCC version 9.3.0
REM options -cpp -mtune=generic -march=x86-64 -g -O0
REM seed -1041313239 -1484261340 -332777687 -903920283 -1654600447 1423065929 738129521 -1505744721 -1348504184 -1122432671 833403574 -750054506 -1751178698 1803349285 1387799620 -878655483 2025213641 1691856609 -1995979059 -95293693 2034010330 -1501263779 627762671 238473444 1070674172 1314480344 464912311 1319003774 426774232 -588338470 -1260929627 1837478846 -947587775
REM
CELL 1.54180   50.00000   50.00000   50.00000   90.00000   90.00000   90.00000
LATT -1
SFAC C  
C      1  0.5102540000000  0.5260900000000  0.5287550000000 1.0
C      1  0.5068690000000  0.5701300000000  0.5374520000000 1.0
C      1  0.4695810000000  0.5370820000000  0.4630960000000 1.0
C      1  0.4874280000000  0.4624460000000  0.4449810000000 1.0
C      1  0.5406950000000  0.5333230000000  0.5397050000000 1.0
C      1  0.5103920000000  0.5033310000000  0.5740300000000 1.0
C      1  0.5172560000000  0.5788370000000  0.4921940000000 1.0
C      1  0.5476080000000  0.4510790000000  0.4674200000000 1.0
C      1  0.5357900000000  0.4386320000000  0.5199970000000 1.0
C      1  0.5504050000000  0.5358990000000  0.4694600000000 1.0
C      1  0.4731460000000  0.5348290000000  0.5575380000000 1.0
C      1  0.5061270000000  0.4957560000000  0.5287200000000 1.0
C      1  0.5547990000000  0.5453850000000  0.4959660000000 1.0
C      1  0.4995370000000  0.5097790000000  0.4868300000000 1.0
C      1  0.5572220000000  0.4566760000000  0.5141030000000 1.0
C      1  0.4499680000000  0.4562160000000  0.5229760000000 1.0
C      1  0.4487530000000  0.4993050000000  0.5399040000000 1.0
C      1  0.5671970000000  0.5016490000000  0.5113230000000 1.0
C      1  0.4901530000000  0.5536090000000  0.4548710000000 1.0
C      1  0.4817810000000  0.5092910000000  0.4648180000000 1.0
C      1  0.5318880000000  0.4640550000000  0.5621600000000 1.0
C      1  0.5096340000000  0.5085120000000  0.4360500000000 1.0
C      1  0.5403060000000  0.5675630000000  0.5063060000000 1.0
C      1  0.4545090000000  0.5277980000000  0.5364050000000 1.0
C      1  0.5150880000000  0.4314990000000  0.5004490000000 1.0
C      1  0.5233330000000  0.4435480000000  0.5447510000000 1.0
C      1  0.5069080000000  0.5328480000000  0.5005250000000 1.0
C      1  0.5350610000000  0.4674210000000  0.4470910000000 1.0
C      1  0.5340230000000  0.5625390000000  0.5333940000000 1.0
C      1  0.5365610000000  0.5115010000000  0.5608880000000 1.0
C      1  0.4674820000000  0.4884880000000  0.5597380000000 1.0
C      1  0.4293290000000  0.4872070000000  0.4938020000000 1.0
C      1  0.4312600000000  0.5024800000000  0.4490000000000 1.0
C      1  0.5087400000000  0.4750420000000  0.5733870000000 1.0
C      1  0.5102820000000  0.5363050000000  0.4403680000000 1.0
C      1  0.4335550000000  0.5110050000000  0.4771760000000 1.0
C      1  0.5643740000000  0.4923180000000  0.4843810000000 1.0
C      1  0.4715710000000  0.5659740000000  0.5077110000000 1.0
C      1  0.5530950000000  0.5080430000000  0.4635360000000 1.0
C      1  0.5123410000000  0.5687650000000  0.4665860000000 1.0
C      1  0.4621610000000  0.4407810000000  0.5037300000000 1.0
C      1  0.5489260000000  0.4857500000000  0.5539910000000 1.0
C      1  0.4275080000000  0.4648610000000  0.4768840000000 1.0
C      1  0.4225680000000  0.4748910000000  0.4501110000000 1.0
C      1  0.4384120000000  0.4812800000000  0.5205020000000 1.0
C      1  0.4826070000000  0.5105580000000  0.5699490000000 1.0
C      1  0.5012950000000  0.4886160000000  0.5034280000000 1.0
C      1  0.4554110000000  0.5440740000000  0.5107630000000 1.0
C      1  0.4961570000000  0.5468840000000  0.5485530000000 1.0
C      1  0.5598560000000  0.5276000000000  0.5176570000000 1.0
C      1  0.4437710000000  0.4667900000000  0.4341910000000 1.0
C      1  0.5613030000000  0.4642450000000  0.4869120000000 1.0
C      1  0.4543930000000  0.4937710000000  0.4309060000000 1.0
C      1  0.5623840000000  0.4802550000000  0.5297660000000 1.0
C      1  0.4621870000000  0.4512970000000  0.4511380000000 1.0
C      1  0.5347940000000  0.4952060000000  0.4449200000000 1.0
C      1  0.5116190000000  0.4507410000000  0.4500370000000 1.0
C      1  0.5311580000000  0.5497960000000  0.4542900000000 1.0
C      1  0.4952650000000  0.5779270000000  0.5121460000000 1.0
C      1  0.4886570000000  0.4342130000000  0.5143890000000 1.0
C      1  0.4499930000000  0.4469530000000  0.4774600000000 1.0
C      1  0.4489490000000  0.5343280000000  0.4839280000000 1.0
C      1  0.4943040000000  0.4433390000000  0.5417440000000 1.0
C      1  0.4849630000000  0.4646310000000  0.5605510000000 1.0
C      1  0.4839340000000  0.4925220000000  0.4407820000000 1.0
C      1  0.5231200000000  0.4364400000000  0.4734230000000 1.0
END
