TITL C-98124-1203-3 79.7601670535279 125000 -837.434620790556 0 0 120 (C1) n - 1
REM
REM in /rds/project/t2_vol4/rds-t2-cs072/BORA/CARBON/from-Arr/AIRSS/Generating-Clusters/GAP-ML-2020/Only-C1/SD-CG/HFTN-CG
REM
REM
REM
REM
REM
REM ./C.cell (11c1c37f851c82e70ff6c80c92926a4b)
REM AIRSS Version 0.9.1 bugfix July 2018 build 013d7b7c2542+ Fri, 06 Jul 2018 19:26:36 +0100
REM compiler GCC version 9.3.0
REM options -cpp -mtune=generic -march=x86-64 -g -O0
REM seed 773379332 -1362529159 -831269099 1498515753 1759850036 163241216 701189909 1622802887 2146875893 1346451230 -258573809 -931519192 -1051847168 -1868425896 1561456400 -1710089887 -1944152280 1411187757 -1962439586 -544254257 -1767208089 260729437 92765406 1022120909 626149860 -506555380 1846273956 198541670 -1873938746 1230675432 -1057373554 703317106 471980135
REM
CELL 1.54180   50.00000   50.00000   50.00000   90.00000   90.00000   90.00000
LATT -1
SFAC C  
C      1  0.4252410000000  0.5012490000000  0.4635210000000 1.0
C      1  0.4660400000000  0.5003600000000  0.4010630000000 1.0
C      1  0.5165840000000  0.5239910000000  0.5938210000000 1.0
C      1  0.5425060000000  0.5069430000000  0.4786680000000 1.0
C      1  0.4518080000000  0.5361650000000  0.4235220000000 1.0
C      1  0.5683620000000  0.5494700000000  0.4591850000000 1.0
C      1  0.5284440000000  0.5540890000000  0.4187140000000 1.0
C      1  0.4932830000000  0.5885880000000  0.4652100000000 1.0
C      1  0.4907620000000  0.5270000000000  0.5828530000000 1.0
C      1  0.4548220000000  0.5046950000000  0.4978340000000 1.0
C      1  0.5819460000000  0.5344090000000  0.4803310000000 1.0
C      1  0.4861730000000  0.4803400000000  0.4035280000000 1.0
C      1  0.4928570000000  0.4531090000000  0.5476560000000 1.0
C      1  0.4250090000000  0.4467520000000  0.5147330000000 1.0
C      1  0.5701150000000  0.5467830000000  0.5261280000000 1.0
C      1  0.4459370000000  0.4243480000000  0.4781190000000 1.0
C      1  0.4305050000000  0.4288740000000  0.5349760000000 1.0
C      1  0.5053790000000  0.4907920000000  0.5025340000000 1.0
C      1  0.4916880000000  0.5882240000000  0.5106220000000 1.0
C      1  0.5629760000000  0.4635970000000  0.5642010000000 1.0
C      1  0.5187620000000  0.4658560000000  0.5036270000000 1.0
C      1  0.5339690000000  0.5047900000000  0.4089230000000 1.0
C      1  0.5242790000000  0.4635380000000  0.4339770000000 1.0
C      1  0.4377120000000  0.4874260000000  0.4413740000000 1.0
C      1  0.4447160000000  0.4469600000000  0.4939360000000 1.0
C      1  0.4856020000000  0.4927960000000  0.4572280000000 1.0
C      1  0.5080400000000  0.3894080000000  0.4861470000000 1.0
C      1  0.4729830000000  0.5494160000000  0.4900960000000 1.0
C      1  0.4722870000000  0.4599440000000  0.4988350000000 1.0
C      1  0.4858250000000  0.4019000000000  0.4760700000000 1.0
C      1  0.5208460000000  0.4883260000000  0.5448760000000 1.0
C      1  0.5414950000000  0.4165100000000  0.5141780000000 1.0
C      1  0.5737260000000  0.5088130000000  0.4731230000000 1.0
C      1  0.4861890000000  0.5210070000000  0.3966970000000 1.0
C      1  0.5368570000000  0.4541490000000  0.5756120000000 1.0
C      1  0.5485710000000  0.5674730000000  0.5170400000000 1.0
C      1  0.4527690000000  0.4854540000000  0.5453920000000 1.0
C      1  0.4947740000000  0.4938670000000  0.5299820000000 1.0
C      1  0.4901410000000  0.4716960000000  0.5728410000000 1.0
C      1  0.5662430000000  0.4540490000000  0.5379350000000 1.0
C      1  0.5189640000000  0.4773130000000  0.5783250000000 1.0
C      1  0.5098810000000  0.5880150000000  0.4887030000000 1.0
C      1  0.5448350000000  0.5311910000000  0.4162480000000 1.0
C      1  0.5313890000000  0.4993360000000  0.5943540000000 1.0
C      1  0.5586810000000  0.5058980000000  0.5863990000000 1.0
C      1  0.5854930000000  0.4989270000000  0.5204800000000 1.0
C      1  0.4775300000000  0.5441160000000  0.4106980000000 1.0
C      1  0.4317480000000  0.5305420000000  0.4649070000000 1.0
C      1  0.4387170000000  0.5504670000000  0.4445650000000 1.0
C      1  0.5340690000000  0.5119140000000  0.5350620000000 1.0
C      1  0.4472130000000  0.5073450000000  0.4205890000000 1.0
C      1  0.4511320000000  0.4597900000000  0.4379420000000 1.0
C      1  0.4473880000000  0.5356000000000  0.5714390000000 1.0
C      1  0.4751540000000  0.4606980000000  0.4215040000000 1.0
C      1  0.4839160000000  0.5658410000000  0.5537180000000 1.0
C      1  0.4620680000000  0.4047150000000  0.4920180000000 1.0
C      1  0.4996570000000  0.5609650000000  0.4190920000000 1.0
C      1  0.5280700000000  0.5675200000000  0.5366370000000 1.0
C      1  0.4559980000000  0.4368730000000  0.4543920000000 1.0
C      1  0.5222300000000  0.4461090000000  0.4821900000000 1.0
C      1  0.4985570000000  0.4234620000000  0.5529400000000 1.0
C      1  0.4253810000000  0.5356640000000  0.5528530000000 1.0
C      1  0.5342790000000  0.5417760000000  0.5784680000000 1.0
C      1  0.5287180000000  0.5118990000000  0.5042770000000 1.0
C      1  0.4458890000000  0.5760100000000  0.4533380000000 1.0
C      1  0.4722600000000  0.4161230000000  0.5643160000000 1.0
C      1  0.5380400000000  0.5769960000000  0.4901780000000 1.0
C      1  0.4914340000000  0.5369520000000  0.5067460000000 1.0
C      1  0.5426670000000  0.4353350000000  0.5356900000000 1.0
C      1  0.4177430000000  0.4741790000000  0.5146820000000 1.0
C      1  0.4382920000000  0.5661870000000  0.5131280000000 1.0
C      1  0.4642220000000  0.5769980000000  0.5000680000000 1.0
C      1  0.5481940000000  0.4344380000000  0.4942420000000 1.0
C      1  0.5079800000000  0.5017420000000  0.3988160000000 1.0
C      1  0.5736830000000  0.4890620000000  0.5691260000000 1.0
C      1  0.4964590000000  0.4703720000000  0.4367480000000 1.0
C      1  0.4532350000000  0.4149980000000  0.5429590000000 1.0
C      1  0.5763820000000  0.4700180000000  0.5150140000000 1.0
C      1  0.5255590000000  0.5166480000000  0.4598310000000 1.0
C      1  0.5660360000000  0.5314760000000  0.4358470000000 1.0
C      1  0.5016150000000  0.5798540000000  0.5355390000000 1.0
C      1  0.4929760000000  0.4414200000000  0.4848530000000 1.0
C      1  0.4779950000000  0.4875500000000  0.4862090000000 1.0
C      1  0.4993610000000  0.5162400000000  0.4577590000000 1.0
C      1  0.5665750000000  0.4810120000000  0.4400640000000 1.0
C      1  0.5201070000000  0.4595170000000  0.5318100000000 1.0
C      1  0.5242010000000  0.5417730000000  0.5509090000000 1.0
C      1  0.4568500000000  0.5619220000000  0.5599290000000 1.0
C      1  0.4142410000000  0.5152140000000  0.5366950000000 1.0
C      1  0.4351470000000  0.5610000000000  0.5405190000000 1.0
C      1  0.4693880000000  0.4068700000000  0.5196890000000 1.0
C      1  0.4841990000000  0.5218320000000  0.5309010000000 1.0
C      1  0.5050990000000  0.5797550000000  0.4412390000000 1.0
C      1  0.5358360000000  0.4525030000000  0.4567970000000 1.0
C      1  0.5179330000000  0.3998590000000  0.5102310000000 1.0
C      1  0.4242270000000  0.4962630000000  0.4939710000000 1.0
C      1  0.4230820000000  0.4875290000000  0.5393110000000 1.0
C      1  0.5495530000000  0.5703800000000  0.4639970000000 1.0
C      1  0.5616570000000  0.4620830000000  0.4623740000000 1.0
C      1  0.4833030000000  0.4273050000000  0.4607730000000 1.0
C      1  0.4137300000000  0.5208630000000  0.5093730000000 1.0
C      1  0.5761670000000  0.5063720000000  0.4449280000000 1.0
C      1  0.5437320000000  0.4812740000000  0.4223910000000 1.0
C      1  0.4589360000000  0.5101270000000  0.5271720000000 1.0
C      1  0.4646730000000  0.5842850000000  0.4714650000000 1.0
C      1  0.4646390000000  0.5156010000000  0.5822960000000 1.0
C      1  0.5826300000000  0.5275640000000  0.5078170000000 1.0
C      1  0.5748570000000  0.5335840000000  0.5515050000000 1.0
C      1  0.5172980000000  0.5378190000000  0.4995830000000 1.0
C      1  0.4274960000000  0.5433050000000  0.4982730000000 1.0
C      1  0.5331400000000  0.5727800000000  0.4409890000000 1.0
C      1  0.5606220000000  0.5326380000000  0.5763790000000 1.0
C      1  0.5276810000000  0.4310410000000  0.5617110000000 1.0
C      1  0.4949120000000  0.5388710000000  0.5556750000000 1.0
C      1  0.4513660000000  0.5314630000000  0.4854530000000 1.0
C      1  0.4746180000000  0.4686550000000  0.5298510000000 1.0
C      1  0.4665710000000  0.4883400000000  0.5720680000000 1.0
C      1  0.5677570000000  0.4554390000000  0.4903230000000 1.0
C      1  0.4965380000000  0.4073610000000  0.5278910000000 1.0
C      1  0.5839270000000  0.5060690000000  0.5476470000000 1.0
END
