TITL C-98974-2854-5 345.464213761922 125000 -467.318365966737 0 0 68 (C1) n - 1
REM
REM in /rds/project/t2_vol4/rds-t2-cs072/BORA/CARBON/from-Arr/AIRSS/Generating-Clusters/GAP-ML-2020/Only-C1/SD-CG/HFTN-CG
REM
REM
REM
REM
REM
REM ./C.cell (11c1c37f851c82e70ff6c80c92926a4b)
REM AIRSS Version 0.9.1 bugfix July 2018 build 013d7b7c2542+ Fri, 06 Jul 2018 19:26:36 +0100
REM compiler GCC version 9.3.0
REM options -cpp -mtune=generic -march=x86-64 -g -O0
REM seed 2083659498 -1312739266 -388872588 -1370237031 1852792732 -1662818655 464532612 -92049028 -1455998684 2115570161 -1427077466 852695495 -587802198 -903612618 -553463226 -196256781 1037114159 228171863 1822319949 -1916338182 -1138659741 -1510180074 209862691 48452386 1427914353 741438558 200108661 -92387517 -1837292709 -796069169 -295327243 -1235187702 895510777
REM
CELL 1.54180   50.00000   50.00000   50.00000   90.00000   90.00000   90.00000
LATT -1
SFAC C  
C      1  0.5032410000000  0.4905860000000  0.4351940000000 1.0
C      1  0.4835810000000  0.5393090000000  0.4532700000000 1.0
C      1  0.4708180000000  0.4503960000000  0.4356580000000 1.0
C      1  0.4606540000000  0.5438950000000  0.4732550000000 1.0
C      1  0.5851140000000  0.5153200000000  0.4940210000000 1.0
C      1  0.5171120000000  0.4823540000000  0.5637100000000 1.0
C      1  0.5171050000000  0.4286930000000  0.5177940000000 1.0
C      1  0.4311670000000  0.5032820000000  0.4795780000000 1.0
C      1  0.5195240000000  0.5269080000000  0.4972050000000 1.0
C      1  0.5433340000000  0.4371830000000  0.5093830000000 1.0
C      1  0.4709830000000  0.5179170000000  0.5598260000000 1.0
C      1  0.4967700000000  0.5258930000000  0.5677140000000 1.0
C      1  0.4891770000000  0.4737670000000  0.5638530000000 1.0
C      1  0.5292750000000  0.5915390000000  0.4929240000000 1.0
C      1  0.4991560000000  0.5630670000000  0.4555260000000 1.0
C      1  0.5249150000000  0.4738840000000  0.4441150000000 1.0
C      1  0.5014960000000  0.4817850000000  0.4838750000000 1.0
C      1  0.4269660000000  0.4845940000000  0.5006920000000 1.0
C      1  0.4461600000000  0.4377990000000  0.4828780000000 1.0
C      1  0.5513540000000  0.4425250000000  0.4819120000000 1.0
C      1  0.5030690000000  0.4538640000000  0.4816070000000 1.0
C      1  0.5024360000000  0.5524780000000  0.5571290000000 1.0
C      1  0.4732640000000  0.5033440000000  0.5095110000000 1.0
C      1  0.5383730000000  0.5668200000000  0.4838860000000 1.0
C      1  0.5148760000000  0.4397460000000  0.5445160000000 1.0
C      1  0.4577090000000  0.4949450000000  0.4380360000000 1.0
C      1  0.4984510000000  0.5031860000000  0.5231770000000 1.0
C      1  0.4621320000000  0.4370110000000  0.4574420000000 1.0
C      1  0.5685830000000  0.5070700000000  0.5149740000000 1.0
C      1  0.5292460000000  0.5299010000000  0.4496870000000 1.0
C      1  0.4614760000000  0.5358920000000  0.5400270000000 1.0
C      1  0.4355010000000  0.4569200000000  0.5021980000000 1.0
C      1  0.5197090000000  0.4467470000000  0.4575780000000 1.0
C      1  0.4422800000000  0.5276750000000  0.4886490000000 1.0
C      1  0.5543280000000  0.5297600000000  0.5265830000000 1.0
C      1  0.4718480000000  0.4266700000000  0.4829980000000 1.0
C      1  0.5452290000000  0.5415260000000  0.4986980000000 1.0
C      1  0.5292590000000  0.5554250000000  0.5612230000000 1.0
C      1  0.5195710000000  0.4967340000000  0.5022020000000 1.0
C      1  0.4821370000000  0.5749660000000  0.5124030000000 1.0
C      1  0.5412380000000  0.4291020000000  0.4597970000000 1.0
C      1  0.5020030000000  0.5909400000000  0.4960320000000 1.0
C      1  0.4482620000000  0.5216020000000  0.5179780000000 1.0
C      1  0.4981140000000  0.5310060000000  0.5150600000000 1.0
C      1  0.5636720000000  0.5250120000000  0.4804440000000 1.0
C      1  0.5506980000000  0.5134440000000  0.4580240000000 1.0
C      1  0.5321450000000  0.4613320000000  0.5496350000000 1.0
C      1  0.5264350000000  0.5569990000000  0.4585090000000 1.0
C      1  0.5403290000000  0.5314090000000  0.5512760000000 1.0
C      1  0.4321120000000  0.4978010000000  0.5253760000000 1.0
C      1  0.4528730000000  0.4933060000000  0.4643620000000 1.0
C      1  0.5035530000000  0.5191060000000  0.4429180000000 1.0
C      1  0.4916850000000  0.4359850000000  0.5033300000000 1.0
C      1  0.5206170000000  0.5106280000000  0.5645320000000 1.0
C      1  0.4658930000000  0.4899610000000  0.5602020000000 1.0
C      1  0.5559790000000  0.4710690000000  0.4808110000000 1.0
C      1  0.4490070000000  0.4557550000000  0.5276960000000 1.0
C      1  0.5470480000000  0.4855060000000  0.4573850000000 1.0
C      1  0.4454840000000  0.4797150000000  0.5431670000000 1.0
C      1  0.5503820000000  0.4835980000000  0.5071420000000 1.0
C      1  0.4873590000000  0.5822120000000  0.4720790000000 1.0
C      1  0.5489310000000  0.4604320000000  0.5256960000000 1.0
C      1  0.4755030000000  0.4923180000000  0.4842890000000 1.0
C      1  0.4735220000000  0.4428500000000  0.5283950000000 1.0
C      1  0.4851400000000  0.5532980000000  0.5321170000000 1.0
C      1  0.4889760000000  0.4485830000000  0.5507200000000 1.0
C      1  0.4677110000000  0.5683420000000  0.4872090000000 1.0
C      1  0.4779490000000  0.4773140000000  0.4309120000000 1.0
END
