TITL C-98135-1283-6 -0.0415195326796682 125000 -324.61779398341 0 0 48 (C1) n - 1
REM
REM in /rds/project/t2_vol4/rds-t2-cs072/BORA/CARBON/from-Arr/AIRSS/Generating-Clusters/GAP-ML-2020/Only-C1/SD-CG/HFTN-CG
REM
REM
REM
REM
REM
REM ./C.cell (11c1c37f851c82e70ff6c80c92926a4b)
REM AIRSS Version 0.9.1 bugfix July 2018 build 013d7b7c2542+ Fri, 06 Jul 2018 19:26:36 +0100
REM compiler GCC version 9.3.0
REM options -cpp -mtune=generic -march=x86-64 -g -O0
REM seed 1597370270 -767040482 -784455293 1796329210 716801142 -445365045 440535423 -522322511 -1201334959 -717762633 -816513143 1263492795 1131884855 461018968 -89026250 -2102226976 2022951452 1479545270 -1540370157 330381391 1527881279 -2006357630 2010806019 1448081581 -1730137021 -1220369164 125877705 -1897835186 1505969527 -1867109582 178012254 -179931415 -911909684
REM
CELL 1.54180   50.00000   50.00000   50.00000   90.00000   90.00000   90.00000
LATT -1
SFAC C  
C      1  0.4457100000000  0.4618250000000  0.5406080000000 1.0
C      1  0.5552680000000  0.4839090000000  0.4600480000000 1.0
C      1  0.5474240000000  0.5265200000000  0.4779510000000 1.0
C      1  0.5507430000000  0.4577730000000  0.4696750000000 1.0
C      1  0.4847190000000  0.5594780000000  0.4971390000000 1.0
C      1  0.4891600000000  0.4940600000000  0.4601170000000 1.0
C      1  0.5136460000000  0.5596070000000  0.4900970000000 1.0
C      1  0.4434610000000  0.4807050000000  0.5207470000000 1.0
C      1  0.4687250000000  0.4711200000000  0.4497580000000 1.0
C      1  0.4726060000000  0.5473740000000  0.5197810000000 1.0
C      1  0.5115890000000  0.5449740000000  0.4516200000000 1.0
C      1  0.5593040000000  0.4901960000000  0.5266280000000 1.0
C      1  0.5225000000000  0.4832490000000  0.4927100000000 1.0
C      1  0.4483390000000  0.5313260000000  0.4839710000000 1.0
C      1  0.4703780000000  0.4617760000000  0.5521860000000 1.0
C      1  0.4821850000000  0.5419590000000  0.4521220000000 1.0
C      1  0.4736560000000  0.4729060000000  0.5769270000000 1.0
C      1  0.4823300000000  0.4972670000000  0.5695650000000 1.0
C      1  0.5601100000000  0.4907760000000  0.5559510000000 1.0
C      1  0.4835430000000  0.4628550000000  0.5015910000000 1.0
C      1  0.5101050000000  0.5274320000000  0.5446730000000 1.0
C      1  0.5112570000000  0.4815200000000  0.5371540000000 1.0
C      1  0.4950580000000  0.4862830000000  0.4880990000000 1.0
C      1  0.4537210000000  0.4709860000000  0.4950930000000 1.0
C      1  0.5643350000000  0.5033100000000  0.4805330000000 1.0
C      1  0.4483660000000  0.4802140000000  0.4687920000000 1.0
C      1  0.5288310000000  0.4554340000000  0.4856710000000 1.0
C      1  0.5303680000000  0.4928980000000  0.5184890000000 1.0
C      1  0.4961720000000  0.4143720000000  0.4921150000000 1.0
C      1  0.5349930000000  0.4970180000000  0.4435940000000 1.0
C      1  0.4682420000000  0.5513550000000  0.4749920000000 1.0
C      1  0.5749500000000  0.4957870000000  0.5049160000000 1.0
C      1  0.4666480000000  0.5143970000000  0.5525660000000 1.0
C      1  0.5091470000000  0.4853470000000  0.4400050000000 1.0
C      1  0.4480760000000  0.5080650000000  0.5310350000000 1.0
C      1  0.5105630000000  0.5011100000000  0.5601730000000 1.0
C      1  0.4508140000000  0.5297640000000  0.5122030000000 1.0
C      1  0.5331370000000  0.5247000000000  0.4532720000000 1.0
C      1  0.5190250000000  0.5679100000000  0.4647620000000 1.0
C      1  0.4472200000000  0.5099410000000  0.4647520000000 1.0
C      1  0.5262300000000  0.5239980000000  0.5217150000000 1.0
C      1  0.5323960000000  0.5397860000000  0.4999360000000 1.0
C      1  0.4835270000000  0.5361100000000  0.5435320000000 1.0
C      1  0.4886090000000  0.4663490000000  0.4319610000000 1.0
C      1  0.5380150000000  0.4948230000000  0.5681840000000 1.0
C      1  0.4902050000000  0.4657920000000  0.5310090000000 1.0
C      1  0.4709760000000  0.5161910000000  0.4499270000000 1.0
C      1  0.5036160000000  0.4394510000000  0.4916530000000 1.0
END
