TITL C-98124-1203-7 44.6251873470488 125000 -332.928988875799 0 0 50 (C1) n - 1
REM
REM in /rds/project/t2_vol4/rds-t2-cs072/BORA/CARBON/from-Arr/AIRSS/Generating-Clusters/GAP-ML-2020/Only-C1/SD-CG/HFTN-CG
REM
REM
REM
REM
REM
REM ./C.cell (11c1c37f851c82e70ff6c80c92926a4b)
REM AIRSS Version 0.9.1 bugfix July 2018 build 013d7b7c2542+ Fri, 06 Jul 2018 19:26:36 +0100
REM compiler GCC version 9.3.0
REM options -cpp -mtune=generic -march=x86-64 -g -O0
REM seed -1150499204 -950279488 1676536818 -44155977 -2009266822 388752034 1055416854 -1129209730 -335032939 -930389050 573869641 -385797956 -1861393159 1592412053 368565523 234228030 -1865960229 1932138871 330135837 -1447416085 45366467 -618386405 -1825780795 -1001352268 314270240 1842352464 -1810012534 420062485 1360602096 -260950904 377310530 57179004 -1617016663
REM
CELL 1.54180   50.00000   50.00000   50.00000   90.00000   90.00000   90.00000
LATT -1
SFAC C  
C      1  0.4770860000000  0.4789160000000  0.4508070000000 1.0
C      1  0.4639880000000  0.5189300000000  0.5444270000000 1.0
C      1  0.5169000000000  0.4682930000000  0.5367890000000 1.0
C      1  0.4887380000000  0.5279210000000  0.5318890000000 1.0
C      1  0.5488530000000  0.4782390000000  0.4950150000000 1.0
C      1  0.5104560000000  0.5134260000000  0.5455350000000 1.0
C      1  0.4730870000000  0.4573420000000  0.4691740000000 1.0
C      1  0.4550630000000  0.4713620000000  0.4860380000000 1.0
C      1  0.4872510000000  0.5572740000000  0.5270310000000 1.0
C      1  0.5299870000000  0.5552210000000  0.5011410000000 1.0
C      1  0.4895620000000  0.5371990000000  0.4452370000000 1.0
C      1  0.5642410000000  0.4556370000000  0.5067400000000 1.0
C      1  0.4621330000000  0.5221670000000  0.4838830000000 1.0
C      1  0.5310210000000  0.4336810000000  0.5082340000000 1.0
C      1  0.4347580000000  0.4954630000000  0.5255280000000 1.0
C      1  0.5233420000000  0.4782880000000  0.4526670000000 1.0
C      1  0.4859780000000  0.4423790000000  0.5138660000000 1.0
C      1  0.4915030000000  0.4424970000000  0.4852410000000 1.0
C      1  0.4568860000000  0.4992020000000  0.4489720000000 1.0
C      1  0.5350860000000  0.4627800000000  0.4715270000000 1.0
C      1  0.5582620000000  0.4311290000000  0.5106620000000 1.0
C      1  0.5253750000000  0.4859200000000  0.5142950000000 1.0
C      1  0.5200880000000  0.4403780000000  0.4821030000000 1.0
C      1  0.4872980000000  0.5676850000000  0.4879910000000 1.0
C      1  0.5337660000000  0.5094400000000  0.5309440000000 1.0
C      1  0.4490390000000  0.4752900000000  0.5398460000000 1.0
C      1  0.4924610000000  0.5198540000000  0.4978020000000 1.0
C      1  0.5684660000000  0.5252860000000  0.5031610000000 1.0
C      1  0.4661130000000  0.5607930000000  0.5065040000000 1.0
C      1  0.4840220000000  0.4838050000000  0.5744470000000 1.0
C      1  0.4413270000000  0.5218920000000  0.5264680000000 1.0
C      1  0.5549440000000  0.5483670000000  0.5112200000000 1.0
C      1  0.5076030000000  0.5204450000000  0.4332950000000 1.0
C      1  0.5071340000000  0.5685870000000  0.5100460000000 1.0
C      1  0.5583490000000  0.5060400000000  0.4851170000000 1.0
C      1  0.5277950000000  0.5055440000000  0.4456780000000 1.0
C      1  0.4644080000000  0.4587870000000  0.5220120000000 1.0
C      1  0.4489240000000  0.5385020000000  0.5032970000000 1.0
C      1  0.4990460000000  0.4916270000000  0.4962990000000 1.0
C      1  0.5035400000000  0.4863980000000  0.5547810000000 1.0
C      1  0.5574500000000  0.5251200000000  0.5287380000000 1.0
C      1  0.4648210000000  0.4924030000000  0.5573060000000 1.0
C      1  0.4994440000000  0.4869540000000  0.4658780000000 1.0
C      1  0.5185960000000  0.5358700000000  0.4825620000000 1.0
C      1  0.4650460000000  0.5268170000000  0.4541960000000 1.0
C      1  0.5114300000000  0.4416660000000  0.5273610000000 1.0
C      1  0.5002670000000  0.5536310000000  0.4669620000000 1.0
C      1  0.4472020000000  0.4960440000000  0.4755290000000 1.0
C      1  0.4728320000000  0.4810460000000  0.5069270000000 1.0
C      1  0.5390340000000  0.5184630000000  0.4688320000000 1.0
END
