TITL C-98979-2882-1 -0.285702692670589 125000 -663.186008792228 0 0 93 (C1) n - 1
REM
REM in /rds/project/t2_vol4/rds-t2-cs072/BORA/CARBON/from-Arr/AIRSS/Generating-Clusters/GAP-ML-2020/Only-C1/SD-CG/HFTN-CG
REM
REM
REM
REM
REM
REM ./C.cell (11c1c37f851c82e70ff6c80c92926a4b)
REM AIRSS Version 0.9.1 bugfix July 2018 build 013d7b7c2542+ Fri, 06 Jul 2018 19:26:36 +0100
REM compiler GCC version 9.3.0
REM options -cpp -mtune=generic -march=x86-64 -g -O0
REM seed -673291058 381717891 -1818779230 -2078466470 -1319753222 1028804533 -355812123 -1166293656 -1933018501 177548080 1477499575 -1953312542 -480473346 -2114611368 -559588010 -1678651730 -1443910876 -1618279761 1684641001 344445247 -924822272 -371794721 -425210192 316329966 -2100712705 1010136745 1624617064 -1735627497 871840665 432063199 -996112720 807278413 -311345261
REM
CELL 1.54180   50.00000   50.00000   50.00000   90.00000   90.00000   90.00000
LATT -1
SFAC C  
C      1  0.5298620000000  0.4521460000000  0.5565510000000 1.0
C      1  0.4265500000000  0.4641600000000  0.5270210000000 1.0
C      1  0.5333430000000  0.4207650000000  0.4783690000000 1.0
C      1  0.5522750000000  0.4466720000000  0.4437050000000 1.0
C      1  0.4989970000000  0.5006820000000  0.4716920000000 1.0
C      1  0.4198500000000  0.4848810000000  0.4608380000000 1.0
C      1  0.5135750000000  0.4945720000000  0.5405820000000 1.0
C      1  0.5439480000000  0.5746030000000  0.4523570000000 1.0
C      1  0.4907580000000  0.4260760000000  0.5317720000000 1.0
C      1  0.4270540000000  0.5385080000000  0.5379380000000 1.0
C      1  0.4707240000000  0.5574990000000  0.5607230000000 1.0
C      1  0.5102670000000  0.5323060000000  0.5723650000000 1.0
C      1  0.4192910000000  0.5089110000000  0.4747240000000 1.0
C      1  0.4185430000000  0.4924990000000  0.5281600000000 1.0
C      1  0.5190390000000  0.5671990000000  0.4599420000000 1.0
C      1  0.4263740000000  0.5119650000000  0.5491070000000 1.0
C      1  0.5714480000000  0.5433890000000  0.4742330000000 1.0
C      1  0.4860880000000  0.4501320000000  0.5727770000000 1.0
C      1  0.5274560000000  0.4562930000000  0.4327350000000 1.0
C      1  0.4461490000000  0.4481260000000  0.5427000000000 1.0
C      1  0.4593060000000  0.5708750000000  0.5226310000000 1.0
C      1  0.5575450000000  0.4588610000000  0.4911430000000 1.0
C      1  0.5855990000000  0.5406000000000  0.5194480000000 1.0
C      1  0.5101140000000  0.4599920000000  0.5091120000000 1.0
C      1  0.4727330000000  0.4917790000000  0.5136710000000 1.0
C      1  0.5239840000000  0.4984030000000  0.4803730000000 1.0
C      1  0.4838050000000  0.5629950000000  0.5352500000000 1.0
C      1  0.4759560000000  0.5190100000000  0.5096210000000 1.0
C      1  0.4391400000000  0.4745270000000  0.4411160000000 1.0
C      1  0.4936080000000  0.5162100000000  0.4170810000000 1.0
C      1  0.5747890000000  0.5384070000000  0.5453270000000 1.0
C      1  0.5206530000000  0.4785590000000  0.5653040000000 1.0
C      1  0.5621500000000  0.4900030000000  0.5381540000000 1.0
C      1  0.4335550000000  0.5326050000000  0.4658130000000 1.0
C      1  0.5372020000000  0.5345120000000  0.5644480000000 1.0
C      1  0.4668260000000  0.5184340000000  0.5859500000000 1.0
C      1  0.4199520000000  0.5363410000000  0.5104010000000 1.0
C      1  0.4944650000000  0.4781300000000  0.5252850000000 1.0
C      1  0.4767220000000  0.5003050000000  0.4869220000000 1.0
C      1  0.4662640000000  0.5148580000000  0.4271030000000 1.0
C      1  0.5498590000000  0.5010180000000  0.4278230000000 1.0
C      1  0.5188480000000  0.5459650000000  0.5062100000000 1.0
C      1  0.4890510000000  0.4348090000000  0.4607650000000 1.0
C      1  0.5136490000000  0.5346940000000  0.4255530000000 1.0
C      1  0.5538340000000  0.5481620000000  0.4510910000000 1.0
C      1  0.4833330000000  0.5408870000000  0.5794990000000 1.0
C      1  0.4425260000000  0.5069070000000  0.5723850000000 1.0
C      1  0.4329420000000  0.5498580000000  0.4884840000000 1.0
C      1  0.4628660000000  0.4318140000000  0.5257020000000 1.0
C      1  0.5294970000000  0.4824200000000  0.4199250000000 1.0
C      1  0.5610750000000  0.5160290000000  0.5566590000000 1.0
C      1  0.5319130000000  0.5171450000000  0.5005530000000 1.0
C      1  0.5057490000000  0.4323390000000  0.5082000000000 1.0
C      1  0.4981050000000  0.4743260000000  0.5825980000000 1.0
C      1  0.5718900000000  0.4871310000000  0.4418880000000 1.0
C      1  0.4963030000000  0.5368820000000  0.5241300000000 1.0
C      1  0.5841910000000  0.4911080000000  0.5158050000000 1.0
C      1  0.5033750000000  0.4899590000000  0.4135650000000 1.0
C      1  0.5934050000000  0.5165510000000  0.5070930000000 1.0
C      1  0.4603210000000  0.4862090000000  0.4273440000000 1.0
C      1  0.4458940000000  0.5586240000000  0.5452150000000 1.0
C      1  0.5747420000000  0.4602950000000  0.4347910000000 1.0
C      1  0.4994320000000  0.4502800000000  0.4383960000000 1.0
C      1  0.4776570000000  0.5641200000000  0.4785980000000 1.0
C      1  0.4529920000000  0.4806670000000  0.5785010000000 1.0
C      1  0.5529410000000  0.4629700000000  0.5483600000000 1.0
C      1  0.4625000000000  0.4375730000000  0.4710060000000 1.0
C      1  0.4547200000000  0.5349540000000  0.4450760000000 1.0
C      1  0.4775040000000  0.4918870000000  0.5897180000000 1.0
C      1  0.5504230000000  0.5541300000000  0.5460710000000 1.0
C      1  0.4847550000000  0.4709950000000  0.4234570000000 1.0
C      1  0.5671580000000  0.5538680000000  0.5016200000000 1.0
C      1  0.5038850000000  0.4365470000000  0.5553760000000 1.0
C      1  0.5326650000000  0.4736100000000  0.4992510000000 1.0
C      1  0.5363540000000  0.4965020000000  0.5214270000000 1.0
C      1  0.4296850000000  0.4528310000000  0.5011840000000 1.0
C      1  0.5795840000000  0.4766900000000  0.4911120000000 1.0
C      1  0.4583130000000  0.4554390000000  0.5671980000000 1.0
C      1  0.5435620000000  0.5585930000000  0.5177680000000 1.0
C      1  0.5411870000000  0.5281100000000  0.4320030000000 1.0
C      1  0.4142160000000  0.5093950000000  0.5037450000000 1.0
C      1  0.5070930000000  0.4228130000000  0.4812060000000 1.0
C      1  0.4420770000000  0.4504540000000  0.4570150000000 1.0
C      1  0.5875670000000  0.5199650000000  0.4785480000000 1.0
C      1  0.5050620000000  0.5207550000000  0.5469350000000 1.0
C      1  0.5838370000000  0.4939180000000  0.4676170000000 1.0
C      1  0.5057330000000  0.5636150000000  0.4853090000000 1.0
C      1  0.4754210000000  0.5536950000000  0.4522020000000 1.0
C      1  0.4220820000000  0.4602570000000  0.4758710000000 1.0
C      1  0.5016800000000  0.5543020000000  0.4414280000000 1.0
C      1  0.4549310000000  0.5667400000000  0.4954360000000 1.0
C      1  0.5526640000000  0.4380700000000  0.4721190000000 1.0
C      1  0.4529890000000  0.4363340000000  0.4987240000000 1.0
END
