TITL C-98123-1234-8 -0.0537789667976632 125000 -616.760777943057 0 0 90 (C1) n - 1
REM
REM in /rds/project/t2_vol4/rds-t2-cs072/BORA/CARBON/from-Arr/AIRSS/Generating-Clusters/GAP-ML-2020/Only-C1/SD-CG/HFTN-CG
REM
REM
REM
REM
REM
REM ./C.cell (11c1c37f851c82e70ff6c80c92926a4b)
REM AIRSS Version 0.9.1 bugfix July 2018 build 013d7b7c2542+ Fri, 06 Jul 2018 19:26:36 +0100
REM compiler GCC version 9.3.0
REM options -cpp -mtune=generic -march=x86-64 -g -O0
REM seed -627499505 -1562914368 1782860741 1765074266 1670961280 590354699 1853221764 -17143181 964961744 403937308 846004916 1407693595 -2024075962 1600602012 -182335352 -309136749 -813277072 -2054100438 -1529564669 467020619 2017041595 1814795145 1826336545 1960793977 934114408 2085715780 -259088521 -1602204576 823813698 132422945 -814954673 1957879597 1604261667
REM
CELL 1.54180   50.00000   50.00000   50.00000   90.00000   90.00000   90.00000
LATT -1
SFAC C  
C      1  0.5405730000000  0.5236830000000  0.4305410000000 1.0
C      1  0.5090310000000  0.4394260000000  0.4742730000000 1.0
C      1  0.4815900000000  0.5058600000000  0.4305440000000 1.0
C      1  0.5452340000000  0.4501740000000  0.5178450000000 1.0
C      1  0.4576650000000  0.4970870000000  0.4969210000000 1.0
C      1  0.4922200000000  0.5004700000000  0.5445830000000 1.0
C      1  0.4270670000000  0.5521240000000  0.4868540000000 1.0
C      1  0.4798610000000  0.4911660000000  0.4795270000000 1.0
C      1  0.4617920000000  0.5264270000000  0.4258760000000 1.0
C      1  0.5001090000000  0.5711040000000  0.5222500000000 1.0
C      1  0.4899720000000  0.4475980000000  0.4535800000000 1.0
C      1  0.4229500000000  0.4704950000000  0.5192090000000 1.0
C      1  0.4156690000000  0.4964150000000  0.5102050000000 1.0
C      1  0.5003590000000  0.4830200000000  0.5694550000000 1.0
C      1  0.5144590000000  0.5144240000000  0.5321360000000 1.0
C      1  0.4851210000000  0.5545280000000  0.5671510000000 1.0
C      1  0.5702480000000  0.4699640000000  0.5195260000000 1.0
C      1  0.5737590000000  0.5193380000000  0.5266760000000 1.0
C      1  0.5424160000000  0.4129000000000  0.4853530000000 1.0
C      1  0.4476900000000  0.4448110000000  0.4817290000000 1.0
C      1  0.5199200000000  0.5651490000000  0.4484880000000 1.0
C      1  0.4931990000000  0.4301530000000  0.4962630000000 1.0
C      1  0.4530230000000  0.4727470000000  0.4414240000000 1.0
C      1  0.5421300000000  0.5555830000000  0.5514030000000 1.0
C      1  0.4756390000000  0.5019770000000  0.5692430000000 1.0
C      1  0.4496010000000  0.5605040000000  0.4730050000000 1.0
C      1  0.4556690000000  0.4428270000000  0.5495030000000 1.0
C      1  0.4760440000000  0.5524140000000  0.4839450000000 1.0
C      1  0.4296620000000  0.5445680000000  0.5133930000000 1.0
C      1  0.5290000000000  0.4687410000000  0.4353530000000 1.0
C      1  0.4739010000000  0.5516150000000  0.4233360000000 1.0
C      1  0.5079600000000  0.4178340000000  0.5166640000000 1.0
C      1  0.4409470000000  0.5184660000000  0.5441110000000 1.0
C      1  0.4780960000000  0.5595760000000  0.5399030000000 1.0
C      1  0.5304450000000  0.4640590000000  0.5402110000000 1.0
C      1  0.5072610000000  0.5676050000000  0.5774660000000 1.0
C      1  0.5476960000000  0.5666020000000  0.4850270000000 1.0
C      1  0.4611240000000  0.4507780000000  0.4573750000000 1.0
C      1  0.4997490000000  0.4881000000000  0.5003090000000 1.0
C      1  0.4845180000000  0.4376410000000  0.5557730000000 1.0
C      1  0.4355230000000  0.4936350000000  0.4523490000000 1.0
C      1  0.4980030000000  0.5721810000000  0.4939840000000 1.0
C      1  0.5010500000000  0.5200470000000  0.5068400000000 1.0
C      1  0.4300870000000  0.4901770000000  0.4822700000000 1.0
C      1  0.5002050000000  0.4641320000000  0.4334580000000 1.0
C      1  0.5599690000000  0.5473170000000  0.4669780000000 1.0
C      1  0.4710060000000  0.5281090000000  0.5050050000000 1.0
C      1  0.5308180000000  0.4223740000000  0.4619840000000 1.0
C      1  0.5278150000000  0.5709220000000  0.5307480000000 1.0
C      1  0.4324980000000  0.5436340000000  0.4595480000000 1.0
C      1  0.4627050000000  0.4717810000000  0.5170270000000 1.0
C      1  0.5808680000000  0.5118520000000  0.4996690000000 1.0
C      1  0.4195820000000  0.5198190000000  0.5247520000000 1.0
C      1  0.4567760000000  0.5410040000000  0.5287600000000 1.0
C      1  0.5449530000000  0.4819570000000  0.5591730000000 1.0
C      1  0.5214340000000  0.5748670000000  0.4758770000000 1.0
C      1  0.5730320000000  0.5223110000000  0.4735400000000 1.0
C      1  0.4665380000000  0.4406010000000  0.5036060000000 1.0
C      1  0.4767770000000  0.4794060000000  0.4255270000000 1.0
C      1  0.4888840000000  0.4776830000000  0.5263570000000 1.0
C      1  0.5341270000000  0.4936140000000  0.5229700000000 1.0
C      1  0.4616050000000  0.4246610000000  0.5281940000000 1.0
C      1  0.4274670000000  0.4619670000000  0.4908240000000 1.0
C      1  0.5019810000000  0.4610670000000  0.5488630000000 1.0
C      1  0.5163010000000  0.5223430000000  0.5811370000000 1.0
C      1  0.4494430000000  0.4955270000000  0.5571690000000 1.0
C      1  0.5494320000000  0.5642050000000  0.5127390000000 1.0
C      1  0.4439120000000  0.4692850000000  0.5409890000000 1.0
C      1  0.5611740000000  0.5449460000000  0.5317600000000 1.0
C      1  0.4919250000000  0.5081590000000  0.4587920000000 1.0
C      1  0.5274050000000  0.4857030000000  0.4927410000000 1.0
C      1  0.5579920000000  0.4545920000000  0.4691690000000 1.0
C      1  0.5822300000000  0.4827220000000  0.4974940000000 1.0
C      1  0.4885990000000  0.4162090000000  0.5375720000000 1.0
C      1  0.5250070000000  0.4948300000000  0.5761270000000 1.0
C      1  0.5438380000000  0.4460240000000  0.4463050000000 1.0
C      1  0.5684420000000  0.4991010000000  0.4568150000000 1.0
C      1  0.5760250000000  0.4756860000000  0.4707120000000 1.0
C      1  0.5415360000000  0.4978570000000  0.4428930000000 1.0
C      1  0.5372910000000  0.4211190000000  0.5115200000000 1.0
C      1  0.5632150000000  0.4926010000000  0.5372650000000 1.0
C      1  0.5230040000000  0.5036850000000  0.4685200000000 1.0
C      1  0.4387700000000  0.5205060000000  0.4426340000000 1.0
C      1  0.4924440000000  0.5375810000000  0.4642080000000 1.0
C      1  0.5344130000000  0.4578970000000  0.4889860000000 1.0
C      1  0.5431010000000  0.5472500000000  0.4437250000000 1.0
C      1  0.4875100000000  0.5265990000000  0.5787840000000 1.0
C      1  0.4952510000000  0.5550160000000  0.4395960000000 1.0
C      1  0.5284660000000  0.5484420000000  0.5753530000000 1.0
C      1  0.5162020000000  0.5290460000000  0.4822620000000 1.0
END
