TITL C-98989-1506-6 0.0836467464279711 125000 -583.270919202556 0 0 86 (C1) n - 1
REM
REM in /rds/project/t2_vol4/rds-t2-cs072/BORA/CARBON/from-Arr/AIRSS/Generating-Clusters/GAP-ML-2020/Only-C1/SD-CG/HFTN-CG
REM
REM
REM
REM
REM
REM ./C.cell (11c1c37f851c82e70ff6c80c92926a4b)
REM AIRSS Version 0.9.1 bugfix July 2018 build 013d7b7c2542+ Fri, 06 Jul 2018 19:26:36 +0100
REM compiler GCC version 9.3.0
REM options -cpp -mtune=generic -march=x86-64 -g -O0
REM seed 1917347097 -912184897 1931509137 -1253465243 1442196094 1452272408 884645568 1664586758 -219983223 -829412514 -1297581049 51583148 -1217316140 279898770 1578312468 628198877 -1867579116 117218520 1222500798 -1059837704 -1208526033 1990737235 -761174034 1038295526 -487713902 -1875286410 942920035 -1351387557 -2091162033 609776610 -1215134860 199106754 2070676156
REM
CELL 1.54180   50.00000   50.00000   50.00000   90.00000   90.00000   90.00000
LATT -1
SFAC C  
C      1  0.4782940000000  0.4904160000000  0.4742600000000 1.0
C      1  0.5712620000000  0.4880140000000  0.5401200000000 1.0
C      1  0.5377670000000  0.4803380000000  0.5016800000000 1.0
C      1  0.5128050000000  0.4953590000000  0.4313590000000 1.0
C      1  0.4369250000000  0.5302800000000  0.5504430000000 1.0
C      1  0.4657580000000  0.5011690000000  0.4268590000000 1.0
C      1  0.4455880000000  0.5344780000000  0.4806040000000 1.0
C      1  0.5468210000000  0.4319190000000  0.4804640000000 1.0
C      1  0.4916750000000  0.5614710000000  0.4659150000000 1.0
C      1  0.5433480000000  0.4552920000000  0.4606230000000 1.0
C      1  0.5111380000000  0.5797490000000  0.5113260000000 1.0
C      1  0.4572080000000  0.5327950000000  0.5693240000000 1.0
C      1  0.5485660000000  0.5522310000000  0.4818070000000 1.0
C      1  0.5187960000000  0.4478300000000  0.4435520000000 1.0
C      1  0.4987110000000  0.4894820000000  0.5155740000000 1.0
C      1  0.4970000000000  0.5366440000000  0.5159710000000 1.0
C      1  0.4987850000000  0.5525880000000  0.5620050000000 1.0
C      1  0.5141520000000  0.5187380000000  0.4762050000000 1.0
C      1  0.4460550000000  0.4831110000000  0.5500380000000 1.0
C      1  0.4417770000000  0.4418520000000  0.5201610000000 1.0
C      1  0.4804360000000  0.4298970000000  0.4779270000000 1.0
C      1  0.5259650000000  0.4628860000000  0.4820510000000 1.0
C      1  0.5191830000000  0.4412940000000  0.5192980000000 1.0
C      1  0.4495600000000  0.5652020000000  0.4867600000000 1.0
C      1  0.4872840000000  0.4730570000000  0.4965210000000 1.0
C      1  0.4628560000000  0.5783040000000  0.5053520000000 1.0
C      1  0.4550310000000  0.4465160000000  0.4728430000000 1.0
C      1  0.5345130000000  0.5223260000000  0.5490720000000 1.0
C      1  0.5474030000000  0.4350900000000  0.5099020000000 1.0
C      1  0.5693970000000  0.5296560000000  0.5175290000000 1.0
C      1  0.4933640000000  0.5026110000000  0.5710330000000 1.0
C      1  0.4785520000000  0.5682120000000  0.5480770000000 1.0
C      1  0.5402980000000  0.5281310000000  0.4658340000000 1.0
C      1  0.5533710000000  0.5047000000000  0.4506670000000 1.0
C      1  0.4277230000000  0.4936330000000  0.4667360000000 1.0
C      1  0.4315690000000  0.5054540000000  0.5364850000000 1.0
C      1  0.4701880000000  0.5169480000000  0.4896090000000 1.0
C      1  0.5252410000000  0.5266550000000  0.5194420000000 1.0
C      1  0.5251570000000  0.5518850000000  0.5525260000000 1.0
C      1  0.4721870000000  0.4818810000000  0.5643820000000 1.0
C      1  0.5221750000000  0.4707160000000  0.5270930000000 1.0
C      1  0.4371660000000  0.4521860000000  0.4938150000000 1.0
C      1  0.5472180000000  0.5483210000000  0.5105830000000 1.0
C      1  0.4995770000000  0.5460070000000  0.4399090000000 1.0
C      1  0.5210300000000  0.5040150000000  0.5007130000000 1.0
C      1  0.4777810000000  0.5257420000000  0.4405590000000 1.0
C      1  0.4977010000000  0.5050010000000  0.4563040000000 1.0
C      1  0.5774410000000  0.5138480000000  0.4969700000000 1.0
C      1  0.5113540000000  0.4515820000000  0.5649800000000 1.0
C      1  0.4804470000000  0.5130140000000  0.5177340000000 1.0
C      1  0.4803470000000  0.4317990000000  0.5457670000000 1.0
C      1  0.4932690000000  0.5374190000000  0.4862790000000 1.0
C      1  0.5620700000000  0.5140580000000  0.5406950000000 1.0
C      1  0.4644430000000  0.4241960000000  0.5232460000000 1.0
C      1  0.5609290000000  0.4805920000000  0.4628410000000 1.0
C      1  0.4220410000000  0.5009240000000  0.5094060000000 1.0
C      1  0.4395270000000  0.4592330000000  0.5402630000000 1.0
C      1  0.4840720000000  0.5810800000000  0.5224560000000 1.0
C      1  0.5565930000000  0.4650690000000  0.5489790000000 1.0
C      1  0.5083570000000  0.4666400000000  0.4245320000000 1.0
C      1  0.4441970000000  0.4888620000000  0.4433490000000 1.0
C      1  0.4534770000000  0.5545310000000  0.5517720000000 1.0
C      1  0.5121010000000  0.5778900000000  0.4816120000000 1.0
C      1  0.4558270000000  0.5409350000000  0.4527240000000 1.0
C      1  0.4635090000000  0.5667590000000  0.4616400000000 1.0
C      1  0.5654210000000  0.4490660000000  0.5256040000000 1.0
C      1  0.5280650000000  0.5396130000000  0.4371990000000 1.0
C      1  0.4253020000000  0.4780340000000  0.4917300000000 1.0
C      1  0.5052350000000  0.4266410000000  0.4600790000000 1.0
C      1  0.4595380000000  0.4715270000000  0.4594800000000 1.0
C      1  0.5091030000000  0.4306890000000  0.5448320000000 1.0
C      1  0.5313620000000  0.5671160000000  0.5277180000000 1.0
C      1  0.4829710000000  0.4560380000000  0.5627010000000 1.0
C      1  0.5294660000000  0.4726820000000  0.5567300000000 1.0
C      1  0.4882990000000  0.4850470000000  0.4172070000000 1.0
C      1  0.5211340000000  0.5005180000000  0.5648630000000 1.0
C      1  0.5265800000000  0.4144940000000  0.4726390000000 1.0
C      1  0.4851670000000  0.5294140000000  0.5731880000000 1.0
C      1  0.5365620000000  0.5738630000000  0.4672840000000 1.0
C      1  0.5358930000000  0.5119570000000  0.4289570000000 1.0
C      1  0.4232230000000  0.5169960000000  0.4844990000000 1.0
C      1  0.5792510000000  0.4731890000000  0.5156420000000 1.0
C      1  0.5371910000000  0.5656680000000  0.4400110000000 1.0
C      1  0.4744970000000  0.4132320000000  0.5002150000000 1.0
C      1  0.5026580000000  0.4488620000000  0.4930880000000 1.0
C      1  0.5687230000000  0.4868370000000  0.4917780000000 1.0
END
