TITL C-98134-1210-2 -63.7114018682375 125000 -665.696823829504 0 0 96 (C1) n - 1
REM
REM in /rds/project/t2_vol4/rds-t2-cs072/BORA/CARBON/from-Arr/AIRSS/Generating-Clusters/GAP-ML-2020/Only-C1/SD-CG/HFTN-CG
REM
REM
REM
REM
REM
REM ./C.cell (11c1c37f851c82e70ff6c80c92926a4b)
REM AIRSS Version 0.9.1 bugfix July 2018 build 013d7b7c2542+ Fri, 06 Jul 2018 19:26:36 +0100
REM compiler GCC version 9.3.0
REM options -cpp -mtune=generic -march=x86-64 -g -O0
REM seed -1073815130 758789746 304761643 -125636294 -368315728 -345175358 278282927 1825008746 1473668984 1855714946 1369323591 -1390734751 1863112624 1254937995 373565900 1842115681 1185488620 52330874 -1145975367 1357744420 -503455262 461874738 -467632974 501998566 236008392 1288778908 -522897194 -904146124 -2078702358 -1101464145 2095341043 -2017174987 -2111566371
REM
CELL 1.54180   50.00000   50.00000   50.00000   90.00000   90.00000   90.00000
LATT -1
SFAC C  
C      1  0.4996990000000  0.5200640000000  0.5019850000000 1.0
C      1  0.4517500000000  0.5691220000000  0.5311760000000 1.0
C      1  0.5403020000000  0.5008340000000  0.4889190000000 1.0
C      1  0.5344310000000  0.5262370000000  0.5592740000000 1.0
C      1  0.5290120000000  0.4519110000000  0.4399380000000 1.0
C      1  0.5576430000000  0.4309290000000  0.5043540000000 1.0
C      1  0.4665590000000  0.4395570000000  0.5404580000000 1.0
C      1  0.4191310000000  0.5126770000000  0.4589860000000 1.0
C      1  0.5591070000000  0.4649970000000  0.5425620000000 1.0
C      1  0.4606690000000  0.4331760000000  0.4663370000000 1.0
C      1  0.5150950000000  0.4193820000000  0.5345960000000 1.0
C      1  0.4517290000000  0.4336460000000  0.4918060000000 1.0
C      1  0.5242910000000  0.4211810000000  0.4721990000000 1.0
C      1  0.5358040000000  0.5443490000000  0.4288000000000 1.0
C      1  0.4425390000000  0.4534610000000  0.5466080000000 1.0
C      1  0.4953200000000  0.4183150000000  0.5134430000000 1.0
C      1  0.4470720000000  0.5016120000000  0.5443660000000 1.0
C      1  0.5292990000000  0.5261960000000  0.5001540000000 1.0
C      1  0.5585040000000  0.5669660000000  0.4902130000000 1.0
C      1  0.4131460000000  0.4984750000000  0.4808970000000 1.0
C      1  0.4761450000000  0.5614030000000  0.4484090000000 1.0
C      1  0.4766450000000  0.4462420000000  0.5873910000000 1.0
C      1  0.5136240000000  0.4377170000000  0.5548900000000 1.0
C      1  0.4380630000000  0.4982500000000  0.5147630000000 1.0
C      1  0.5184810000000  0.4805280000000  0.5252990000000 1.0
C      1  0.4757510000000  0.5112370000000  0.5396010000000 1.0
C      1  0.4273430000000  0.5424710000000  0.5035280000000 1.0
C      1  0.4096370000000  0.5052810000000  0.5089880000000 1.0
C      1  0.5108270000000  0.5368450000000  0.4201740000000 1.0
C      1  0.5016030000000  0.4903720000000  0.4613940000000 1.0
C      1  0.5255760000000  0.4928900000000  0.4417040000000 1.0
C      1  0.4818750000000  0.4708880000000  0.4984930000000 1.0
C      1  0.4505900000000  0.5561150000000  0.4588680000000 1.0
C      1  0.4614010000000  0.5126930000000  0.4767690000000 1.0
C      1  0.5514460000000  0.5423210000000  0.4512370000000 1.0
C      1  0.5712500000000  0.4529120000000  0.5187230000000 1.0
C      1  0.5507500000000  0.4973850000000  0.4579350000000 1.0
C      1  0.4856750000000  0.4396190000000  0.5621490000000 1.0
C      1  0.4794880000000  0.5668270000000  0.5194440000000 1.0
C      1  0.5686580000000  0.5207870000000  0.4586880000000 1.0
C      1  0.5370250000000  0.4153800000000  0.5162660000000 1.0
C      1  0.5189530000000  0.5739500000000  0.4753320000000 1.0
C      1  0.4828490000000  0.5417500000000  0.4285430000000 1.0
C      1  0.5308810000000  0.5777190000000  0.5229560000000 1.0
C      1  0.4910240000000  0.5145340000000  0.4752240000000 1.0
C      1  0.5372090000000  0.5492170000000  0.4771070000000 1.0
C      1  0.5042330000000  0.5731350000000  0.5344350000000 1.0
C      1  0.5091040000000  0.5360950000000  0.5672590000000 1.0
C      1  0.4449590000000  0.5253710000000  0.4529140000000 1.0
C      1  0.4489700000000  0.5707240000000  0.4835630000000 1.0
C      1  0.5872250000000  0.4691100000000  0.5032390000000 1.0
C      1  0.4344380000000  0.4776640000000  0.4902690000000 1.0
C      1  0.5689490000000  0.4747950000000  0.4598930000000 1.0
C      1  0.5163170000000  0.4097740000000  0.4961170000000 1.0
C      1  0.4116440000000  0.5291390000000  0.5237250000000 1.0
C      1  0.5021790000000  0.5602790000000  0.5577910000000 1.0
C      1  0.4497810000000  0.4775870000000  0.5610580000000 1.0
C      1  0.4797500000000  0.4459960000000  0.4522230000000 1.0
C      1  0.5351810000000  0.5847930000000  0.4960440000000 1.0
C      1  0.5436170000000  0.5012660000000  0.5669490000000 1.0
C      1  0.5291660000000  0.4766950000000  0.4992100000000 1.0
C      1  0.5293700000000  0.4621080000000  0.5514780000000 1.0
C      1  0.4928050000000  0.4921720000000  0.5190130000000 1.0
C      1  0.4514560000000  0.5230730000000  0.5022990000000 1.0
C      1  0.5240680000000  0.4818720000000  0.5727850000000 1.0
C      1  0.5088660000000  0.4423320000000  0.4587740000000 1.0
C      1  0.4444840000000  0.5502360000000  0.5500810000000 1.0
C      1  0.5071870000000  0.4686650000000  0.4812630000000 1.0
C      1  0.5510940000000  0.4310730000000  0.4757900000000 1.0
C      1  0.5861900000000  0.4842900000000  0.4814030000000 1.0
C      1  0.5695660000000  0.5145350000000  0.5305510000000 1.0
C      1  0.5169220000000  0.5097440000000  0.4180980000000 1.0
C      1  0.5849700000000  0.5141900000000  0.4816380000000 1.0
C      1  0.4344840000000  0.5688910000000  0.5077990000000 1.0
C      1  0.4749680000000  0.5775080000000  0.4917480000000 1.0
C      1  0.4902100000000  0.5149740000000  0.5657990000000 1.0
C      1  0.4736450000000  0.4923350000000  0.4257050000000 1.0
C      1  0.4303170000000  0.5276400000000  0.5461260000000 1.0
C      1  0.4760050000000  0.5330190000000  0.5172670000000 1.0
C      1  0.4739930000000  0.4721580000000  0.5773000000000 1.0
C      1  0.4230920000000  0.4491350000000  0.5277420000000 1.0
C      1  0.5549630000000  0.4508820000000  0.4552650000000 1.0
C      1  0.5744040000000  0.5553950000000  0.5091910000000 1.0
C      1  0.5196440000000  0.4700600000000  0.4219970000000 1.0
C      1  0.4300860000000  0.4508700000000  0.5013120000000 1.0
C      1  0.4917670000000  0.5759720000000  0.4685970000000 1.0
C      1  0.5447550000000  0.5314880000000  0.5323680000000 1.0
C      1  0.5646900000000  0.4923660000000  0.5483640000000 1.0
C      1  0.5528820000000  0.5593600000000  0.5287660000000 1.0
C      1  0.4752390000000  0.4758580000000  0.4505900000000 1.0
C      1  0.4991250000000  0.4880800000000  0.4111540000000 1.0
C      1  0.4965900000000  0.4903410000000  0.5771620000000 1.0
C      1  0.4645380000000  0.5192050000000  0.4302430000000 1.0
C      1  0.4746140000000  0.4398550000000  0.5117170000000 1.0
C      1  0.5830290000000  0.5270180000000  0.5075180000000 1.0
C      1  0.4605960000000  0.4824570000000  0.4774600000000 1.0
END
