TITL C-98130-1231-5 5.54103982215232 125000 -73.0106887127328 0 0 12 (C1) n - 1
REM
REM in /rds/project/t2_vol4/rds-t2-cs072/BORA/CARBON/from-Arr/AIRSS/Generating-Clusters/GAP-ML-2020/Only-C1/SD-CG/HFTN-CG
REM
REM
REM
REM
REM
REM ./C.cell (11c1c37f851c82e70ff6c80c92926a4b)
REM AIRSS Version 0.9.1 bugfix July 2018 build 013d7b7c2542+ Fri, 06 Jul 2018 19:26:36 +0100
REM compiler GCC version 9.3.0
REM options -cpp -mtune=generic -march=x86-64 -g -O0
REM seed -2133252855 -663284431 -26724024 -887749014 -23892221 -1634337530 1612121988 1776239592 -692364700 298974870 -661558604 -1221424376 -832448998 342788158 1158110977 -497626000 -1715342597 -1186903301 -16210922 -921257368 359911091 -1109507722 -1472747725 1510733727 -1777234756 356803789 610664336 349937963 -404286704 1323658990 1825323994 -2104914722 1111157593
REM
CELL 1.54180   50.00000   50.00000   50.00000   90.00000   90.00000   90.00000
LATT -1
SFAC C  
C      1  0.4475960000000  0.4822970000000  0.4712070000000 1.0
C      1  0.5096230000000  0.5399750000000  0.5418540000000 1.0
C      1  0.4875920000000  0.5137860000000  0.5109590000000 1.0
C      1  0.5398900000000  0.4971670000000  0.4757130000000 1.0
C      1  0.5293310000000  0.4814430000000  0.5228190000000 1.0
C      1  0.4925310000000  0.4937620000000  0.4940290000000 1.0
C      1  0.5414850000000  0.5116510000000  0.4974450000000 1.0
C      1  0.5409010000000  0.5055060000000  0.5245370000000 1.0
C      1  0.4886850000000  0.5313160000000  0.5288860000000 1.0
C      1  0.4299830000000  0.4702870000000  0.4567550000000 1.0
C      1  0.5216080000000  0.4867560000000  0.4950550000000 1.0
C      1  0.4707740000000  0.4860540000000  0.4807430000000 1.0
END
