TITL C-98984-2973-5 0.301334226884622 125000 -857.899210298576 0 0 122 (C1) n - 1
REM
REM in /rds/project/t2_vol4/rds-t2-cs072/BORA/CARBON/from-Arr/AIRSS/Generating-Clusters/GAP-ML-2020/Only-C1/SD-CG/HFTN-CG
REM
REM
REM
REM
REM
REM ./C.cell (11c1c37f851c82e70ff6c80c92926a4b)
REM AIRSS Version 0.9.1 bugfix July 2018 build 013d7b7c2542+ Fri, 06 Jul 2018 19:26:36 +0100
REM compiler GCC version 9.3.0
REM options -cpp -mtune=generic -march=x86-64 -g -O0
REM seed -720163884 2045369004 456670502 -687693857 903719800 -1143385956 -288673700 -320186147 -2084464152 752313821 -194338936 1763322763 1030231313 1720117424 1104939759 -580784332 1669776516 483519766 741925273 -1770172560 1299319803 -1727353423 240053540 1557344651 677273531 -251115111 1550180994 -8231998 -1946214523 -1931194048 457830171 -657432146 -1668100900
REM
CELL 1.54180   50.00000   50.00000   50.00000   90.00000   90.00000   90.00000
LATT -1
SFAC C  
C      1  0.5669690000000  0.5080570000000  0.4616150000000 1.0
C      1  0.5387350000000  0.5193800000000  0.5054690000000 1.0
C      1  0.4489860000000  0.4148540000000  0.5287160000000 1.0
C      1  0.4862710000000  0.4692280000000  0.5145790000000 1.0
C      1  0.4982240000000  0.4038590000000  0.5086770000000 1.0
C      1  0.4500810000000  0.5400730000000  0.5396810000000 1.0
C      1  0.4648290000000  0.4701020000000  0.4822520000000 1.0
C      1  0.5041700000000  0.5489850000000  0.4971940000000 1.0
C      1  0.5055430000000  0.4210380000000  0.5652340000000 1.0
C      1  0.5826030000000  0.4650530000000  0.5298120000000 1.0
C      1  0.4826080000000  0.4891890000000  0.5722130000000 1.0
C      1  0.4172330000000  0.4974940000000  0.5176430000000 1.0
C      1  0.5146280000000  0.5641210000000  0.5670820000000 1.0
C      1  0.4759100000000  0.4835170000000  0.4223770000000 1.0
C      1  0.5726730000000  0.5520970000000  0.4706580000000 1.0
C      1  0.5722990000000  0.4469460000000  0.5484670000000 1.0
C      1  0.4138080000000  0.4500000000000  0.5185000000000 1.0
C      1  0.4454540000000  0.5792880000000  0.5094040000000 1.0
C      1  0.4895730000000  0.4357950000000  0.4373820000000 1.0
C      1  0.4824570000000  0.5385080000000  0.4829260000000 1.0
C      1  0.4765270000000  0.4032510000000  0.5270910000000 1.0
C      1  0.4736040000000  0.5357260000000  0.5816650000000 1.0
C      1  0.4716470000000  0.5796540000000  0.5515540000000 1.0
C      1  0.4234770000000  0.4901340000000  0.4621250000000 1.0
C      1  0.4493470000000  0.5612260000000  0.4534730000000 1.0
C      1  0.5610960000000  0.4791570000000  0.4574190000000 1.0
C      1  0.4922280000000  0.4635340000000  0.4861960000000 1.0
C      1  0.5309070000000  0.4917110000000  0.5002920000000 1.0
C      1  0.5327350000000  0.4926510000000  0.5722240000000 1.0
C      1  0.5326570000000  0.5915250000000  0.5171890000000 1.0
C      1  0.5588820000000  0.5822230000000  0.5090470000000 1.0
C      1  0.5484480000000  0.4791280000000  0.4239270000000 1.0
C      1  0.4296810000000  0.5386820000000  0.4928330000000 1.0
C      1  0.4913070000000  0.5146860000000  0.5880090000000 1.0
C      1  0.5165250000000  0.4430330000000  0.4339010000000 1.0
C      1  0.4507200000000  0.5691830000000  0.5359620000000 1.0
C      1  0.5691270000000  0.5179810000000  0.5122090000000 1.0
C      1  0.4130310000000  0.4456870000000  0.4723620000000 1.0
C      1  0.4699120000000  0.4560680000000  0.4298780000000 1.0
C      1  0.4513600000000  0.4241370000000  0.4599900000000 1.0
C      1  0.5656870000000  0.4909520000000  0.5307210000000 1.0
C      1  0.4463920000000  0.4471630000000  0.4424960000000 1.0
C      1  0.4952040000000  0.5431560000000  0.4544550000000 1.0
C      1  0.5075980000000  0.4924590000000  0.5549390000000 1.0
C      1  0.5159340000000  0.5923470000000  0.4694340000000 1.0
C      1  0.4558660000000  0.4969540000000  0.5568660000000 1.0
C      1  0.5255950000000  0.4177630000000  0.4748780000000 1.0
C      1  0.5205710000000  0.5259220000000  0.4608610000000 1.0
C      1  0.5334340000000  0.4367000000000  0.4556520000000 1.0
C      1  0.4371510000000  0.5367670000000  0.4647150000000 1.0
C      1  0.4859080000000  0.5016910000000  0.5156200000000 1.0
C      1  0.5198260000000  0.5178800000000  0.5847660000000 1.0
C      1  0.5414780000000  0.4736720000000  0.5196440000000 1.0
C      1  0.4394310000000  0.5115900000000  0.4502740000000 1.0
C      1  0.4191020000000  0.4728900000000  0.5355090000000 1.0
C      1  0.4258200000000  0.5648120000000  0.4979350000000 1.0
C      1  0.4583010000000  0.5554850000000  0.4282950000000 1.0
C      1  0.5157770000000  0.5799560000000  0.5396850000000 1.0
C      1  0.4988420000000  0.4519730000000  0.5307520000000 1.0
C      1  0.5746040000000  0.5655460000000  0.5248150000000 1.0
C      1  0.4841080000000  0.5394470000000  0.5417750000000 1.0
C      1  0.5600080000000  0.5499400000000  0.4449680000000 1.0
C      1  0.5298940000000  0.4600850000000  0.5706050000000 1.0
C      1  0.5236540000000  0.4117300000000  0.5208780000000 1.0
C      1  0.5063690000000  0.5525270000000  0.5251250000000 1.0
C      1  0.5284310000000  0.4187620000000  0.5483810000000 1.0
C      1  0.4362800000000  0.5218060000000  0.5181030000000 1.0
C      1  0.4859550000000  0.5111150000000  0.4878600000000 1.0
C      1  0.5478740000000  0.4394250000000  0.5578930000000 1.0
C      1  0.4244970000000  0.4626840000000  0.4527400000000 1.0
C      1  0.4568260000000  0.4724420000000  0.5088600000000 1.0
C      1  0.4817910000000  0.4120020000000  0.5543820000000 1.0
C      1  0.4384370000000  0.4727810000000  0.5571040000000 1.0
C      1  0.5772270000000  0.5247430000000  0.4827370000000 1.0
C      1  0.4564380000000  0.4260130000000  0.5550260000000 1.0
C      1  0.4656210000000  0.5914170000000  0.4918770000000 1.0
C      1  0.4107300000000  0.4883510000000  0.4902960000000 1.0
C      1  0.5500840000000  0.5228770000000  0.4433190000000 1.0
C      1  0.5820500000000  0.4535920000000  0.5025650000000 1.0
C      1  0.4960340000000  0.5763970000000  0.4536880000000 1.0
C      1  0.5040450000000  0.5387680000000  0.4158030000000 1.0
C      1  0.5736080000000  0.4669010000000  0.4324500000000 1.0
C      1  0.4902810000000  0.5941520000000  0.5366470000000 1.0
C      1  0.4520050000000  0.5253280000000  0.5647950000000 1.0
C      1  0.5282600000000  0.5383330000000  0.4856750000000 1.0
C      1  0.5197200000000  0.4678350000000  0.5401410000000 1.0
C      1  0.5497820000000  0.5305900000000  0.5521090000000 1.0
C      1  0.5402570000000  0.5693370000000  0.4390850000000 1.0
C      1  0.5514880000000  0.4502150000000  0.4989550000000 1.0
C      1  0.5171130000000  0.4774630000000  0.4784230000000 1.0
C      1  0.5386300000000  0.4230740000000  0.4997440000000 1.0
C      1  0.4568550000000  0.4994860000000  0.5237250000000 1.0
C      1  0.5429880000000  0.5071780000000  0.4203400000000 1.0
C      1  0.5032500000000  0.4871680000000  0.4132730000000 1.0
C      1  0.5957510000000  0.4517350000000  0.4788990000000 1.0
C      1  0.5417790000000  0.4605090000000  0.4715890000000 1.0
C      1  0.5257020000000  0.5288960000000  0.5300420000000 1.0
C      1  0.4797450000000  0.4174570000000  0.4585410000000 1.0
C      1  0.5164380000000  0.5129210000000  0.4111310000000 1.0
C      1  0.5049870000000  0.4460400000000  0.5786260000000 1.0
C      1  0.5228100000000  0.4669680000000  0.4204380000000 1.0
C      1  0.4619380000000  0.5079920000000  0.4314920000000 1.0
C      1  0.5134550000000  0.5642700000000  0.4296580000000 1.0
C      1  0.5008740000000  0.5141580000000  0.5371350000000 1.0
C      1  0.5549800000000  0.5026310000000  0.5558170000000 1.0
C      1  0.4305700000000  0.4248250000000  0.4808510000000 1.0
C      1  0.4042070000000  0.4610740000000  0.4941460000000 1.0
C      1  0.4771820000000  0.5344610000000  0.4283710000000 1.0
C      1  0.5623240000000  0.5772560000000  0.4807130000000 1.0
C      1  0.5878440000000  0.4571300000000  0.4541900000000 1.0
C      1  0.4857890000000  0.5583290000000  0.5673990000000 1.0
C      1  0.4990440000000  0.4084690000000  0.4791490000000 1.0
C      1  0.5060360000000  0.5016590000000  0.4693910000000 1.0
C      1  0.4552260000000  0.4514630000000  0.5668080000000 1.0
C      1  0.4874860000000  0.6006610000000  0.5081340000000 1.0
C      1  0.5420200000000  0.5860440000000  0.4617220000000 1.0
C      1  0.4804420000000  0.4604620000000  0.5781780000000 1.0
C      1  0.5135840000000  0.6003150000000  0.4969420000000 1.0
C      1  0.4684430000000  0.5805990000000  0.4650350000000 1.0
C      1  0.5313310000000  0.5415210000000  0.5734810000000 1.0
C      1  0.5710480000000  0.5402390000000  0.5325810000000 1.0
C      1  0.4295790000000  0.4253100000000  0.5106490000000 1.0
END
