TITL C-98986-2935-3 31.2650265498419 125000 -563.752492834249 0 0 81 (C1) n - 1
REM
REM in /rds/project/t2_vol4/rds-t2-cs072/BORA/CARBON/from-Arr/AIRSS/Generating-Clusters/GAP-ML-2020/Only-C1/SD-CG/HFTN-CG
REM
REM
REM
REM
REM
REM ./C.cell (11c1c37f851c82e70ff6c80c92926a4b)
REM AIRSS Version 0.9.1 bugfix July 2018 build 013d7b7c2542+ Fri, 06 Jul 2018 19:26:36 +0100
REM compiler GCC version 9.3.0
REM options -cpp -mtune=generic -march=x86-64 -g -O0
REM seed 1383859500 -611163383 -223770852 -463666970 2048357321 436629812 2093109879 -390570461 1829753270 -1610630286 -1763866793 -1246088823 -1659152175 -137810166 1155687701 -182954254 -1626064839 2129157171 -488632385 766702738 -2080926719 786307048 1309715784 9476250 -1676090127 -1140475380 -1590970930 236361517 282706660 1071806163 -1971416527 -1270347281 -2059447513
REM
CELL 1.54180   50.00000   50.00000   50.00000   90.00000   90.00000   90.00000
LATT -1
SFAC C  
C      1  0.5392080000000  0.4437670000000  0.5385010000000 1.0
C      1  0.4728710000000  0.4502830000000  0.4492030000000 1.0
C      1  0.5398450000000  0.5354110000000  0.5377260000000 1.0
C      1  0.5231510000000  0.5120990000000  0.4975820000000 1.0
C      1  0.4435190000000  0.4758270000000  0.5456910000000 1.0
C      1  0.5206750000000  0.5537190000000  0.5505820000000 1.0
C      1  0.4860820000000  0.5192530000000  0.5227570000000 1.0
C      1  0.5244710000000  0.4822020000000  0.4579470000000 1.0
C      1  0.4534360000000  0.4871580000000  0.4295810000000 1.0
C      1  0.5224200000000  0.4304410000000  0.5176900000000 1.0
C      1  0.5470130000000  0.4866670000000  0.5549510000000 1.0
C      1  0.4831970000000  0.5323410000000  0.4972200000000 1.0
C      1  0.4488000000000  0.4402560000000  0.5065020000000 1.0
C      1  0.4361630000000  0.4791940000000  0.4735350000000 1.0
C      1  0.4470850000000  0.4871560000000  0.5181100000000 1.0
C      1  0.4553990000000  0.5150950000000  0.4336240000000 1.0
C      1  0.5358300000000  0.4875880000000  0.4297360000000 1.0
C      1  0.4401130000000  0.4306960000000  0.5310690000000 1.0
C      1  0.5722750000000  0.5136210000000  0.4820770000000 1.0
C      1  0.4855390000000  0.4471470000000  0.5450060000000 1.0
C      1  0.5159060000000  0.5717850000000  0.5026770000000 1.0
C      1  0.4749920000000  0.4312620000000  0.4980610000000 1.0
C      1  0.5075500000000  0.5284020000000  0.4289600000000 1.0
C      1  0.5278950000000  0.4766450000000  0.5740680000000 1.0
C      1  0.4939800000000  0.4324550000000  0.5200570000000 1.0
C      1  0.5092680000000  0.5726230000000  0.5310030000000 1.0
C      1  0.5585370000000  0.5258670000000  0.4598950000000 1.0
C      1  0.4351170000000  0.5085850000000  0.4782620000000 1.0
C      1  0.5581550000000  0.5133760000000  0.5477380000000 1.0
C      1  0.5029130000000  0.4371070000000  0.5667260000000 1.0
C      1  0.5524200000000  0.5119560000000  0.4360890000000 1.0
C      1  0.5219010000000  0.4851510000000  0.5312180000000 1.0
C      1  0.4915360000000  0.5152330000000  0.5745430000000 1.0
C      1  0.4967720000000  0.5671720000000  0.4580190000000 1.0
C      1  0.4560300000000  0.5523800000000  0.4630120000000 1.0
C      1  0.4396400000000  0.4667940000000  0.4983970000000 1.0
C      1  0.4794200000000  0.4900900000000  0.5190820000000 1.0
C      1  0.5687250000000  0.4860160000000  0.4895220000000 1.0
C      1  0.5745010000000  0.5276700000000  0.5064180000000 1.0
C      1  0.5228310000000  0.4823930000000  0.5015440000000 1.0
C      1  0.4370930000000  0.5131580000000  0.5072140000000 1.0
C      1  0.5261760000000  0.4488540000000  0.5641520000000 1.0
C      1  0.4816820000000  0.5770760000000  0.5387320000000 1.0
C      1  0.4949260000000  0.4770400000000  0.5418500000000 1.0
C      1  0.4935920000000  0.5732190000000  0.4853760000000 1.0
C      1  0.4911880000000  0.4622650000000  0.4302430000000 1.0
C      1  0.4833980000000  0.5152830000000  0.4228840000000 1.0
C      1  0.5165350000000  0.5155680000000  0.5256810000000 1.0
C      1  0.5734010000000  0.4818700000000  0.5175000000000 1.0
C      1  0.5772430000000  0.5082600000000  0.5279560000000 1.0
C      1  0.4721790000000  0.5655440000000  0.4450770000000 1.0
C      1  0.5299580000000  0.5134290000000  0.4195550000000 1.0
C      1  0.4495420000000  0.4683690000000  0.4498840000000 1.0
C      1  0.5197150000000  0.4611430000000  0.4359710000000 1.0
C      1  0.5576830000000  0.4663970000000  0.5369510000000 1.0
C      1  0.5127800000000  0.5429020000000  0.4557820000000 1.0
C      1  0.5017470000000  0.5216860000000  0.4781400000000 1.0
C      1  0.4576020000000  0.5843920000000  0.5271690000000 1.0
C      1  0.4950040000000  0.4807320000000  0.4942250000000 1.0
C      1  0.5449840000000  0.4433430000000  0.4738360000000 1.0
C      1  0.5105000000000  0.4253220000000  0.4678370000000 1.0
C      1  0.5435840000000  0.4724530000000  0.4798900000000 1.0
C      1  0.4634570000000  0.5318070000000  0.5431380000000 1.0
C      1  0.5549030000000  0.5464140000000  0.5135040000000 1.0
C      1  0.5289540000000  0.4385390000000  0.4499870000000 1.0
C      1  0.4805130000000  0.4860600000000  0.4191850000000 1.0
C      1  0.5402060000000  0.5470760000000  0.4670170000000 1.0
C      1  0.5288980000000  0.4263320000000  0.4906870000000 1.0
C      1  0.5026220000000  0.4899190000000  0.5703050000000 1.0
C      1  0.4440600000000  0.5266970000000  0.4571740000000 1.0
C      1  0.4549090000000  0.4487700000000  0.5443370000000 1.0
C      1  0.4970300000000  0.4938290000000  0.4684320000000 1.0
C      1  0.4768670000000  0.5546540000000  0.5562270000000 1.0
C      1  0.4998670000000  0.5429410000000  0.5674330000000 1.0
C      1  0.4675840000000  0.5574960000000  0.4902500000000 1.0
C      1  0.4417190000000  0.5362610000000  0.5232600000000 1.0
C      1  0.4831530000000  0.4328540000000  0.4704120000000 1.0
C      1  0.4632840000000  0.5141460000000  0.5666900000000 1.0
C      1  0.5399880000000  0.5595000000000  0.4931830000000 1.0
C      1  0.4490190000000  0.5626790000000  0.5124530000000 1.0
C      1  0.4472750000000  0.4928360000000  0.5660340000000 1.0
END
