TITL C-98126-1174-6 0.0130027225971512 125000 -116.880031686851 0 0 18 (C1) n - 1
REM
REM in /rds/project/t2_vol4/rds-t2-cs072/BORA/CARBON/from-Arr/AIRSS/Generating-Clusters/GAP-ML-2020/Only-C1/SD-CG/HFTN-CG
REM
REM
REM
REM
REM
REM ./C.cell (11c1c37f851c82e70ff6c80c92926a4b)
REM AIRSS Version 0.9.1 bugfix July 2018 build 013d7b7c2542+ Fri, 06 Jul 2018 19:26:36 +0100
REM compiler GCC version 9.3.0
REM options -cpp -mtune=generic -march=x86-64 -g -O0
REM seed 1537460127 -1702233442 -850437689 1007083785 880196241 783918326 -1313504390 346209831 -593006987 -888579504 -1349351588 -1322486165 -1068038403 -194069196 1638103459 761118852 -1292411934 -375697674 -303787981 -203488313 -940994801 -1990693168 -603313667 -1917386629 1627886339 1488835404 1699564635 -1305620495 -1923704061 755869853 -1164132557 1265559633 -278455612
REM
CELL 1.54180   50.00000   50.00000   50.00000   90.00000   90.00000   90.00000
LATT -1
SFAC C  
C      1  0.4839130000000  0.5292220000000  0.4588810000000 1.0
C      1  0.4503730000000  0.4953680000000  0.4864430000000 1.0
C      1  0.4638260000000  0.5136990000000  0.5263010000000 1.0
C      1  0.4495950000000  0.5153280000000  0.5034790000000 1.0
C      1  0.5596950000000  0.5211900000000  0.5011900000000 1.0
C      1  0.5009890000000  0.5443110000000  0.4709580000000 1.0
C      1  0.4828050000000  0.4622110000000  0.4828110000000 1.0
C      1  0.5443790000000  0.5401410000000  0.4930930000000 1.0
C      1  0.5218120000000  0.5505380000000  0.4842170000000 1.0
C      1  0.5596850000000  0.4953410000000  0.5076630000000 1.0
C      1  0.5091900000000  0.4682910000000  0.5416980000000 1.0
C      1  0.4598220000000  0.4740880000000  0.4747360000000 1.0
C      1  0.5217360000000  0.4612310000000  0.5172720000000 1.0
C      1  0.5457110000000  0.4749690000000  0.5133310000000 1.0
C      1  0.4716860000000  0.5134090000000  0.4424140000000 1.0
C      1  0.5031950000000  0.4563650000000  0.4961160000000 1.0
C      1  0.4943220000000  0.4837720000000  0.5559240000000 1.0
C      1  0.4772690000000  0.5005250000000  0.5434750000000 1.0
END
