TITL C-98973-4040-11 -0.0298712612824626 125000 -657.188942799345 0 0 94 (C1) n - 1
REM
REM in /rds/project/t2_vol4/rds-t2-cs072/BORA/CARBON/from-Arr/AIRSS/Generating-Clusters/GAP-ML-2020/Only-C1/SD-CG/HFTN-CG
REM
REM
REM
REM
REM
REM ./C.cell (11c1c37f851c82e70ff6c80c92926a4b)
REM AIRSS Version 0.9.1 bugfix July 2018 build 013d7b7c2542+ Fri, 06 Jul 2018 19:26:36 +0100
REM compiler GCC version 9.3.0
REM options -cpp -mtune=generic -march=x86-64 -g -O0
REM seed 1508962822 1991853142 -836011742 -2069153129 -2123636132 204595496 832306571 -1719856577 -1080155781 773145344 -1981557392 -129651399 1076503983 -1116955508 136466885 -252399810 -981422584 43078375 -2104281473 1885480869 1550167473 -1753925126 -1419191148 1083301874 -1264834760 -1657474300 1801906847 515905213 653041807 302453799 -458101151 -1503456129 44798446
REM
CELL 1.54180   50.00000   50.00000   50.00000   90.00000   90.00000   90.00000
LATT -1
SFAC C  
C      1  0.5094750000000  0.5579860000000  0.5336860000000 1.0
C      1  0.4311120000000  0.4588100000000  0.5401050000000 1.0
C      1  0.5809610000000  0.4755970000000  0.5197160000000 1.0
C      1  0.5701920000000  0.4610660000000  0.4594640000000 1.0
C      1  0.4963810000000  0.5023260000000  0.5241730000000 1.0
C      1  0.4610720000000  0.5143750000000  0.5786020000000 1.0
C      1  0.4923210000000  0.5888210000000  0.5029920000000 1.0
C      1  0.5825390000000  0.5236390000000  0.5209380000000 1.0
C      1  0.4949690000000  0.5383790000000  0.4893490000000 1.0
C      1  0.5415910000000  0.5598080000000  0.4775490000000 1.0
C      1  0.5504420000000  0.5110040000000  0.5555130000000 1.0
C      1  0.5598710000000  0.5431380000000  0.5224710000000 1.0
C      1  0.5220150000000  0.5490020000000  0.5570570000000 1.0
C      1  0.5377580000000  0.5147550000000  0.4838600000000 1.0
C      1  0.4855630000000  0.4383040000000  0.4427190000000 1.0
C      1  0.4245340000000  0.5570300000000  0.4783230000000 1.0
C      1  0.5979080000000  0.5149960000000  0.4985420000000 1.0
C      1  0.4548120000000  0.4630510000000  0.4296780000000 1.0
C      1  0.5548920000000  0.4534800000000  0.5505680000000 1.0
C      1  0.5106130000000  0.4568430000000  0.5232610000000 1.0
C      1  0.5508920000000  0.4366810000000  0.5023880000000 1.0
C      1  0.4373920000000  0.5057120000000  0.4491520000000 1.0
C      1  0.4509770000000  0.4254160000000  0.4948230000000 1.0
C      1  0.4727390000000  0.5373340000000  0.5660260000000 1.0
C      1  0.5371660000000  0.5248940000000  0.5114320000000 1.0
C      1  0.4649260000000  0.5753450000000  0.4753050000000 1.0
C      1  0.4935110000000  0.5818770000000  0.4745200000000 1.0
C      1  0.5017570000000  0.5345390000000  0.5706230000000 1.0
C      1  0.5881870000000  0.4801140000000  0.4681880000000 1.0
C      1  0.4407260000000  0.4431700000000  0.4742740000000 1.0
C      1  0.4813910000000  0.4550240000000  0.5176120000000 1.0
C      1  0.5995990000000  0.5241180000000  0.4720290000000 1.0
C      1  0.5541610000000  0.5666360000000  0.5030050000000 1.0
C      1  0.4658190000000  0.4685690000000  0.5761860000000 1.0
C      1  0.5203130000000  0.5430160000000  0.4462700000000 1.0
C      1  0.5121570000000  0.5594030000000  0.4702280000000 1.0
C      1  0.4567390000000  0.4434500000000  0.4504130000000 1.0
C      1  0.5172390000000  0.5007810000000  0.4211050000000 1.0
C      1  0.4374430000000  0.4168600000000  0.5165080000000 1.0
C      1  0.5134790000000  0.5824340000000  0.5203380000000 1.0
C      1  0.5720270000000  0.5000180000000  0.5331290000000 1.0
C      1  0.5491980000000  0.4644290000000  0.4396090000000 1.0
C      1  0.4276460000000  0.4723860000000  0.5148060000000 1.0
C      1  0.5067830000000  0.5312450000000  0.5149840000000 1.0
C      1  0.4131830000000  0.5363160000000  0.4933440000000 1.0
C      1  0.5440430000000  0.5326840000000  0.4602460000000 1.0
C      1  0.4649540000000  0.5798840000000  0.5047310000000 1.0
C      1  0.5360700000000  0.4664830000000  0.5652520000000 1.0
C      1  0.4255230000000  0.4927190000000  0.4719630000000 1.0
C      1  0.5415770000000  0.5015920000000  0.5280630000000 1.0
C      1  0.4582440000000  0.5303880000000  0.4527880000000 1.0
C      1  0.4477350000000  0.4902690000000  0.4282670000000 1.0
C      1  0.4983610000000  0.4908570000000  0.5521640000000 1.0
C      1  0.5228490000000  0.4347250000000  0.5067360000000 1.0
C      1  0.5398940000000  0.5875320000000  0.5137210000000 1.0
C      1  0.5244430000000  0.4901980000000  0.4861160000000 1.0
C      1  0.4785480000000  0.4328310000000  0.4985980000000 1.0
C      1  0.4395520000000  0.5031820000000  0.5639870000000 1.0
C      1  0.5039880000000  0.4274450000000  0.4868960000000 1.0
C      1  0.4712930000000  0.4390380000000  0.5412710000000 1.0
C      1  0.5355300000000  0.4952610000000  0.5746170000000 1.0
C      1  0.5348130000000  0.4411920000000  0.4533530000000 1.0
C      1  0.4727950000000  0.4885140000000  0.5107620000000 1.0
C      1  0.4533410000000  0.5435080000000  0.5435860000000 1.0
C      1  0.4404010000000  0.4996480000000  0.5159940000000 1.0
C      1  0.5088490000000  0.4303700000000  0.4580320000000 1.0
C      1  0.4248430000000  0.5585710000000  0.5066590000000 1.0
C      1  0.5063410000000  0.5273480000000  0.4284360000000 1.0
C      1  0.5602170000000  0.5127600000000  0.4432780000000 1.0
C      1  0.5648880000000  0.4515410000000  0.5244930000000 1.0
C      1  0.4243030000000  0.5108250000000  0.4934790000000 1.0
C      1  0.4830830000000  0.4591460000000  0.4218420000000 1.0
C      1  0.4477260000000  0.5575020000000  0.4623850000000 1.0
C      1  0.5076360000000  0.5059030000000  0.5763340000000 1.0
C      1  0.5549570000000  0.4406950000000  0.4742800000000 1.0
C      1  0.4768960000000  0.5270970000000  0.4285210000000 1.0
C      1  0.4436620000000  0.4328320000000  0.5378950000000 1.0
C      1  0.4782640000000  0.4939920000000  0.4823250000000 1.0
C      1  0.4796890000000  0.4938530000000  0.5823230000000 1.0
C      1  0.5432450000000  0.4920750000000  0.4304700000000 1.0
C      1  0.4409470000000  0.4743340000000  0.5625580000000 1.0
C      1  0.5477890000000  0.5391190000000  0.5507610000000 1.0
C      1  0.5016470000000  0.4849760000000  0.4726800000000 1.0
C      1  0.4750650000000  0.5221640000000  0.4774570000000 1.0
C      1  0.4386590000000  0.5180310000000  0.5403300000000 1.0
C      1  0.5927040000000  0.4855840000000  0.4960740000000 1.0
C      1  0.5205380000000  0.4847830000000  0.5150460000000 1.0
C      1  0.4834010000000  0.4500910000000  0.5637370000000 1.0
C      1  0.4486370000000  0.5629130000000  0.5222570000000 1.0
C      1  0.4707220000000  0.5028320000000  0.4162190000000 1.0
C      1  0.5088900000000  0.4621500000000  0.5538550000000 1.0
C      1  0.4284650000000  0.4666330000000  0.4854630000000 1.0
C      1  0.4935190000000  0.4851970000000  0.4140400000000 1.0
C      1  0.5859960000000  0.5065530000000  0.4547980000000 1.0
END
