TITL C-98985-2875-2 169.90745484881 125000 -755.691650598518 0 0 108 (C1) n - 1
REM
REM in /rds/project/t2_vol4/rds-t2-cs072/BORA/CARBON/from-Arr/AIRSS/Generating-Clusters/GAP-ML-2020/Only-C1/SD-CG/HFTN-CG
REM
REM
REM
REM
REM
REM ./C.cell (11c1c37f851c82e70ff6c80c92926a4b)
REM AIRSS Version 0.9.1 bugfix July 2018 build 013d7b7c2542+ Fri, 06 Jul 2018 19:26:36 +0100
REM compiler GCC version 9.3.0
REM options -cpp -mtune=generic -march=x86-64 -g -O0
REM seed 419141905 -872636976 1281746239 1386731005 -866996901 -1351436900 -378155408 -639648261 119741531 -39949234 1734437498 1318477729 -1860426825 -149087482 1961850888 -744651972 -1990617180 -313412688 -1336367432 630115132 2086456215 -949226788 -193140725 -655572875 916765993 -780395233 -729537942 -522259803 -649877371 -1369770304 1173599659 -1156213034 -184407209
REM
CELL 1.54180   50.00000   50.00000   50.00000   90.00000   90.00000   90.00000
LATT -1
SFAC C  
C      1  0.4219870000000  0.4738350000000  0.5471130000000 1.0
C      1  0.4922830000000  0.5750040000000  0.5005240000000 1.0
C      1  0.4442300000000  0.5636690000000  0.4946350000000 1.0
C      1  0.5683760000000  0.5628060000000  0.5078340000000 1.0
C      1  0.5565540000000  0.5152770000000  0.4799070000000 1.0
C      1  0.5009340000000  0.4480730000000  0.4526050000000 1.0
C      1  0.4541210000000  0.4688400000000  0.5154710000000 1.0
C      1  0.5731610000000  0.5452190000000  0.4601920000000 1.0
C      1  0.5218130000000  0.4854540000000  0.5385520000000 1.0
C      1  0.4895890000000  0.5173490000000  0.5217900000000 1.0
C      1  0.4982760000000  0.5013860000000  0.5797600000000 1.0
C      1  0.5259360000000  0.5288070000000  0.5121550000000 1.0
C      1  0.5375970000000  0.5599840000000  0.5499240000000 1.0
C      1  0.5845840000000  0.5184880000000  0.4938950000000 1.0
C      1  0.4781170000000  0.4889440000000  0.4745030000000 1.0
C      1  0.5266030000000  0.5489510000000  0.4531490000000 1.0
C      1  0.4763830000000  0.5280050000000  0.4981800000000 1.0
C      1  0.5746130000000  0.4587940000000  0.4684120000000 1.0
C      1  0.4872070000000  0.4133370000000  0.4754920000000 1.0
C      1  0.4984050000000  0.5172550000000  0.4324850000000 1.0
C      1  0.5776250000000  0.4643050000000  0.4964210000000 1.0
C      1  0.5907990000000  0.4917880000000  0.5029730000000 1.0
C      1  0.4995500000000  0.5428320000000  0.4442760000000 1.0
C      1  0.5860100000000  0.5031220000000  0.5491280000000 1.0
C      1  0.4139930000000  0.5133360000000  0.4540520000000 1.0
C      1  0.5001380000000  0.4798200000000  0.4909510000000 1.0
C      1  0.4834510000000  0.5468420000000  0.5690860000000 1.0
C      1  0.5448060000000  0.5051970000000  0.4359600000000 1.0
C      1  0.5015810000000  0.4560810000000  0.5704870000000 1.0
C      1  0.5482910000000  0.5739880000000  0.5266120000000 1.0
C      1  0.4064320000000  0.4939880000000  0.4731930000000 1.0
C      1  0.5052140000000  0.4692940000000  0.4301040000000 1.0
C      1  0.5194320000000  0.4935470000000  0.4757730000000 1.0
C      1  0.5132070000000  0.4197100000000  0.4855000000000 1.0
C      1  0.4726140000000  0.5577300000000  0.4854040000000 1.0
C      1  0.4611180000000  0.5064520000000  0.4868600000000 1.0
C      1  0.5561960000000  0.5392750000000  0.5576700000000 1.0
C      1  0.5351040000000  0.5688870000000  0.4718080000000 1.0
C      1  0.5842460000000  0.4807980000000  0.4499060000000 1.0
C      1  0.5272330000000  0.4566960000000  0.4147380000000 1.0
C      1  0.4511650000000  0.5183140000000  0.4269850000000 1.0
C      1  0.5675470000000  0.4538860000000  0.5390170000000 1.0
C      1  0.5504630000000  0.4590340000000  0.5140740000000 1.0
C      1  0.4503140000000  0.5413410000000  0.4445780000000 1.0
C      1  0.5329850000000  0.5918600000000  0.5135410000000 1.0
C      1  0.5012250000000  0.4760130000000  0.5890200000000 1.0
C      1  0.5432630000000  0.4882510000000  0.5194710000000 1.0
C      1  0.5060650000000  0.5562180000000  0.5488680000000 1.0
C      1  0.4980410000000  0.4871700000000  0.5199790000000 1.0
C      1  0.4099170000000  0.5005840000000  0.5017080000000 1.0
C      1  0.5494070000000  0.5292830000000  0.4516100000000 1.0
C      1  0.5171090000000  0.4968880000000  0.4434930000000 1.0
C      1  0.4754630000000  0.5053390000000  0.4213090000000 1.0
C      1  0.5619740000000  0.4836350000000  0.4323110000000 1.0
C      1  0.4450770000000  0.5140210000000  0.5294730000000 1.0
C      1  0.5822670000000  0.5393450000000  0.5153880000000 1.0
C      1  0.4251770000000  0.5386220000000  0.4597030000000 1.0
C      1  0.4578320000000  0.4496380000000  0.4896090000000 1.0
C      1  0.4053500000000  0.4773170000000  0.5203940000000 1.0
C      1  0.5901620000000  0.4581780000000  0.5255550000000 1.0
C      1  0.4422710000000  0.4956250000000  0.5069350000000 1.0
C      1  0.5517570000000  0.4452860000000  0.4560110000000 1.0
C      1  0.4296020000000  0.5011720000000  0.4335130000000 1.0
C      1  0.5185470000000  0.5824260000000  0.4919560000000 1.0
C      1  0.4421930000000  0.5149890000000  0.5748490000000 1.0
C      1  0.4283990000000  0.4923900000000  0.5655250000000 1.0
C      1  0.5295300000000  0.4417420000000  0.5272800000000 1.0
C      1  0.4780850000000  0.4547370000000  0.5542060000000 1.0
C      1  0.4224340000000  0.5472700000000  0.4861560000000 1.0
C      1  0.4550420000000  0.4594430000000  0.4280960000000 1.0
C      1  0.4319510000000  0.4734330000000  0.4383510000000 1.0
C      1  0.5118990000000  0.5296260000000  0.5365910000000 1.0
C      1  0.4287160000000  0.5393130000000  0.5316290000000 1.0
C      1  0.4826980000000  0.4246530000000  0.4487970000000 1.0
C      1  0.5623550000000  0.5633560000000  0.4794110000000 1.0
C      1  0.4740140000000  0.5528960000000  0.4549820000000 1.0
C      1  0.5954290000000  0.5265340000000  0.4661380000000 1.0
C      1  0.4161090000000  0.4527910000000  0.5102050000000 1.0
C      1  0.4600140000000  0.4341030000000  0.4381530000000 1.0
C      1  0.4416230000000  0.5642720000000  0.5221870000000 1.0
C      1  0.4684850000000  0.4219860000000  0.4951580000000 1.0
C      1  0.4631510000000  0.4354090000000  0.5408830000000 1.0
C      1  0.5106630000000  0.4251310000000  0.5140860000000 1.0
C      1  0.4805730000000  0.4237520000000  0.5206770000000 1.0
C      1  0.5794780000000  0.5306150000000  0.5421170000000 1.0
C      1  0.5543680000000  0.4659880000000  0.5600040000000 1.0
C      1  0.4892850000000  0.5734810000000  0.5291820000000 1.0
C      1  0.5494770000000  0.4575920000000  0.4295720000000 1.0
C      1  0.4749580000000  0.5174110000000  0.5723710000000 1.0
C      1  0.5195700000000  0.5086320000000  0.5589080000000 1.0
C      1  0.5467430000000  0.5145970000000  0.5685620000000 1.0
C      1  0.5994410000000  0.5032930000000  0.4524610000000 1.0
C      1  0.4626210000000  0.5721310000000  0.5384530000000 1.0
C      1  0.4587730000000  0.5578040000000  0.5624390000000 1.0
C      1  0.4774840000000  0.4768590000000  0.4206880000000 1.0
C      1  0.4359940000000  0.5405750000000  0.5619400000000 1.0
C      1  0.5644530000000  0.4928750000000  0.5643870000000 1.0
C      1  0.4182280000000  0.4689880000000  0.4639410000000 1.0
C      1  0.5258470000000  0.4359760000000  0.4649830000000 1.0
C      1  0.5352480000000  0.5068670000000  0.4968670000000 1.0
C      1  0.4696150000000  0.5078280000000  0.5421890000000 1.0
C      1  0.5260640000000  0.4585260000000  0.5522410000000 1.0
C      1  0.4275120000000  0.4516610000000  0.4839860000000 1.0
C      1  0.4808610000000  0.4614140000000  0.4742340000000 1.0
C      1  0.4118990000000  0.5310180000000  0.5072480000000 1.0
C      1  0.4745440000000  0.4781530000000  0.5355000000000 1.0
C      1  0.4365690000000  0.4513890000000  0.5326760000000 1.0
C      1  0.5968160000000  0.4858870000000  0.5297150000000 1.0
END
