TITL C-99002-2850-9 -450.044989545721 125000 -955.675110133842 0 0 136 (C1) n - 1
REM
REM in /rds/project/t2_vol4/rds-t2-cs072/BORA/CARBON/from-Arr/AIRSS/Generating-Clusters/GAP-ML-2020/Only-C1/SD-CG/HFTN-CG
REM
REM
REM
REM
REM
REM ./C.cell (11c1c37f851c82e70ff6c80c92926a4b)
REM AIRSS Version 0.9.1 bugfix July 2018 build 013d7b7c2542+ Fri, 06 Jul 2018 19:26:36 +0100
REM compiler GCC version 9.3.0
REM options -cpp -mtune=generic -march=x86-64 -g -O0
REM seed 547390215 1801287465 -1056453647 2076113373 -2092351315 -791984122 1001474692 -2053957121 58165205 201490530 -1178744067 -1808083900 1041057583 658963402 934189607 -670827158 -2023632948 -1548015430 1390731230 969596282 982702400 -1615322472 -1208651459 481087919 -1737668714 607110333 1926884035 1306350725 -496611055 -788646153 -1907434271 -572051243 1523305173
REM
CELL 1.54180   50.00000   50.00000   50.00000   90.00000   90.00000   90.00000
LATT -1
SFAC C  
C      1  0.5055750000000  0.5016520000000  0.5751630000000 1.0
C      1  0.5883460000000  0.5126190000000  0.5056730000000 1.0
C      1  0.5805500000000  0.5010300000000  0.4354430000000 1.0
C      1  0.5363590000000  0.6039220000000  0.5040180000000 1.0
C      1  0.6024290000000  0.4639800000000  0.5071600000000 1.0
C      1  0.4415430000000  0.5189700000000  0.4313130000000 1.0
C      1  0.4764030000000  0.5803220000000  0.4506350000000 1.0
C      1  0.5152340000000  0.3866960000000  0.4861270000000 1.0
C      1  0.4698030000000  0.5057340000000  0.5330320000000 1.0
C      1  0.5614090000000  0.4778530000000  0.5253120000000 1.0
C      1  0.4380240000000  0.4376270000000  0.5385020000000 1.0
C      1  0.5476450000000  0.5273360000000  0.4101760000000 1.0
C      1  0.4434270000000  0.5222370000000  0.5913100000000 1.0
C      1  0.4114660000000  0.4796180000000  0.5432110000000 1.0
C      1  0.4666200000000  0.4952570000000  0.4850340000000 1.0
C      1  0.5198160000000  0.5795870000000  0.4666160000000 1.0
C      1  0.4599970000000  0.4203430000000  0.5473200000000 1.0
C      1  0.5823940000000  0.4875700000000  0.4620500000000 1.0
C      1  0.4366210000000  0.5464290000000  0.4383100000000 1.0
C      1  0.4637280000000  0.4867680000000  0.5121040000000 1.0
C      1  0.5482810000000  0.4918230000000  0.5672810000000 1.0
C      1  0.5979660000000  0.5097620000000  0.4774490000000 1.0
C      1  0.5135210000000  0.5516990000000  0.4990020000000 1.0
C      1  0.4350990000000  0.4407670000000  0.5079060000000 1.0
C      1  0.4981310000000  0.4268740000000  0.4724040000000 1.0
C      1  0.5353680000000  0.5506160000000  0.5220290000000 1.0
C      1  0.5815910000000  0.4568410000000  0.4650320000000 1.0
C      1  0.4628990000000  0.4366290000000  0.5000660000000 1.0
C      1  0.4968300000000  0.4754660000000  0.5871240000000 1.0
C      1  0.4267990000000  0.5735340000000  0.4744220000000 1.0
C      1  0.5425860000000  0.4647580000000  0.5683470000000 1.0
C      1  0.5764000000000  0.5270210000000  0.5481920000000 1.0
C      1  0.4689660000000  0.5180550000000  0.4216370000000 1.0
C      1  0.4496150000000  0.5725150000000  0.4922760000000 1.0
C      1  0.5050160000000  0.4593820000000  0.5117430000000 1.0
C      1  0.5329480000000  0.5099280000000  0.5809480000000 1.0
C      1  0.4418450000000  0.4747180000000  0.5792670000000 1.0
C      1  0.5262890000000  0.4035640000000  0.5060780000000 1.0
C      1  0.5049010000000  0.5868130000000  0.5401070000000 1.0
C      1  0.4541960000000  0.4348980000000  0.4523810000000 1.0
C      1  0.4499830000000  0.5795930000000  0.5221690000000 1.0
C      1  0.4255280000000  0.4977500000000  0.4431300000000 1.0
C      1  0.5625260000000  0.4414700000000  0.4498380000000 1.0
C      1  0.5080840000000  0.5046180000000  0.4499230000000 1.0
C      1  0.5164950000000  0.4825840000000  0.4975570000000 1.0
C      1  0.4674140000000  0.5094320000000  0.5980450000000 1.0
C      1  0.4763020000000  0.4606960000000  0.5164760000000 1.0
C      1  0.5858250000000  0.5286100000000  0.4375150000000 1.0
C      1  0.4734260000000  0.4090920000000  0.5044090000000 1.0
C      1  0.4902940000000  0.5222020000000  0.5896420000000 1.0
C      1  0.4954650000000  0.5314570000000  0.4588180000000 1.0
C      1  0.4943700000000  0.5304280000000  0.5061660000000 1.0
C      1  0.5392370000000  0.5200110000000  0.5202930000000 1.0
C      1  0.4206090000000  0.5342000000000  0.4999800000000 1.0
C      1  0.5422970000000  0.4433710000000  0.4894760000000 1.0
C      1  0.5244010000000  0.5409710000000  0.4099610000000 1.0
C      1  0.5030610000000  0.4833960000000  0.4698870000000 1.0
C      1  0.5446050000000  0.5374360000000  0.4557550000000 1.0
C      1  0.5542970000000  0.4950430000000  0.4752040000000 1.0
C      1  0.4736870000000  0.5831430000000  0.4786830000000 1.0
C      1  0.5538770000000  0.4996400000000  0.4225870000000 1.0
C      1  0.4975300000000  0.4962950000000  0.5422650000000 1.0
C      1  0.4107300000000  0.5023250000000  0.5607550000000 1.0
C      1  0.4060820000000  0.4907360000000  0.5162180000000 1.0
C      1  0.4678750000000  0.5336610000000  0.5225580000000 1.0
C      1  0.5111570000000  0.5974840000000  0.5136670000000 1.0
C      1  0.5889760000000  0.4852360000000  0.5170080000000 1.0
C      1  0.5384440000000  0.5078920000000  0.4516620000000 1.0
C      1  0.5183340000000  0.4258880000000  0.4518940000000 1.0
C      1  0.4090280000000  0.5188780000000  0.5199810000000 1.0
C      1  0.5447650000000  0.4747710000000  0.4948700000000 1.0
C      1  0.4849890000000  0.4237960000000  0.5630660000000 1.0
C      1  0.5126100000000  0.5077430000000  0.5167370000000 1.0
C      1  0.5189450000000  0.4396640000000  0.4279110000000 1.0
C      1  0.4306860000000  0.4507780000000  0.4582750000000 1.0
C      1  0.5908120000000  0.5335620000000  0.4642740000000 1.0
C      1  0.5509990000000  0.4736800000000  0.4129640000000 1.0
C      1  0.4797390000000  0.5884410000000  0.5535690000000 1.0
C      1  0.4900590000000  0.4004930000000  0.4833850000000 1.0
C      1  0.4186490000000  0.5520960000000  0.4592800000000 1.0
C      1  0.5221450000000  0.5652800000000  0.5450590000000 1.0
C      1  0.4116060000000  0.5267210000000  0.5468210000000 1.0
C      1  0.4981300000000  0.4489200000000  0.5634900000000 1.0
C      1  0.4544850000000  0.5549630000000  0.5386130000000 1.0
C      1  0.5649340000000  0.4326360000000  0.5054640000000 1.0
C      1  0.5633850000000  0.5684910000000  0.4894960000000 1.0
C      1  0.4772050000000  0.4033980000000  0.5309940000000 1.0
C      1  0.4608300000000  0.5614340000000  0.4362380000000 1.0
C      1  0.5671760000000  0.5405210000000  0.5692720000000 1.0
C      1  0.4447990000000  0.5473060000000  0.5778100000000 1.0
C      1  0.5191150000000  0.5486580000000  0.4683060000000 1.0
C      1  0.4683020000000  0.4807390000000  0.5921330000000 1.0
C      1  0.4295050000000  0.4600180000000  0.5554010000000 1.0
C      1  0.4091570000000  0.4813560000000  0.4892840000000 1.0
C      1  0.5151870000000  0.4350250000000  0.4976690000000 1.0
C      1  0.5193310000000  0.5532120000000  0.5700040000000 1.0
C      1  0.5296650000000  0.4093280000000  0.5333590000000 1.0
C      1  0.5458930000000  0.4511060000000  0.4270540000000 1.0
C      1  0.5062900000000  0.5564580000000  0.4216670000000 1.0
C      1  0.4662620000000  0.4396350000000  0.4266820000000 1.0
C      1  0.5868000000000  0.4468720000000  0.4924570000000 1.0
C      1  0.5042300000000  0.5791990000000  0.4420810000000 1.0
C      1  0.5442310000000  0.4240730000000  0.4651180000000 1.0
C      1  0.4755730000000  0.5238180000000  0.4815500000000 1.0
C      1  0.4111130000000  0.5019220000000  0.4678680000000 1.0
C      1  0.4541520000000  0.4647830000000  0.4197770000000 1.0
C      1  0.5615180000000  0.5427130000000  0.4304010000000 1.0
C      1  0.5646840000000  0.5422360000000  0.4766790000000 1.0
C      1  0.5841590000000  0.5370110000000  0.5227540000000 1.0
C      1  0.4729520000000  0.4431670000000  0.4726760000000 1.0
C      1  0.4970260000000  0.4661580000000  0.5390140000000 1.0
C      1  0.5519440000000  0.4294520000000  0.5322250000000 1.0
C      1  0.5546860000000  0.4545520000000  0.5442190000000 1.0
C      1  0.4810060000000  0.4741620000000  0.4128250000000 1.0
C      1  0.4102880000000  0.5294470000000  0.4744670000000 1.0
C      1  0.4770150000000  0.4741040000000  0.4695560000000 1.0
C      1  0.4931970000000  0.5485060000000  0.5797940000000 1.0
C      1  0.4931910000000  0.4479480000000  0.4193290000000 1.0
C      1  0.5392850000000  0.3980330000000  0.4806540000000 1.0
C      1  0.5027960000000  0.4078590000000  0.5458530000000 1.0
C      1  0.4706570000000  0.5619540000000  0.5680020000000 1.0
C      1  0.5588200000000  0.5175500000000  0.4950220000000 1.0
C      1  0.4518790000000  0.5399800000000  0.4969640000000 1.0
C      1  0.4299540000000  0.5468010000000  0.5542030000000 1.0
C      1  0.5644170000000  0.5582000000000  0.5153340000000 1.0
C      1  0.5560050000000  0.5030860000000  0.5413850000000 1.0
C      1  0.4326310000000  0.4710510000000  0.4376140000000 1.0
C      1  0.5410840000000  0.5364070000000  0.5773420000000 1.0
C      1  0.4896780000000  0.4989730000000  0.4227820000000 1.0
C      1  0.5176720000000  0.4569010000000  0.5814560000000 1.0
C      1  0.4280180000000  0.4997330000000  0.5820420000000 1.0
C      1  0.4811550000000  0.5428510000000  0.4293180000000 1.0
C      1  0.4591540000000  0.6002280000000  0.5372280000000 1.0
C      1  0.4217170000000  0.4552250000000  0.4858700000000 1.0
C      1  0.5003770000000  0.5814700000000  0.4911690000000 1.0
C      1  0.5447110000000  0.5886000000000  0.4821030000000 1.0
END
