TITL C-99002-2850-2 -0.0430357999010696 125000 -810.988476816119 0 0 118 (C1) n - 1
REM
REM in /rds/project/t2_vol4/rds-t2-cs072/BORA/CARBON/from-Arr/AIRSS/Generating-Clusters/GAP-ML-2020/Only-C1/SD-CG/HFTN-CG
REM
REM
REM
REM
REM
REM ./C.cell (11c1c37f851c82e70ff6c80c92926a4b)
REM AIRSS Version 0.9.1 bugfix July 2018 build 013d7b7c2542+ Fri, 06 Jul 2018 19:26:36 +0100
REM compiler GCC version 9.3.0
REM options -cpp -mtune=generic -march=x86-64 -g -O0
REM seed -318069909 -436651047 1567756724 -1897116229 -1584645439 -787734025 -350968452 1554371427 1069755932 124699969 -840909592 739359080 -1964969537 -1015095797 871728878 1837014119 828498237 -1168716506 1104641989 -346625725 -1965119059 708745528 1363184432 -109304836 -574339912 -1665248364 1235606500 -448469943 408411955 -1546559157 1039273382 824447784 -1422431960
REM
CELL 1.54180   50.00000   50.00000   50.00000   90.00000   90.00000   90.00000
LATT -1
SFAC C  
C      1  0.5075750000000  0.5918800000000  0.5002290000000 1.0
C      1  0.5004250000000  0.5540380000000  0.5105640000000 1.0
C      1  0.5644400000000  0.4999860000000  0.5588080000000 1.0
C      1  0.5016140000000  0.5206540000000  0.5898500000000 1.0
C      1  0.4939120000000  0.5365620000000  0.4702100000000 1.0
C      1  0.5088070000000  0.5768710000000  0.4547730000000 1.0
C      1  0.4671980000000  0.4406370000000  0.5138850000000 1.0
C      1  0.5499460000000  0.5694630000000  0.5436940000000 1.0
C      1  0.4508540000000  0.5583630000000  0.5274500000000 1.0
C      1  0.4590070000000  0.5700700000000  0.4459100000000 1.0
C      1  0.4724000000000  0.4651730000000  0.5292080000000 1.0
C      1  0.5681240000000  0.5285340000000  0.4893870000000 1.0
C      1  0.5390330000000  0.5206240000000  0.4537470000000 1.0
C      1  0.4332400000000  0.5432180000000  0.5439500000000 1.0
C      1  0.4264400000000  0.5283070000000  0.5003490000000 1.0
C      1  0.4541200000000  0.5188580000000  0.5660600000000 1.0
C      1  0.5644590000000  0.5514570000000  0.4322050000000 1.0
C      1  0.5826000000000  0.4594610000000  0.5020400000000 1.0
C      1  0.5778050000000  0.4839970000000  0.5405610000000 1.0
C      1  0.5378590000000  0.4916840000000  0.4898700000000 1.0
C      1  0.5305720000000  0.5173030000000  0.5876020000000 1.0
C      1  0.5552710000000  0.5238360000000  0.5423480000000 1.0
C      1  0.5141840000000  0.4094950000000  0.5109120000000 1.0
C      1  0.4267890000000  0.4551910000000  0.4452960000000 1.0
C      1  0.5811720000000  0.4533960000000  0.4546820000000 1.0
C      1  0.5650310000000  0.5633580000000  0.5199430000000 1.0
C      1  0.4107320000000  0.4694100000000  0.4865740000000 1.0
C      1  0.5335540000000  0.4665670000000  0.5740310000000 1.0
C      1  0.4215230000000  0.4532670000000  0.5538150000000 1.0
C      1  0.5630360000000  0.4704340000000  0.4440190000000 1.0
C      1  0.5328100000000  0.4422690000000  0.5573490000000 1.0
C      1  0.4208100000000  0.4833280000000  0.4436290000000 1.0
C      1  0.4881810000000  0.4084680000000  0.4932460000000 1.0
C      1  0.4265650000000  0.5122570000000  0.4781070000000 1.0
C      1  0.5571950000000  0.5824820000000  0.5030300000000 1.0
C      1  0.4536930000000  0.5397480000000  0.5045000000000 1.0
C      1  0.5004900000000  0.5336700000000  0.5362020000000 1.0
C      1  0.5145450000000  0.4536530000000  0.4257560000000 1.0
C      1  0.4380110000000  0.4260020000000  0.4836910000000 1.0
C      1  0.5353340000000  0.4582760000000  0.4474820000000 1.0
C      1  0.4925520000000  0.4939860000000  0.5858340000000 1.0
C      1  0.4453250000000  0.4925850000000  0.5730750000000 1.0
C      1  0.4666670000000  0.5759210000000  0.4718780000000 1.0
C      1  0.4985860000000  0.4147950000000  0.5354480000000 1.0
C      1  0.5006480000000  0.5792810000000  0.5276000000000 1.0
C      1  0.4766290000000  0.4501890000000  0.4841600000000 1.0
C      1  0.4404150000000  0.4308300000000  0.5115460000000 1.0
C      1  0.5875960000000  0.5021930000000  0.5206950000000 1.0
C      1  0.5501420000000  0.4289470000000  0.4857940000000 1.0
C      1  0.4924980000000  0.5871620000000  0.4755230000000 1.0
C      1  0.4675650000000  0.4238860000000  0.4719670000000 1.0
C      1  0.5353100000000  0.5834660000000  0.4618280000000 1.0
C      1  0.5068430000000  0.4772080000000  0.4109260000000 1.0
C      1  0.4967640000000  0.4781080000000  0.5181100000000 1.0
C      1  0.5685300000000  0.5017540000000  0.4796780000000 1.0
C      1  0.4215420000000  0.4750350000000  0.5139440000000 1.0
C      1  0.4765680000000  0.5184170000000  0.5419260000000 1.0
C      1  0.5545310000000  0.5637780000000  0.4560620000000 1.0
C      1  0.4672600000000  0.5116930000000  0.5157970000000 1.0
C      1  0.5235550000000  0.5166680000000  0.5317420000000 1.0
C      1  0.5223400000000  0.5765590000000  0.5491340000000 1.0
C      1  0.4099140000000  0.4913050000000  0.4683330000000 1.0
C      1  0.5464780000000  0.5416120000000  0.4735310000000 1.0
C      1  0.5001130000000  0.4928210000000  0.4523360000000 1.0
C      1  0.5382840000000  0.4743790000000  0.5146870000000 1.0
C      1  0.4698180000000  0.5487430000000  0.4323130000000 1.0
C      1  0.5207210000000  0.5143270000000  0.5014590000000 1.0
C      1  0.4553360000000  0.4996440000000  0.4671230000000 1.0
C      1  0.5503980000000  0.4358870000000  0.5352830000000 1.0
C      1  0.4234390000000  0.4477940000000  0.5274960000000 1.0
C      1  0.4796900000000  0.4817660000000  0.4034340000000 1.0
C      1  0.5689340000000  0.5235560000000  0.4306540000000 1.0
C      1  0.4750870000000  0.5524380000000  0.4887760000000 1.0
C      1  0.4725790000000  0.5718770000000  0.5412750000000 1.0
C      1  0.5755020000000  0.4423780000000  0.4802050000000 1.0
C      1  0.4813400000000  0.5103650000000  0.4088180000000 1.0
C      1  0.4999080000000  0.5493690000000  0.4431090000000 1.0
C      1  0.5300260000000  0.4361760000000  0.4676780000000 1.0
C      1  0.4841030000000  0.5078530000000  0.4711340000000 1.0
C      1  0.5560670000000  0.5471320000000  0.5601180000000 1.0
C      1  0.5660770000000  0.4597200000000  0.5260330000000 1.0
C      1  0.4188730000000  0.5231140000000  0.5283170000000 1.0
C      1  0.4718320000000  0.4299380000000  0.4427680000000 1.0
C      1  0.5469500000000  0.5374190000000  0.4164510000000 1.0
C      1  0.4514630000000  0.4490950000000  0.4322230000000 1.0
C      1  0.4692100000000  0.4776080000000  0.5792100000000 1.0
C      1  0.5147350000000  0.4578960000000  0.5080650000000 1.0
C      1  0.5199540000000  0.4770740000000  0.4669790000000 1.0
C      1  0.4706460000000  0.5606060000000  0.5678840000000 1.0
C      1  0.4601020000000  0.5227070000000  0.4221370000000 1.0
C      1  0.5407840000000  0.4202100000000  0.5114070000000 1.0
C      1  0.4585700000000  0.4744450000000  0.4200640000000 1.0
C      1  0.4841360000000  0.4591010000000  0.5590390000000 1.0
C      1  0.5172730000000  0.5626730000000  0.5747610000000 1.0
C      1  0.4920650000000  0.5030400000000  0.4999240000000 1.0
C      1  0.4932860000000  0.5500330000000  0.5825500000000 1.0
C      1  0.5461590000000  0.4931330000000  0.5787600000000 1.0
C      1  0.4144880000000  0.4956310000000  0.5344150000000 1.0
C      1  0.5728170000000  0.5314130000000  0.5178110000000 1.0
C      1  0.5638880000000  0.5018070000000  0.4495380000000 1.0
C      1  0.4236610000000  0.4813240000000  0.5586790000000 1.0
C      1  0.5038670000000  0.4345110000000  0.5548670000000 1.0
C      1  0.4537690000000  0.4837840000000  0.5128170000000 1.0
C      1  0.4208380000000  0.4456110000000  0.4720530000000 1.0
C      1  0.4459260000000  0.5451600000000  0.5691440000000 1.0
C      1  0.5877600000000  0.4876660000000  0.4969010000000 1.0
C      1  0.4966100000000  0.4344620000000  0.4322070000000 1.0
C      1  0.5065070000000  0.5050900000000  0.4246940000000 1.0
C      1  0.4756600000000  0.4137690000000  0.5185380000000 1.0
C      1  0.4471370000000  0.4976650000000  0.4364750000000 1.0
C      1  0.5350540000000  0.5911130000000  0.4900810000000 1.0
C      1  0.5185430000000  0.5404410000000  0.4885140000000 1.0
C      1  0.5073450000000  0.4532700000000  0.4811310000000 1.0
C      1  0.5384980000000  0.5440080000000  0.5811610000000 1.0
C      1  0.5080990000000  0.4776590000000  0.5662800000000 1.0
C      1  0.5215030000000  0.5299310000000  0.4312390000000 1.0
C      1  0.5180820000000  0.4882940000000  0.5371800000000 1.0
C      1  0.4588790000000  0.4754480000000  0.4843080000000 1.0
END
