TITL C-99001-2935-3 -0.0791544996612194 125000 -263.123079181763 0 0 40 (C1) n - 1
REM
REM in /rds/project/t2_vol4/rds-t2-cs072/BORA/CARBON/from-Arr/AIRSS/Generating-Clusters/GAP-ML-2020/Only-C1/SD-CG/HFTN-CG
REM
REM
REM
REM
REM
REM ./C.cell (11c1c37f851c82e70ff6c80c92926a4b)
REM AIRSS Version 0.9.1 bugfix July 2018 build 013d7b7c2542+ Fri, 06 Jul 2018 19:26:36 +0100
REM compiler GCC version 9.3.0
REM options -cpp -mtune=generic -march=x86-64 -g -O0
REM seed -111545131 1204653273 -1451527157 -893394064 -1381878376 1352773147 -301968850 -1732365433 -1536068170 1461430092 -2045949188 -1477868296 -240830484 -365304620 -379594468 -1708713097 134265120 1095366054 -1854538089 -1892355371 1677204799 827324355 1478060262 2016182889 -2135890912 -1545893271 605318277 971916585 1580067365 405516013 871266760 1507676826 -1292979544
REM
CELL 1.54180   50.00000   50.00000   50.00000   90.00000   90.00000   90.00000
LATT -1
SFAC C  
C      1  0.5001580000000  0.5575940000000  0.4790000000000 1.0
C      1  0.4552240000000  0.5272910000000  0.5283330000000 1.0
C      1  0.4921130000000  0.4821370000000  0.5257630000000 1.0
C      1  0.4934200000000  0.4384510000000  0.5080590000000 1.0
C      1  0.4326350000000  0.4798610000000  0.5192280000000 1.0
C      1  0.5126840000000  0.4351600000000  0.5282080000000 1.0
C      1  0.5019910000000  0.4752780000000  0.5564410000000 1.0
C      1  0.4517100000000  0.4659150000000  0.5043820000000 1.0
C      1  0.4755200000000  0.4586010000000  0.5174560000000 1.0
C      1  0.5393540000000  0.4903860000000  0.4447340000000 1.0
C      1  0.5239470000000  0.5004630000000  0.4858580000000 1.0
C      1  0.5159290000000  0.5417230000000  0.4604010000000 1.0
C      1  0.5333490000000  0.5279350000000  0.4783190000000 1.0
C      1  0.5136840000000  0.5595160000000  0.5286970000000 1.0
C      1  0.4362070000000  0.5062450000000  0.5184280000000 1.0
C      1  0.4389890000000  0.5170990000000  0.4913860000000 1.0
C      1  0.5205470000000  0.4582140000000  0.5416050000000 1.0
C      1  0.4529200000000  0.5025740000000  0.4716590000000 1.0
C      1  0.5001570000000  0.5243170000000  0.4435000000000 1.0
C      1  0.5410950000000  0.5424750000000  0.5252980000000 1.0
C      1  0.5005700000000  0.4479030000000  0.4814270000000 1.0
C      1  0.4825580000000  0.4934010000000  0.5510380000000 1.0
C      1  0.4567260000000  0.5384020000000  0.5010280000000 1.0
C      1  0.4777980000000  0.5218850000000  0.5448470000000 1.0
C      1  0.4584490000000  0.4749610000000  0.4780310000000 1.0
C      1  0.5403940000000  0.5474050000000  0.4980750000000 1.0
C      1  0.4854080000000  0.4697460000000  0.4705220000000 1.0
C      1  0.5020500000000  0.5355220000000  0.5401310000000 1.0
C      1  0.4759110000000  0.5424870000000  0.4805950000000 1.0
C      1  0.5163350000000  0.5651330000000  0.5007890000000 1.0
C      1  0.5251070000000  0.5194030000000  0.5334740000000 1.0
C      1  0.5418900000000  0.4756170000000  0.4713900000000 1.0
C      1  0.5387610000000  0.4750790000000  0.5271040000000 1.0
C      1  0.5257580000000  0.4523140000000  0.4738220000000 1.0
C      1  0.5623800000000  0.4698280000000  0.5134840000000 1.0
C      1  0.5152020000000  0.4997920000000  0.4405480000000 1.0
C      1  0.5662900000000  0.4716110000000  0.4882760000000 1.0
C      1  0.4777940000000  0.5179650000000  0.4637210000000 1.0
C      1  0.5195260000000  0.4953840000000  0.5163900000000 1.0
C      1  0.4994600000000  0.4949250000000  0.4685550000000 1.0
END
