TITL C-99000-3255-7 -0.0173630736720669 125000 -544.954918509652 0 0 77 (C1) n - 1
REM
REM in /rds/project/t2_vol4/rds-t2-cs072/BORA/CARBON/from-Arr/AIRSS/Generating-Clusters/GAP-ML-2020/Only-C1/SD-CG/HFTN-CG
REM
REM
REM
REM
REM
REM ./C.cell (11c1c37f851c82e70ff6c80c92926a4b)
REM AIRSS Version 0.9.1 bugfix July 2018 build 013d7b7c2542+ Fri, 06 Jul 2018 19:26:36 +0100
REM compiler GCC version 9.3.0
REM options -cpp -mtune=generic -march=x86-64 -g -O0
REM seed 475366003 1059513094 1048398674 -1769507383 -2065752913 161943549 362249194 -497312089 188054800 1568732553 -1783030870 746468244 -1521153135 -2025550060 2021210777 -1912500536 -1471942568 63119637 488398099 -114175730 -1615494822 777671880 722392636 2109308039 -1468709772 1016717813 -2020583762 281866300 -873271976 -526393588 1247743047 -10230449 69990101
REM
CELL 1.54180   50.00000   50.00000   50.00000   90.00000   90.00000   90.00000
LATT -1
SFAC C  
C      1  0.4291380000000  0.4948820000000  0.4923500000000 1.0
C      1  0.4904010000000  0.5754290000000  0.5052240000000 1.0
C      1  0.5133570000000  0.4787880000000  0.4804520000000 1.0
C      1  0.4792240000000  0.4433820000000  0.5460270000000 1.0
C      1  0.4404910000000  0.4592140000000  0.4562700000000 1.0
C      1  0.4550400000000  0.5376420000000  0.5031500000000 1.0
C      1  0.5318390000000  0.5637680000000  0.5256210000000 1.0
C      1  0.4631680000000  0.5452500000000  0.5528540000000 1.0
C      1  0.5301070000000  0.4444630000000  0.5471000000000 1.0
C      1  0.4563880000000  0.4851550000000  0.5667070000000 1.0
C      1  0.5429950000000  0.4895140000000  0.4371490000000 1.0
C      1  0.5509470000000  0.4505990000000  0.4787750000000 1.0
C      1  0.5005300000000  0.5415080000000  0.5710630000000 1.0
C      1  0.4410400000000  0.4502880000000  0.5033480000000 1.0
C      1  0.4566170000000  0.4614890000000  0.5493160000000 1.0
C      1  0.4973500000000  0.4744830000000  0.4279080000000 1.0
C      1  0.4859830000000  0.5015710000000  0.4255680000000 1.0
C      1  0.5050050000000  0.4314820000000  0.4788680000000 1.0
C      1  0.5510190000000  0.4407890000000  0.5037290000000 1.0
C      1  0.5055700000000  0.4972360000000  0.5781080000000 1.0
C      1  0.4589700000000  0.5012760000000  0.4348930000000 1.0
C      1  0.5161240000000  0.5187090000000  0.5030970000000 1.0
C      1  0.4280520000000  0.4909410000000  0.5207010000000 1.0
C      1  0.4772700000000  0.5020000000000  0.5773540000000 1.0
C      1  0.5655690000000  0.4919520000000  0.4552280000000 1.0
C      1  0.5735340000000  0.5176030000000  0.4665250000000 1.0
C      1  0.5731030000000  0.4887290000000  0.5013810000000 1.0
C      1  0.4663050000000  0.5642550000000  0.4935010000000 1.0
C      1  0.4767710000000  0.4309390000000  0.4746290000000 1.0
C      1  0.5054770000000  0.4775590000000  0.5106180000000 1.0
C      1  0.5043370000000  0.4483740000000  0.5591850000000 1.0
C      1  0.4382150000000  0.4645470000000  0.5277040000000 1.0
C      1  0.5672140000000  0.4739330000000  0.4768760000000 1.0
C      1  0.4549720000000  0.5219080000000  0.4566440000000 1.0
C      1  0.4734590000000  0.5295700000000  0.5749070000000 1.0
C      1  0.5572420000000  0.5551670000000  0.4879370000000 1.0
C      1  0.4636510000000  0.4408980000000  0.4522660000000 1.0
C      1  0.5156840000000  0.4716520000000  0.5740900000000 1.0
C      1  0.4745070000000  0.4580390000000  0.4317480000000 1.0
C      1  0.4823480000000  0.4298400000000  0.5207390000000 1.0
C      1  0.5313210000000  0.5147590000000  0.4326620000000 1.0
C      1  0.4851160000000  0.5161760000000  0.4674880000000 1.0
C      1  0.4857890000000  0.4873740000000  0.4742240000000 1.0
C      1  0.5035950000000  0.5699500000000  0.5304130000000 1.0
C      1  0.4336770000000  0.5014830000000  0.5650940000000 1.0
C      1  0.5208350000000  0.5217050000000  0.5716780000000 1.0
C      1  0.5122850000000  0.5501980000000  0.4428080000000 1.0
C      1  0.5407450000000  0.4691440000000  0.5601910000000 1.0
C      1  0.5661780000000  0.5379810000000  0.5094130000000 1.0
C      1  0.5237760000000  0.4523920000000  0.4654870000000 1.0
C      1  0.5321450000000  0.4326780000000  0.5213490000000 1.0
C      1  0.5361540000000  0.5709810000000  0.4981070000000 1.0
C      1  0.4714910000000  0.5648560000000  0.4651730000000 1.0
C      1  0.5602140000000  0.5421060000000  0.4619100000000 1.0
C      1  0.5395700000000  0.5404520000000  0.4423440000000 1.0
C      1  0.5445850000000  0.5211710000000  0.5551540000000 1.0
C      1  0.5497700000000  0.5414990000000  0.5340340000000 1.0
C      1  0.4573890000000  0.5489890000000  0.4488730000000 1.0
C      1  0.4501820000000  0.4754710000000  0.4346290000000 1.0
C      1  0.4329320000000  0.5116260000000  0.5392100000000 1.0
C      1  0.5239970000000  0.4962610000000  0.5207580000000 1.0
C      1  0.5545570000000  0.4928920000000  0.5505990000000 1.0
C      1  0.5781750000000  0.5156310000000  0.4948560000000 1.0
C      1  0.4629770000000  0.4322990000000  0.5001460000000 1.0
C      1  0.4997310000000  0.5685440000000  0.4601990000000 1.0
C      1  0.5234060000000  0.4681560000000  0.4387950000000 1.0
C      1  0.4472770000000  0.5350700000000  0.5315750000000 1.0
C      1  0.5558590000000  0.4862290000000  0.5233350000000 1.0
C      1  0.4862110000000  0.5207150000000  0.4985630000000 1.0
C      1  0.5273680000000  0.5050240000000  0.4808160000000 1.0
C      1  0.5077620000000  0.4266810000000  0.5073130000000 1.0
C      1  0.4810170000000  0.4911190000000  0.5033020000000 1.0
C      1  0.5019000000000  0.5220860000000  0.4383160000000 1.0
C      1  0.4399390000000  0.5195590000000  0.4829080000000 1.0
C      1  0.5108150000000  0.5772590000000  0.4854040000000 1.0
C      1  0.4894200000000  0.5591760000000  0.5515460000000 1.0
C      1  0.4328250000000  0.4674850000000  0.4817160000000 1.0
END
