TITL C-2782227-3064-268 0.00190162318330004 125000 -1094.10559427573 0 0 191 (C1) n - 1
REM
REM in /home/nfs/bkarasulu/CARBON/AIRSS/Generating-Clusters/REBO/Higher-Symm/SD-CG/HFTN-CG
REM
REM
REM
REM
REM
REM ./C.cell (12c818d87b63d06a65506943cc24bca4)
REM
REM compiler GCC version 9.2.1 20190827 (Red Hat 9.2.1-1)
REM options -cpp -mtune=generic -march=x86-64 -g -O0 -fpre-include=/usr/include/finclude/math-vector-fortran.h
REM seed 1835061896 -1285666235 -1672841940 -1075572557 1708507606 -1270665809 1933871824 1109696656 -1624436271 12494392 -930784535 -917086217 1446831699 -1899396545 2019040908 993743232 -1961047487 -1413302766 534156882 -1979690720 -1163020170 635429963 566283869 -1424323503 -581079254 -582167481 -1687650180 1428249503 998404557 -535995177 -1407297759 -1084426225 -1047096598
REM
CELL 1.54180   50.00000   50.00000   50.00000   90.00000   90.00000   90.00000
LATT -1
SFAC C  
C      1  0.4246980000000  0.5063140000000  0.5828790000000 1.0
C      1  0.4639890000000  0.4995160000000  0.3940250000000 1.0
C      1  0.6128290000000  0.4995630000000  0.5192050000000 1.0
C      1  0.4445180000000  0.5039730000000  0.4676700000000 1.0
C      1  0.5455290000000  0.5140760000000  0.4727400000000 1.0
C      1  0.4938110000000  0.5289320000000  0.5566480000000 1.0
C      1  0.5514580000000  0.4199020000000  0.5588280000000 1.0
C      1  0.4269100000000  0.4246970000000  0.5096460000000 1.0
C      1  0.5258550000000  0.4146940000000  0.4252430000000 1.0
C      1  0.5134800000000  0.4766310000000  0.5880320000000 1.0
C      1  0.4078340000000  0.4634050000000  0.4532130000000 1.0
C      1  0.5794900000000  0.4765530000000  0.4440690000000 1.0
C      1  0.5001150000000  0.4514250000000  0.6017950000000 1.0
C      1  0.4025380000000  0.4358520000000  0.4412890000000 1.0
C      1  0.6027740000000  0.4583860000000  0.4509840000000 1.0
C      1  0.4622960000000  0.3964310000000  0.4657660000000 1.0
C      1  0.5408820000000  0.3977870000000  0.4860340000000 1.0
C      1  0.4847090000000  0.3930630000000  0.5384420000000 1.0
C      1  0.6096220000000  0.5337950000000  0.5215330000000 1.0
C      1  0.4256610000000  0.5401440000000  0.5790570000000 1.0
C      1  0.4682530000000  0.5326420000000  0.4016240000000 1.0
C      1  0.4522240000000  0.4283720000000  0.4347320000000 1.0
C      1  0.5763730000000  0.4389600000000  0.4905420000000 1.0
C      1  0.4646500000000  0.4307820000000  0.5715260000000 1.0
C      1  0.4598760000000  0.4038000000000  0.5584060000000 1.0
C      1  0.4516790000000  0.3942750000000  0.4334180000000 1.0
C      1  0.5677520000000  0.4106360000000  0.5005270000000 1.0
C      1  0.4661500000000  0.5297520000000  0.5208490000000 1.0
C      1  0.4967930000000  0.5469260000000  0.4777950000000 1.0
C      1  0.5362380000000  0.5325100000000  0.5110830000000 1.0
C      1  0.4836510000000  0.6238140000000  0.5218490000000 1.0
C      1  0.4895290000000  0.6221060000000  0.4746000000000 1.0
C      1  0.5272450000000  0.6252470000000  0.5034990000000 1.0
C      1  0.5122090000000  0.4581110000000  0.4967270000000 1.0
C      1  0.4864110000000  0.4535120000000  0.5185650000000 1.0
C      1  0.4937850000000  0.4577170000000  0.4677220000000 1.0
C      1  0.5139920000000  0.5216060000000  0.4654380000000 1.0
C      1  0.5207330000000  0.5186920000000  0.5384450000000 1.0
C      1  0.4474900000000  0.5113230000000  0.4991940000000 1.0
C      1  0.5152310000000  0.4942310000000  0.5082750000000 1.0
C      1  0.4984870000000  0.4938410000000  0.5380310000000 1.0
C      1  0.4775510000000  0.5000770000000  0.4894440000000 1.0
C      1  0.5713890000000  0.5699420000000  0.4954320000000 1.0
C      1  0.4733100000000  0.5548210000000  0.5484290000000 1.0
C      1  0.4698440000000  0.5646520000000  0.4491710000000 1.0
C      1  0.6002250000000  0.5085960000000  0.4727640000000 1.0
C      1  0.4712500000000  0.5087420000000  0.5977960000000 1.0
C      1  0.4362660000000  0.5084690000000  0.4211780000000 1.0
C      1  0.4811440000000  0.6020500000000  0.4318480000000 1.0
C      1  0.5697450000000  0.6106850000000  0.5136570000000 1.0
C      1  0.4586560000000  0.6128220000000  0.5655160000000 1.0
C      1  0.5739470000000  0.6086540000000  0.4864440000000 1.0
C      1  0.4819260000000  0.5998020000000  0.5757660000000 1.0
C      1  0.4557750000000  0.6013000000000  0.4422540000000 1.0
C      1  0.4627740000000  0.4708890000000  0.4046000000000 1.0
C      1  0.6001650000000  0.4773050000000  0.5065950000000 1.0
C      1  0.4365110000000  0.4741840000000  0.5830890000000 1.0
C      1  0.4664720000000  0.5624010000000  0.6015860000000 1.0
C      1  0.4352650000000  0.5563940000000  0.4310680000000 1.0
C      1  0.6076950000000  0.5618780000000  0.4807060000000 1.0
C      1  0.4347190000000  0.5833590000000  0.4308820000000 1.0
C      1  0.5953860000000  0.5876920000000  0.4765910000000 1.0
C      1  0.4778470000000  0.5871100000000  0.6008850000000 1.0
C      1  0.4227580000000  0.5066050000000  0.5176400000000 1.0
C      1  0.5272990000000  0.5088500000000  0.4376910000000 1.0
C      1  0.5427580000000  0.5018050000000  0.5514720000000 1.0
C      1  0.4493530000000  0.4967220000000  0.5530720000000 1.0
C      1  0.4923090000000  0.4928890000000  0.4273860000000 1.0
C      1  0.5709230000000  0.4985590000000  0.5234970000000 1.0
C      1  0.5218380000000  0.5688240000000  0.5659340000000 1.0
C      1  0.4271750000000  0.5642560000000  0.4829140000000 1.0
C      1  0.5608390000000  0.5669100000000  0.4444600000000 1.0
C      1  0.5593240000000  0.4751320000000  0.4710860000000 1.0
C      1  0.4921500000000  0.4760480000000  0.5637200000000 1.0
C      1  0.4390290000000  0.4678250000000  0.4472650000000 1.0
C      1  0.4726770000000  0.6154350000000  0.4967880000000 1.0
C      1  0.5174190000000  0.6163740000000  0.4781650000000 1.0
C      1  0.5108580000000  0.6155350000000  0.5248530000000 1.0
C      1  0.4975990000000  0.5367290000000  0.5894200000000 1.0
C      1  0.4231660000000  0.5261120000000  0.4541470000000 1.0
C      1  0.5704670000000  0.5334260000000  0.4637870000000 1.0
C      1  0.4161390000000  0.4925210000000  0.5544070000000 1.0
C      1  0.4929500000000  0.5118020000000  0.3992330000000 1.0
C      1  0.5966410000000  0.5119820000000  0.5442370000000 1.0
C      1  0.4230780000000  0.4180150000000  0.4453200000000 1.0
C      1  0.5936060000000  0.4361200000000  0.4639410000000 1.0
C      1  0.4922310000000  0.4284950000000  0.5893780000000 1.0
C      1  0.5959820000000  0.5648270000000  0.5185920000000 1.0
C      1  0.4436390000000  0.5648140000000  0.5637870000000 1.0
C      1  0.4723700000000  0.5566460000000  0.4161860000000 1.0
C      1  0.5521670000000  0.4329430000000  0.5213750000000 1.0
C      1  0.4587040000000  0.4363540000000  0.5285630000000 1.0
C      1  0.4916750000000  0.4280150000000  0.4402440000000 1.0
C      1  0.5194260000000  0.4394820000000  0.4555280000000 1.0
C      1  0.5228780000000  0.4344860000000  0.5483840000000 1.0
C      1  0.4463790000000  0.4491410000000  0.4935830000000 1.0
C      1  0.5767380000000  0.5448250000000  0.4332840000000 1.0
C      1  0.5226750000000  0.5536800000000  0.5898240000000 1.0
C      1  0.4095470000000  0.5449790000000  0.4728960000000 1.0
C      1  0.5103400000000  0.5517910000000  0.5187300000000 1.0
C      1  0.4741020000000  0.5551630000000  0.5017130000000 1.0
C      1  0.5344540000000  0.5570070000000  0.4873580000000 1.0
C      1  0.4312420000000  0.4773750000000  0.5172530000000 1.0
C      1  0.5358030000000  0.4801020000000  0.4512830000000 1.0
C      1  0.5399510000000  0.4703690000000  0.5497780000000 1.0
C      1  0.5697700000000  0.4238030000000  0.4514430000000 1.0
C      1  0.5144950000000  0.4079390000000  0.5769570000000 1.0
C      1  0.4241580000000  0.4049170000000  0.4727440000000 1.0
C      1  0.4142350000000  0.4543280000000  0.5004050000000 1.0
C      1  0.5463950000000  0.4397550000000  0.4340750000000 1.0
C      1  0.5390650000000  0.4474640000000  0.5747100000000 1.0
C      1  0.4457010000000  0.5269300000000  0.5558190000000 1.0
C      1  0.4869110000000  0.5254610000000  0.4362630000000 1.0
C      1  0.5757160000000  0.5313370000000  0.5164520000000 1.0
C      1  0.3931480000000  0.5053360000000  0.5343600000000 1.0
C      1  0.5215420000000  0.5092850000000  0.4056980000000 1.0
C      1  0.5717510000000  0.5139410000000  0.5603080000000 1.0
C      1  0.4279270000000  0.5377690000000  0.5289150000000 1.0
C      1  0.5137580000000  0.5461550000000  0.4332050000000 1.0
C      1  0.5635240000000  0.5522270000000  0.5379750000000 1.0
C      1  0.5175330000000  0.3853250000000  0.4739660000000 1.0
C      1  0.5090190000000  0.3823760000000  0.5239130000000 1.0
C      1  0.4713340000000  0.3811680000000  0.4911730000000 1.0
C      1  0.4662690000000  0.4860900000000  0.5779450000000 1.0
C      1  0.4430190000000  0.4815530000000  0.4231580000000 1.0
C      1  0.5889680000000  0.4854820000000  0.4817920000000 1.0
C      1  0.4518030000000  0.4247420000000  0.4745070000000 1.0
C      1  0.5448980000000  0.4242540000000  0.4707140000000 1.0
C      1  0.4965990000000  0.4179670000000  0.5513100000000 1.0
C      1  0.4421620000000  0.5940190000000  0.5517170000000 1.0
C      1  0.4993580000000  0.5752220000000  0.4258530000000 1.0
C      1  0.5711530000000  0.5839040000000  0.5322480000000 1.0
C      1  0.5010670000000  0.5726930000000  0.4600820000000 1.0
C      1  0.5430830000000  0.5775310000000  0.5130650000000 1.0
C      1  0.4588080000000  0.5790610000000  0.5297630000000 1.0
C      1  0.5677550000000  0.4881010000000  0.5792640000000 1.0
C      1  0.3870430000000  0.4812870000000  0.5118110000000 1.0
C      1  0.5391260000000  0.4829630000000  0.4010910000000 1.0
C      1  0.3925340000000  0.5309890000000  0.4911460000000 1.0
C      1  0.5637420000000  0.5299210000000  0.4134550000000 1.0
C      1  0.5459800000000  0.5373460000000  0.5908540000000 1.0
C      1  0.5561840000000  0.5852580000000  0.4693140000000 1.0
C      1  0.4946420000000  0.5803630000000  0.5557670000000 1.0
C      1  0.4488700000000  0.5806770000000  0.4681710000000 1.0
C      1  0.4643680000000  0.4505010000000  0.4581270000000 1.0
C      1  0.5445660000000  0.4520820000000  0.4871520000000 1.0
C      1  0.4859770000000  0.4490720000000  0.5520980000000 1.0
C      1  0.4396000000000  0.5559030000000  0.5075210000000 1.0
C      1  0.5356800000000  0.5536360000000  0.4561330000000 1.0
C      1  0.5333160000000  0.5547360000000  0.5440050000000 1.0
C      1  0.3939470000000  0.4673840000000  0.4815510000000 1.0
C      1  0.5584080000000  0.4648450000000  0.4220470000000 1.0
C      1  0.5446920000000  0.4718700000000  0.5941610000000 1.0
C      1  0.5133870000000  0.3950590000000  0.4465760000000 1.0
C      1  0.5292850000000  0.3951620000000  0.5487940000000 1.0
C      1  0.4416020000000  0.3955580000000  0.4998740000000 1.0
C      1  0.5882350000000  0.4532420000000  0.5154500000000 1.0
C      1  0.4380240000000  0.4476690000000  0.5693840000000 1.0
C      1  0.4749990000000  0.4454250000000  0.4160220000000 1.0
C      1  0.4738940000000  0.4954500000000  0.4560210000000 1.0
C      1  0.5468350000000  0.5030330000000  0.5027220000000 1.0
C      1  0.4690930000000  0.4992470000000  0.5305170000000 1.0
C      1  0.5357230000000  0.5365910000000  0.4106120000000 1.0
C      1  0.5653920000000  0.5423490000000  0.5697200000000 1.0
C      1  0.3952070000000  0.5348500000000  0.5201420000000 1.0
C      1  0.4532820000000  0.5299320000000  0.4385530000000 1.0
C      1  0.5909070000000  0.5364620000000  0.4864230000000 1.0
C      1  0.4645340000000  0.5365560000000  0.5827900000000 1.0
C      1  0.5061550000000  0.4884320000000  0.4644720000000 1.0
C      1  0.5285190000000  0.4540660000000  0.5236020000000 1.0
C      1  0.4633970000000  0.4749780000000  0.5079080000000 1.0
C      1  0.5250530000000  0.5887470000000  0.4716590000000 1.0
C      1  0.5133650000000  0.5848850000000  0.5278700000000 1.0
C      1  0.4624520000000  0.5870050000000  0.4973960000000 1.0
C      1  0.4054270000000  0.4674410000000  0.5368780000000 1.0
C      1  0.5172610000000  0.4727220000000  0.4238170000000 1.0
C      1  0.5729050000000  0.4760050000000  0.5478060000000 1.0
C      1  0.4833420000000  0.3988850000000  0.4419010000000 1.0
C      1  0.5419460000000  0.4013580000000  0.5199610000000 1.0
C      1  0.4580020000000  0.4047580000000  0.5247210000000 1.0
C      1  0.5657540000000  0.4979870000000  0.4137180000000 1.0
C      1  0.5406920000000  0.5057370000000  0.5911560000000 1.0
C      1  0.3906380000000  0.5012710000000  0.4844210000000 1.0
C      1  0.5095360000000  0.5083100000000  0.5794810000000 1.0
C      1  0.4127540000000  0.4950860000000  0.4601330000000 1.0
C      1  0.5659340000000  0.5060160000000  0.4466790000000 1.0
C      1  0.5732010000000  0.4421700000000  0.5439950000000 1.0
C      1  0.4270380000000  0.4437000000000  0.5383540000000 1.0
C      1  0.5091330000000  0.4437390000000  0.4172390000000 1.0
C      1  0.4993790000000  0.3780320000000  0.4956180000000 1.0
C      1  0.4986570000000  0.5235300000000  0.5021580000000 1.0
END
