TITL C-2782227-3064-731 -0.0024012526230045 125000 -162.974658112977 0 0 31 (C2) n - 1
REM
REM in /home/nfs/bkarasulu/CARBON/AIRSS/Generating-Clusters/REBO/Higher-Symm/SD-CG/HFTN-CG
REM
REM
REM
REM
REM
REM ./C.cell (12c818d87b63d06a65506943cc24bca4)
REM
REM compiler GCC version 9.2.1 20190827 (Red Hat 9.2.1-1)
REM options -cpp -mtune=generic -march=x86-64 -g -O0 -fpre-include=/usr/include/finclude/math-vector-fortran.h
REM seed 346427592 -1510647175 1946950554 1489355019 121020707 66009250 -2015335892 2007248096 -2014492669 -58447166 938961535 -1005946792 -1744094343 -1885971759 -1716280271 -2010688249 46249418 1842486891 402170112 -1022029802 -50765346 900788065 218324164 38076935 -1419503077 -1747687390 -1040947240 1040077707 -32223648 119783967 190777341 829910888 -2060694252
REM
CELL 1.54180   50.00000   50.00000   50.00000   90.00000   90.00000   90.00000
LATT -1
SFAC C  
C      1  0.4819710000000  0.5263020000000  0.5011870000000 1.0
C      1  0.5168950000000  0.4707530000000  0.5008310000000 1.0
C      1  0.4808070000000  0.4537050000000  0.5208420000000 1.0
C      1  0.5181410000000  0.5431440000000  0.5212240000000 1.0
C      1  0.4560400000000  0.5296640000000  0.4821600000000 1.0
C      1  0.5427490000000  0.4675850000000  0.4816640000000 1.0
C      1  0.5045230000000  0.4557760000000  0.5357560000000 1.0
C      1  0.4944860000000  0.5409200000000  0.5362130000000 1.0
C      1  0.5465270000000  0.4965980000000  0.5249610000000 1.0
C      1  0.4524370000000  0.5002090000000  0.5251720000000 1.0
C      1  0.4433240000000  0.5257020000000  0.5105350000000 1.0
C      1  0.5555800000000  0.4712570000000  0.5100260000000 1.0
C      1  0.5282930000000  0.5152740000000  0.5094990000000 1.0
C      1  0.4706080000000  0.4816940000000  0.5094450000000 1.0
C      1  0.5404890000000  0.4701630000000  0.4541200000000 1.0
C      1  0.4581860000000  0.5273690000000  0.4545810000000 1.0
C      1  0.5194710000000  0.4833420000000  0.4428870000000 1.0
C      1  0.4791580000000  0.5143070000000  0.4431280000000 1.0
C      1  0.4655010000000  0.5494960000000  0.5209300000000 1.0
C      1  0.5334460000000  0.4473580000000  0.5202680000000 1.0
C      1  0.4679820000000  0.5217240000000  0.5414500000000 1.0
C      1  0.5310490000000  0.4749180000000  0.5410810000000 1.0
C      1  0.5176580000000  0.5610920000000  0.4982560000000 1.0
C      1  0.4811960000000  0.4359930000000  0.4976900000000 1.0
C      1  0.4838780000000  0.4507200000000  0.4738990000000 1.0
C      1  0.5148780000000  0.5466100000000  0.4743270000000 1.0
C      1  0.4830440000000  0.4784960000000  0.4783960000000 1.0
C      1  0.5157310000000  0.5187890000000  0.4785360000000 1.0
C      1  0.4995170000000  0.4983180000000  0.5417690000000 1.0
C      1  0.4993520000000  0.4987310000000  0.4611610000000 1.0
C      1  0.4994520000000  0.4984800000000  0.5101970000000 1.0
END
