TITL C-2782240-8521-703 -6.68755661637575e-05 125000 -995.669691175652 0 0 168 (C1) n - 1
REM
REM in /home/nfs/bkarasulu/CARBON/AIRSS/Generating-Clusters/REBO/Higher-Symm/SD-CG/HFTN-CG
REM
REM
REM
REM
REM
REM ./C.cell (12c818d87b63d06a65506943cc24bca4)
REM
REM compiler GCC version 9.2.1 20190827 (Red Hat 9.2.1-1)
REM options -cpp -mtune=generic -march=x86-64 -g -O0 -fpre-include=/usr/include/finclude/math-vector-fortran.h
REM seed 1241294892 -1041798753 -1294048088 1787908113 -1842394017 684050402 -385462472 2030548085 960777712 -107642522 -971099502 1847699054 321176292 -651305264 -956427094 404317546 -1778415960 -701524477 1828699650 -1966666302 1177341783 -249618621 -1476567806 -1399033304 -1604240444 1436889413 1640733284 1269836217 -660980157 -1136081460 1477683561 -876736953 -1980631742
REM
CELL 1.54180   50.00000   50.00000   50.00000   90.00000   90.00000   90.00000
LATT -1
SFAC C  
C      1  0.4067770000000  0.5184630000000  0.4380560000000 1.0
C      1  0.4502330000000  0.4805970000000  0.4014470000000 1.0
C      1  0.5063670000000  0.5178160000000  0.3908550000000 1.0
C      1  0.5600730000000  0.4798380000000  0.4087480000000 1.0
C      1  0.5981220000000  0.5178660000000  0.4505120000000 1.0
C      1  0.6115320000000  0.4817100000000  0.5069000000000 1.0
C      1  0.5922220000000  0.5195800000000  0.5602900000000 1.0
C      1  0.5502540000000  0.4813660000000  0.5976020000000 1.0
C      1  0.4945590000000  0.5181250000000  0.6101470000000 1.0
C      1  0.4399280000000  0.4820050000000  0.5915010000000 1.0
C      1  0.4025750000000  0.5200360000000  0.5489710000000 1.0
C      1  0.3899420000000  0.4824370000000  0.4936060000000 1.0
C      1  0.4967440000000  0.5836340000000  0.5305410000000 1.0
C      1  0.4823430000000  0.4172940000000  0.5230740000000 1.0
C      1  0.4726040000000  0.5841790000000  0.5135120000000 1.0
C      1  0.4703640000000  0.4169320000000  0.4960880000000 1.0
C      1  0.4759940000000  0.5842210000000  0.4839440000000 1.0
C      1  0.4874970000000  0.4162410000000  0.4720630000000 1.0
C      1  0.5027240000000  0.5830560000000  0.4716260000000 1.0
C      1  0.5169310000000  0.4156200000000  0.4746900000000 1.0
C      1  0.5266290000000  0.5829460000000  0.4889170000000 1.0
C      1  0.5287860000000  0.4157050000000  0.5019670000000 1.0
C      1  0.5236170000000  0.5832930000000  0.5182690000000 1.0
C      1  0.5117040000000  0.4170090000000  0.5259590000000 1.0
C      1  0.5585370000000  0.5259740000000  0.5400980000000 1.0
C      1  0.5325980000000  0.4749980000000  0.5624650000000 1.0
C      1  0.4968780000000  0.5250350000000  0.5709740000000 1.0
C      1  0.4615840000000  0.4756850000000  0.5586970000000 1.0
C      1  0.4380220000000  0.5259090000000  0.5319150000000 1.0
C      1  0.4289410000000  0.4750060000000  0.4966110000000 1.0
C      1  0.4412770000000  0.5218770000000  0.4573790000000 1.0
C      1  0.4688920000000  0.4739690000000  0.4359680000000 1.0
C      1  0.5035070000000  0.5245720000000  0.4299880000000 1.0
C      1  0.5376260000000  0.4739400000000  0.4410550000000 1.0
C      1  0.5627580000000  0.5249440000000  0.4673790000000 1.0
C      1  0.5720120000000  0.4781450000000  0.5076120000000 1.0
C      1  0.5713910000000  0.4948690000000  0.5367730000000 1.0
C      1  0.5450150000000  0.5062010000000  0.5644910000000 1.0
C      1  0.5090400000000  0.4944210000000  0.5777650000000 1.0
C      1  0.4687370000000  0.5057400000000  0.5719600000000 1.0
C      1  0.4366920000000  0.4954050000000  0.5460440000000 1.0
C      1  0.4227380000000  0.5054860000000  0.5093960000000 1.0
C      1  0.4284520000000  0.4938070000000  0.4681820000000 1.0
C      1  0.4563330000000  0.5051810000000  0.4323690000000 1.0
C      1  0.4929530000000  0.4935150000000  0.4216000000000 1.0
C      1  0.5312670000000  0.5046800000000  0.4283870000000 1.0
C      1  0.5619980000000  0.4943650000000  0.4531940000000 1.0
C      1  0.5775990000000  0.5062980000000  0.4917810000000 1.0
C      1  0.4882400000000  0.5348050000000  0.4713430000000 1.0
C      1  0.5045790000000  0.4635660000000  0.4699860000000 1.0
C      1  0.5182450000000  0.5362000000000  0.4763850000000 1.0
C      1  0.5280050000000  0.4653610000000  0.4883300000000 1.0
C      1  0.5297900000000  0.5364380000000  0.5047130000000 1.0
C      1  0.5242560000000  0.4651380000000  0.5190670000000 1.0
C      1  0.5108480000000  0.5366230000000  0.5285660000000 1.0
C      1  0.4959540000000  0.4646730000000  0.5299270000000 1.0
C      1  0.4809610000000  0.5360480000000  0.5238410000000 1.0
C      1  0.4719980000000  0.4633670000000  0.5109380000000 1.0
C      1  0.4697910000000  0.5343160000000  0.4962630000000 1.0
C      1  0.4761800000000  0.4634070000000  0.4807410000000 1.0
C      1  0.4301150000000  0.5665010000000  0.4842740000000 1.0
C      1  0.4456100000000  0.4254960000000  0.4433630000000 1.0
C      1  0.4806080000000  0.5742990000000  0.4256300000000 1.0
C      1  0.5205840000000  0.4251350000000  0.4240320000000 1.0
C      1  0.5552550000000  0.5745010000000  0.4469950000000 1.0
C      1  0.5684240000000  0.4333830000000  0.4786430000000 1.0
C      1  0.5743430000000  0.5746040000000  0.5221520000000 1.0
C      1  0.5538590000000  0.4255200000000  0.5545140000000 1.0
C      1  0.5186650000000  0.5746250000000  0.5762740000000 1.0
C      1  0.4783970000000  0.4259880000000  0.5738300000000 1.0
C      1  0.4441190000000  0.5744370000000  0.5556250000000 1.0
C      1  0.4245810000000  0.4255990000000  0.5179250000000 1.0
C      1  0.5527800000000  0.5782830000000  0.4768960000000 1.0
C      1  0.5574330000000  0.4214170000000  0.5037890000000 1.0
C      1  0.5472320000000  0.5788880000000  0.5348420000000 1.0
C      1  0.5239200000000  0.4224180000000  0.5518280000000 1.0
C      1  0.4941540000000  0.5789920000000  0.5592200000000 1.0
C      1  0.4658030000000  0.4220770000000  0.5466530000000 1.0
C      1  0.4457840000000  0.5800820000000  0.5262250000000 1.0
C      1  0.4416930000000  0.4215670000000  0.4933210000000 1.0
C      1  0.4521880000000  0.5784440000000  0.4679710000000 1.0
C      1  0.4753270000000  0.4207530000000  0.4459620000000 1.0
C      1  0.5050000000000  0.5776030000000  0.4430830000000 1.0
C      1  0.5338880000000  0.4195820000000  0.4502890000000 1.0
C      1  0.5441530000000  0.5623550000000  0.5601520000000 1.0
C      1  0.5085570000000  0.4384130000000  0.5727460000000 1.0
C      1  0.4709490000000  0.5619470000000  0.5688450000000 1.0
C      1  0.4402200000000  0.4383770000000  0.5436020000000 1.0
C      1  0.4241340000000  0.5686390000000  0.5115770000000 1.0
C      1  0.4317380000000  0.4383640000000  0.4698630000000 1.0
C      1  0.4545380000000  0.5625620000000  0.4413990000000 1.0
C      1  0.4907470000000  0.4375350000000  0.4260510000000 1.0
C      1  0.5287820000000  0.5616720000000  0.4327330000000 1.0
C      1  0.5599010000000  0.4311890000000  0.4520370000000 1.0
C      1  0.5734050000000  0.5617140000000  0.4921870000000 1.0
C      1  0.5687070000000  0.4374380000000  0.5278820000000 1.0
C      1  0.5218010000000  0.4973460000000  0.6064580000000 1.0
C      1  0.4653490000000  0.5021680000000  0.6031800000000 1.0
C      1  0.4182870000000  0.4988380000000  0.5713360000000 1.0
C      1  0.3933530000000  0.5035430000000  0.5206790000000 1.0
C      1  0.3974110000000  0.4979820000000  0.4642730000000 1.0
C      1  0.4280060000000  0.5014580000000  0.4177690000000 1.0
C      1  0.4788450000000  0.4971550000000  0.3935000000000 1.0
C      1  0.5352830000000  0.5011100000000  0.3974230000000 1.0
C      1  0.5818960000000  0.4965230000000  0.4288110000000 1.0
C      1  0.6064220000000  0.5022380000000  0.4795720000000 1.0
C      1  0.6031870000000  0.4987060000000  0.5349560000000 1.0
C      1  0.5717930000000  0.5026900000000  0.5810970000000 1.0
C      1  0.5590370000000  0.4587870000000  0.4902720000000 1.0
C      1  0.5582650000000  0.5449900000000  0.5168950000000 1.0
C      1  0.5439340000000  0.4556180000000  0.5421500000000 1.0
C      1  0.5156160000000  0.5453480000000  0.5589800000000 1.0
C      1  0.4840920000000  0.4556680000000  0.5581300000000 1.0
C      1  0.4577450000000  0.5458280000000  0.5430560000000 1.0
C      1  0.4414500000000  0.4550920000000  0.5149640000000 1.0
C      1  0.4440300000000  0.5410870000000  0.4789290000000 1.0
C      1  0.4573650000000  0.4549060000000  0.4561230000000 1.0
C      1  0.4831370000000  0.5442030000000  0.4413250000000 1.0
C      1  0.5150890000000  0.4538130000000  0.4416770000000 1.0
C      1  0.5425950000000  0.5447610000000  0.4577680000000 1.0
C      1  0.5267880000000  0.5295310000000  0.6092540000000 1.0
C      1  0.4686070000000  0.4696800000000  0.6055630000000 1.0
C      1  0.4199180000000  0.5311370000000  0.5762840000000 1.0
C      1  0.3912310000000  0.4712900000000  0.5259180000000 1.0
C      1  0.3941820000000  0.5302400000000  0.4676760000000 1.0
C      1  0.4235280000000  0.4691720000000  0.4195570000000 1.0
C      1  0.4741200000000  0.5293100000000  0.3912190000000 1.0
C      1  0.5317580000000  0.4689560000000  0.3929380000000 1.0
C      1  0.5808840000000  0.5287290000000  0.4230330000000 1.0
C      1  0.6076730000000  0.4699900000000  0.4749270000000 1.0
C      1  0.6061660000000  0.5310180000000  0.5312190000000 1.0
C      1  0.5782320000000  0.4707450000000  0.5810760000000 1.0
C      1  0.5208400000000  0.5094550000000  0.5427440000000 1.0
C      1  0.4968970000000  0.4917440000000  0.5473620000000 1.0
C      1  0.4735320000000  0.5093680000000  0.5398670000000 1.0
C      1  0.4578210000000  0.4906990000000  0.5215750000000 1.0
C      1  0.4528710000000  0.5070440000000  0.4969540000000 1.0
C      1  0.4606160000000  0.4906450000000  0.4731870000000 1.0
C      1  0.4785150000000  0.5075350000000  0.4561380000000 1.0
C      1  0.5029440000000  0.4902070000000  0.4524190000000 1.0
C      1  0.5254960000000  0.5089670000000  0.4603720000000 1.0
C      1  0.5421900000000  0.4927230000000  0.4791160000000 1.0
C      1  0.5471980000000  0.5092410000000  0.5035420000000 1.0
C      1  0.5403080000000  0.4923790000000  0.5272850000000 1.0
C      1  0.5582560000000  0.5387250000000  0.4115440000000 1.0
C      1  0.5930160000000  0.4600300000000  0.4541520000000 1.0
C      1  0.6047310000000  0.5410520000000  0.5059610000000 1.0
C      1  0.5910600000000  0.4606980000000  0.5592350000000 1.0
C      1  0.5481020000000  0.5401260000000  0.5959440000000 1.0
C      1  0.4937710000000  0.4593320000000  0.6037490000000 1.0
C      1  0.4425770000000  0.5410010000000  0.5877920000000 1.0
C      1  0.4051810000000  0.4610490000000  0.5469910000000 1.0
C      1  0.3965300000000  0.5401270000000  0.4930260000000 1.0
C      1  0.4119530000000  0.4592560000000  0.4421190000000 1.0
C      1  0.4522600000000  0.5395780000000  0.4038900000000 1.0
C      1  0.5063780000000  0.4589680000000  0.3934750000000 1.0
C      1  0.4316330000000  0.4611370000000  0.5658590000000 1.0
C      1  0.4093490000000  0.5411550000000  0.5229910000000 1.0
C      1  0.4075700000000  0.4604340000000  0.4744520000000 1.0
C      1  0.4327600000000  0.5391560000000  0.4297990000000 1.0
C      1  0.4765520000000  0.4594450000000  0.4063520000000 1.0
C      1  0.5259290000000  0.5391190000000  0.4089060000000 1.0
C      1  0.5669200000000  0.4586660000000  0.4346610000000 1.0
C      1  0.5921710000000  0.5398330000000  0.4758920000000 1.0
C      1  0.5933610000000  0.4608670000000  0.5270830000000 1.0
C      1  0.5668770000000  0.5405450000000  0.5694540000000 1.0
C      1  0.5241560000000  0.4602230000000  0.5918160000000 1.0
C      1  0.4748000000000  0.5394800000000  0.5924380000000 1.0
END
