TITL C-2782238-9940-357 -0.000917885889495558 125000 -142.061867218841 0 0 28 (C1) n - 1
REM
REM in /home/nfs/bkarasulu/CARBON/AIRSS/Generating-Clusters/REBO/Higher-Symm/SD-CG/HFTN-CG
REM
REM
REM
REM
REM
REM ./C.cell (12c818d87b63d06a65506943cc24bca4)
REM
REM compiler GCC version 9.2.1 20190827 (Red Hat 9.2.1-1)
REM options -cpp -mtune=generic -march=x86-64 -g -O0 -fpre-include=/usr/include/finclude/math-vector-fortran.h
REM seed -271630721 -489065641 -329797340 2055147759 -822044166 1340968166 -1644515395 1563495157 -1559908949 -1681436461 1667648738 -1859944613 -2067407342 411937417 -1269688170 -1432986434 2044217074 107919300 1428491392 824032826 -1286701045 104125093 -1699083041 1721151048 963169626 -1970719137 -2014736649 -1717861 -1409118728 -1125429852 1852788124 768855941 1817976215
REM
CELL 1.54180   50.00000   50.00000   50.00000   90.00000   90.00000   90.00000
LATT -1
SFAC C  
C      1  0.4820860000000  0.5279650000000  0.4552070000000 1.0
C      1  0.4293150000000  0.4884400000000  0.5303730000000 1.0
C      1  0.4932760000000  0.5312190000000  0.5434440000000 1.0
C      1  0.5620140000000  0.5152640000000  0.5150140000000 1.0
C      1  0.5353450000000  0.5073010000000  0.4401040000000 1.0
C      1  0.4690850000000  0.4962380000000  0.4511170000000 1.0
C      1  0.4432660000000  0.4618240000000  0.5363160000000 1.0
C      1  0.4862260000000  0.5035340000000  0.5474510000000 1.0
C      1  0.5526250000000  0.4824610000000  0.5192770000000 1.0
C      1  0.5323200000000  0.4818720000000  0.4426020000000 1.0
C      1  0.5230480000000  0.5259860000000  0.4646090000000 1.0
C      1  0.4851660000000  0.5309070000000  0.4890350000000 1.0
C      1  0.4497090000000  0.5097570000000  0.5324860000000 1.0
C      1  0.5160170000000  0.5328520000000  0.5274420000000 1.0
C      1  0.5463300000000  0.5265000000000  0.4873360000000 1.0
C      1  0.5158330000000  0.4726050000000  0.4681730000000 1.0
C      1  0.4720910000000  0.4876000000000  0.4839700000000 1.0
C      1  0.4702810000000  0.4771360000000  0.5222330000000 1.0
C      1  0.5068440000000  0.4909120000000  0.5304050000000 1.0
C      1  0.5347860000000  0.4714730000000  0.4932190000000 1.0
C      1  0.5588260000000  0.4948570000000  0.4879200000000 1.0
C      1  0.5016070000000  0.5002360000000  0.4602030000000 1.0
C      1  0.4565010000000  0.5172660000000  0.4750960000000 1.0
C      1  0.5352180000000  0.5076150000000  0.5335190000000 1.0
C      1  0.4608150000000  0.4852530000000  0.5545640000000 1.0
C      1  0.5150830000000  0.5365470000000  0.4963410000000 1.0
C      1  0.4997800000000  0.4777200000000  0.5007980000000 1.0
C      1  0.4725020000000  0.5091360000000  0.5103090000000 1.0
END
