TITL C-2782231-7322-867 0.000731685972324185 125000 -920.33009528637 0 0 157 (C1) n - 1
REM
REM in /home/nfs/bkarasulu/CARBON/AIRSS/Generating-Clusters/REBO/Higher-Symm/SD-CG/HFTN-CG
REM
REM
REM
REM
REM
REM ./C.cell (12c818d87b63d06a65506943cc24bca4)
REM
REM compiler GCC version 9.2.1 20190827 (Red Hat 9.2.1-1)
REM options -cpp -mtune=generic -march=x86-64 -g -O0 -fpre-include=/usr/include/finclude/math-vector-fortran.h
REM seed -1566767524 -304527448 -2109366128 1590477926 509486682 618110727 -287758283 -1485346154 1191234604 -1659644332 367513591 1644407286 -1893103519 910532689 1987178603 -240194546 258693282 -2023832945 495019927 -524167696 362064515 -258318724 -1387008907 90888388 1053747549 304094808 -638970875 1806018834 2084034559 -163741431 353656146 -1732530186 -39672192
REM
CELL 1.54180   50.00000   50.00000   50.00000   90.00000   90.00000   90.00000
LATT -1
SFAC C  
C      1  0.5215250000000  0.4811630000000  0.5905370000000 1.0
C      1  0.4896840000000  0.4747560000000  0.5912840000000 1.0
C      1  0.4731120000000  0.5036210000000  0.5896910000000 1.0
C      1  0.4953470000000  0.5272570000000  0.5882610000000 1.0
C      1  0.5244850000000  0.5136240000000  0.5888270000000 1.0
C      1  0.5185520000000  0.4851020000000  0.4091450000000 1.0
C      1  0.4864270000000  0.4774330000000  0.4098850000000 1.0
C      1  0.4739890000000  0.5086250000000  0.4042850000000 1.0
C      1  0.4942650000000  0.5292390000000  0.4087530000000 1.0
C      1  0.5211460000000  0.5173890000000  0.4083350000000 1.0
C      1  0.4552590000000  0.5608730000000  0.4347560000000 1.0
C      1  0.5403530000000  0.5632020000000  0.4303200000000 1.0
C      1  0.5698920000000  0.4828120000000  0.4303130000000 1.0
C      1  0.5036470000000  0.4281500000000  0.4349150000000 1.0
C      1  0.4297830000000  0.4577110000000  0.4395980000000 1.0
C      1  0.4511250000000  0.5558680000000  0.5696050000000 1.0
C      1  0.5383160000000  0.5636800000000  0.5656430000000 1.0
C      1  0.5725770000000  0.4825540000000  0.5651290000000 1.0
C      1  0.5069910000000  0.4245020000000  0.5704100000000 1.0
C      1  0.4314290000000  0.4716340000000  0.5678650000000 1.0
C      1  0.4984570000000  0.5922850000000  0.5466900000000 1.0
C      1  0.5839210000000  0.5291450000000  0.5440820000000 1.0
C      1  0.5542770000000  0.4259090000000  0.5485010000000 1.0
C      1  0.4501330000000  0.4309480000000  0.5445860000000 1.0
C      1  0.4202450000000  0.5236910000000  0.5407420000000 1.0
C      1  0.5052710000000  0.5844030000000  0.4581330000000 1.0
C      1  0.5802180000000  0.5280260000000  0.4545420000000 1.0
C      1  0.5472100000000  0.4300850000000  0.4590520000000 1.0
C      1  0.4487970000000  0.4183380000000  0.4559420000000 1.0
C      1  0.4214410000000  0.5282380000000  0.4518440000000 1.0
C      1  0.4943820000000  0.5371310000000  0.5181370000000 1.0
C      1  0.5297250000000  0.5099240000000  0.5179000000000 1.0
C      1  0.5184150000000  0.4667880000000  0.5155510000000 1.0
C      1  0.4773740000000  0.4713460000000  0.5156600000000 1.0
C      1  0.4743080000000  0.5122920000000  0.5159070000000 1.0
C      1  0.5049660000000  0.5342590000000  0.4877290000000 1.0
C      1  0.5349700000000  0.5071740000000  0.4863050000000 1.0
C      1  0.5169320000000  0.4713560000000  0.4839360000000 1.0
C      1  0.4700350000000  0.4699530000000  0.4857000000000 1.0
C      1  0.4721720000000  0.5110520000000  0.4833510000000 1.0
C      1  0.5097490000000  0.5229830000000  0.4461700000000 1.0
C      1  0.5233280000000  0.4971210000000  0.4436720000000 1.0
C      1  0.5003440000000  0.4776240000000  0.4470670000000 1.0
C      1  0.4738190000000  0.4924880000000  0.4406990000000 1.0
C      1  0.4828100000000  0.5205480000000  0.4460490000000 1.0
C      1  0.5075500000000  0.5246660000000  0.5548450000000 1.0
C      1  0.5273830000000  0.4998100000000  0.5562490000000 1.0
C      1  0.5109060000000  0.4723980000000  0.5578830000000 1.0
C      1  0.4803440000000  0.4809170000000  0.5580600000000 1.0
C      1  0.4774000000000  0.5136760000000  0.5557540000000 1.0
C      1  0.5662300000000  0.5159590000000  0.5651190000000 1.0
C      1  0.5373420000000  0.4400490000000  0.5696700000000 1.0
C      1  0.4558870000000  0.4479710000000  0.5688590000000 1.0
C      1  0.4353200000000  0.5257950000000  0.5676540000000 1.0
C      1  0.5052820000000  0.5701830000000  0.5678870000000 1.0
C      1  0.5653110000000  0.5158320000000  0.4297170000000 1.0
C      1  0.5324410000000  0.4436220000000  0.4342420000000 1.0
C      1  0.4510780000000  0.4387810000000  0.4307200000000 1.0
C      1  0.4365400000000  0.5361240000000  0.4257420000000 1.0
C      1  0.5085030000000  0.5714260000000  0.4308490000000 1.0
C      1  0.4818910000000  0.4463380000000  0.5785970000000 1.0
C      1  0.4436880000000  0.5016190000000  0.5783780000000 1.0
C      1  0.4844920000000  0.5545760000000  0.5771360000000 1.0
C      1  0.5458420000000  0.5314230000000  0.5741640000000 1.0
C      1  0.5454310000000  0.4652920000000  0.5767020000000 1.0
C      1  0.4782460000000  0.4464850000000  0.4213810000000 1.0
C      1  0.4475880000000  0.5175410000000  0.4090400000000 1.0
C      1  0.4864060000000  0.5547520000000  0.4218820000000 1.0
C      1  0.5436810000000  0.5312150000000  0.4191840000000 1.0
C      1  0.5408980000000  0.4668680000000  0.4218320000000 1.0
C      1  0.5327980000000  0.4060710000000  0.4770910000000 1.0
C      1  0.4207690000000  0.4235100000000  0.4736690000000 1.0
C      1  0.4131680000000  0.5555760000000  0.4679670000000 1.0
C      1  0.5319520000000  0.5947660000000  0.4744960000000 1.0
C      1  0.6001190000000  0.5069350000000  0.4694220000000 1.0
C      1  0.5424350000000  0.3974150000000  0.5372030000000 1.0
C      1  0.4234500000000  0.4376560000000  0.5266590000000 1.0
C      1  0.4145460000000  0.5530180000000  0.5274370000000 1.0
C      1  0.5252140000000  0.6059060000000  0.5339490000000 1.0
C      1  0.6049610000000  0.5086310000000  0.5301710000000 1.0
C      1  0.4952160000000  0.3948530000000  0.5234260000000 1.0
C      1  0.3994280000000  0.4709390000000  0.5138770000000 1.0
C      1  0.4406160000000  0.5851760000000  0.5197150000000 1.0
C      1  0.5660070000000  0.5810820000000  0.5196800000000 1.0
C      1  0.5916840000000  0.4642500000000  0.5144250000000 1.0
C      1  0.4981500000000  0.3913260000000  0.4898630000000 1.0
C      1  0.3995600000000  0.4692270000000  0.4798940000000 1.0
C      1  0.4476340000000  0.5855700000000  0.4864410000000 1.0
C      1  0.5689620000000  0.5861550000000  0.4861970000000 1.0
C      1  0.5945900000000  0.4662890000000  0.4806170000000 1.0
C      1  0.4768400000000  0.4172630000000  0.4843900000000 1.0
C      1  0.4182620000000  0.4979030000000  0.4776820000000 1.0
C      1  0.4792440000000  0.5859930000000  0.4879360000000 1.0
C      1  0.5650000000000  0.5525040000000  0.4822210000000 1.0
C      1  0.5679680000000  0.4508760000000  0.4853980000000 1.0
C      1  0.4739040000000  0.4164590000000  0.5166330000000 1.0
C      1  0.4211360000000  0.4970270000000  0.5110510000000 1.0
C      1  0.4714550000000  0.5863980000000  0.5183170000000 1.0
C      1  0.5696290000000  0.5506000000000  0.5141300000000 1.0
C      1  0.5674560000000  0.4441710000000  0.5160800000000 1.0
C      1  0.4970290000000  0.4504640000000  0.4563880000000 1.0
C      1  0.4446250000000  0.4840560000000  0.4454470000000 1.0
C      1  0.4693640000000  0.5441530000000  0.4572850000000 1.0
C      1  0.5280940000000  0.5448770000000  0.4533640000000 1.0
C      1  0.5495810000000  0.4881280000000  0.4543730000000 1.0
C      1  0.5054030000000  0.4450420000000  0.5463140000000 1.0
C      1  0.4528910000000  0.4804100000000  0.5458200000000 1.0
C      1  0.4653910000000  0.5396280000000  0.5454440000000 1.0
C      1  0.5251090000000  0.5452230000000  0.5424190000000 1.0
C      1  0.5502650000000  0.4845890000000  0.5419440000000 1.0
C      1  0.5945730000000  0.4801120000000  0.4536250000000 1.0
C      1  0.5054350000000  0.4046190000000  0.4594100000000 1.0
C      1  0.4098600000000  0.4500290000000  0.4603660000000 1.0
C      1  0.4385050000000  0.5735450000000  0.4617020000000 1.0
C      1  0.5544530000000  0.5807000000000  0.4559070000000 1.0
C      1  0.5936570000000  0.4804990000000  0.5383080000000 1.0
C      1  0.5116780000000  0.4005280000000  0.5465160000000 1.0
C      1  0.4103040000000  0.4616670000000  0.5430810000000 1.0
C      1  0.4323570000000  0.5717880000000  0.5459890000000 1.0
C      1  0.5490040000000  0.5862970000000  0.5424630000000 1.0
C      1  0.4448900000000  0.4049440000000  0.4871790000000 1.0
C      1  0.4004260000000  0.5267010000000  0.4790670000000 1.0
C      1  0.5023750000000  0.6079560000000  0.4834360000000 1.0
C      1  0.5962770000000  0.5380430000000  0.4828300000000 1.0
C      1  0.5629080000000  0.4173040000000  0.4871110000000 1.0
C      1  0.4414990000000  0.4096450000000  0.5193370000000 1.0
C      1  0.4023120000000  0.5254350000000  0.5117320000000 1.0
C      1  0.4963050000000  0.6086150000000  0.5160640000000 1.0
C      1  0.6001590000000  0.5384330000000  0.5150990000000 1.0
C      1  0.5678570000000  0.4119820000000  0.5198650000000 1.0
C      1  0.5141940000000  0.4334790000000  0.5162960000000 1.0
C      1  0.4433650000000  0.4703510000000  0.5154230000000 1.0
C      1  0.4526210000000  0.5457370000000  0.5185920000000 1.0
C      1  0.5192350000000  0.5600570000000  0.5144940000000 1.0
C      1  0.5608010000000  0.4968130000000  0.5149490000000 1.0
C      1  0.5004540000000  0.4426110000000  0.4893400000000 1.0
C      1  0.4400640000000  0.4709550000000  0.4758860000000 1.0
C      1  0.4576910000000  0.5409230000000  0.4872220000000 1.0
C      1  0.5307760000000  0.5560590000000  0.4842960000000 1.0
C      1  0.5650070000000  0.4929890000000  0.4822690000000 1.0
C      1  0.5518600000000  0.5319140000000  0.5314680000000 1.0
C      1  0.5437480000000  0.4551450000000  0.5332420000000 1.0
C      1  0.4786290000000  0.4441670000000  0.5310160000000 1.0
C      1  0.4478150000000  0.5073620000000  0.5297440000000 1.0
C      1  0.4847490000000  0.5634170000000  0.5344310000000 1.0
C      1  0.5500930000000  0.5262560000000  0.4662970000000 1.0
C      1  0.5428610000000  0.4622210000000  0.4698830000000 1.0
C      1  0.4677980000000  0.4439320000000  0.4664980000000 1.0
C      1  0.4467340000000  0.5105960000000  0.4638740000000 1.0
C      1  0.4903400000000  0.5598160000000  0.4740240000000 1.0
C      1  0.5295350000000  0.5892280000000  0.5060120000000 1.0
C      1  0.4288030000000  0.4469510000000  0.4954360000000 1.0
C      1  0.4274510000000  0.5526550000000  0.4966630000000 1.0
C      1  0.5914920000000  0.5019750000000  0.5011580000000 1.0
C      1  0.5296780000000  0.4088700000000  0.5091250000000 1.0
C      1  0.5015560000000  0.4938960000000  0.5237330000000 1.0
C      1  0.5033750000000  0.5013270000000  0.4790770000000 1.0
END
