TITL C-2782229-3092-1195 0.00164691244159751 125000 -603.487752663788 0 0 100 (C5) n - 1
REM
REM in /home/nfs/bkarasulu/CARBON/AIRSS/Generating-Clusters/REBO/Higher-Symm/SD-CG/HFTN-CG
REM
REM
REM
REM
REM
REM ./C.cell (12c818d87b63d06a65506943cc24bca4)
REM
REM compiler GCC version 9.2.1 20190827 (Red Hat 9.2.1-1)
REM options -cpp -mtune=generic -march=x86-64 -g -O0 -fpre-include=/usr/include/finclude/math-vector-fortran.h
REM seed -1912146935 314565056 326942586 -1481069951 -521385270 -247496738 -1347822093 -707676111 1653444580 -779707023 -1755513440 1379748900 -1140143160 -308884968 -1597377807 -935266328 969333805 -1411419755 1233413470 -739800421 1570803327 1251598923 752271129 -904773895 -1145249049 -1436356745 1488058154 -1327613473 1774486797 1451773911 -2107531090 -1683337804 1931234480
REM
CELL 1.54180   50.00000   50.00000   50.00000   90.00000   90.00000   90.00000
LATT -1
SFAC C  
C      1  0.4728370000000  0.4680290000000  0.5012460000000 1.0
C      1  0.4612000000000  0.5159560000000  0.5012360000000 1.0
C      1  0.5031850000000  0.5418330000000  0.5011830000000 1.0
C      1  0.5407700000000  0.5098990000000  0.5011620000000 1.0
C      1  0.5220130000000  0.4642860000000  0.5012010000000 1.0
C      1  0.5473760000000  0.4867890000000  0.5632040000000 1.0
C      1  0.5020900000000  0.4509390000000  0.5632640000000 1.0
C      1  0.4540010000000  0.4829300000000  0.5632960000000 1.0
C      1  0.4695660000000  0.5385510000000  0.5632560000000 1.0
C      1  0.5272740000000  0.5409360000000  0.5631990000000 1.0
C      1  0.4848020000000  0.4770360000000  0.5761210000000 1.0
C      1  0.4734810000000  0.5074510000000  0.5761180000000 1.0
C      1  0.4989100000000  0.5276170000000  0.5760840000000 1.0
C      1  0.5259470000000  0.5096650000000  0.5760660000000 1.0
C      1  0.5172280000000  0.4784040000000  0.5760890000000 1.0
C      1  0.4294230000000  0.5459650000000  0.4789640000000 1.0
C      1  0.5219000000000  0.5813010000000  0.4788580000000 1.0
C      1  0.5840840000000  0.5042690000000  0.4788330000000 1.0
C      1  0.5300380000000  0.4213240000000  0.4789230000000 1.0
C      1  0.4344520000000  0.4470940000000  0.4790040000000 1.0
C      1  0.4978440000000  0.4717230000000  0.5232310000000 1.0
C      1  0.4724460000000  0.4933410000000  0.5232460000000 1.0
C      1  0.4851580000000  0.5241760000000  0.5232200000000 1.0
C      1  0.5184120000000  0.5216160000000  0.5231890000000 1.0
C      1  0.5262530000000  0.4891970000000  0.5231960000000 1.0
C      1  0.5892120000000  0.4755940000000  0.5196540000000 1.0
C      1  0.5043620000000  0.4076370000000  0.5197670000000 1.0
C      1  0.4135100000000  0.4673350000000  0.5198280000000 1.0
C      1  0.4422110000000  0.5721870000000  0.5197530000000 1.0
C      1  0.5508010000000  0.5772920000000  0.5196450000000 1.0
C      1  0.5182220000000  0.3888030000000  0.4595810000000 1.0
C      1  0.3998670000000  0.4482580000000  0.4596690000000 1.0
C      1  0.4198380000000  0.5791930000000  0.4595900000000 1.0
C      1  0.5505360000000  0.6006610000000  0.4594530000000 1.0
C      1  0.6113410000000  0.4829930000000  0.4594480000000 1.0
C      1  0.5241070000000  0.5762970000000  0.5277490000000 1.0
C      1  0.5800180000000  0.5006850000000  0.5277290000000 1.0
C      1  0.5253850000000  0.4241440000000  0.5278170000000 1.0
C      1  0.4357080000000  0.4524510000000  0.5278910000000 1.0
C      1  0.4349180000000  0.5464870000000  0.5278490000000 1.0
C      1  0.5115200000000  0.5646240000000  0.5500640000000 1.0
C      1  0.5650330000000  0.5090760000000  0.5500370000000 1.0
C      1  0.5287400000000  0.4410160000000  0.5501040000000 1.0
C      1  0.4527960000000  0.4545020000000  0.5501710000000 1.0
C      1  0.4421540000000  0.5308960000000  0.5501470000000 1.0
C      1  0.5555280000000  0.5362350000000  0.5499010000000 1.0
C      1  0.5516320000000  0.4584490000000  0.5499400000000 1.0
C      1  0.4764490000000  0.4381160000000  0.5500220000000 1.0
C      1  0.4338790000000  0.5033370000000  0.5500340000000 1.0
C      1  0.4827530000000  0.5639770000000  0.5499590000000 1.0
C      1  0.4094480000000  0.5218560000000  0.4637910000000 1.0
C      1  0.4927960000000  0.5928290000000  0.4636780000000 1.0
C      1  0.5860510000000  0.5354930000000  0.4636140000000 1.0
C      1  0.5603380000000  0.4290840000000  0.4636870000000 1.0
C      1  0.4511910000000  0.4206560000000  0.4637970000000 1.0
C      1  0.4347440000000  0.5295190000000  0.5036570000000 1.0
C      1  0.5079100000000  0.5711880000000  0.5035670000000 1.0
C      1  0.5701490000000  0.5144800000000  0.5035320000000 1.0
C      1  0.5354490000000  0.4377630000000  0.5036010000000 1.0
C      1  0.4517650000000  0.4470580000000  0.5036780000000 1.0
C      1  0.4081770000000  0.4676200000000  0.4861520000000 1.0
C      1  0.4408270000000  0.5773060000000  0.4860710000000 1.0
C      1  0.5552340000000  0.5801480000000  0.4859590000000 1.0
C      1  0.5932910000000  0.4722200000000  0.4859710000000 1.0
C      1  0.5024050000000  0.4026740000000  0.4860910000000 1.0
C      1  0.4107520000000  0.5517540000000  0.4511510000000 1.0
C      1  0.5216300000000  0.6008120000000  0.4510210000000 1.0
C      1  0.6025510000000  0.5105210000000  0.4509830000000 1.0
C      1  0.5416840000000  0.4056590000000  0.4510900000000 1.0
C      1  0.4231460000000  0.4311430000000  0.4511930000000 1.0
C      1  0.4633520000000  0.4203450000000  0.5069610000000 1.0
C      1  0.4129200000000  0.5102480000000  0.5069690000000 1.0
C      1  0.4828390000000  0.5859930000000  0.5068670000000 1.0
C      1  0.5764830000000  0.5429030000000  0.5067960000000 1.0
C      1  0.5644390000000  0.4405270000000  0.5068540000000 1.0
C      1  0.5231440000000  0.4875410000000  0.4107780000000 1.0
C      1  0.4952820000000  0.4740280000000  0.4108110000000 1.0
C      1  0.4738200000000  0.4963510000000  0.4108220000000 1.0
C      1  0.4884190000000  0.5236610000000  0.4107960000000 1.0
C      1  0.5189030000000  0.5182160000000  0.4107680000000 1.0
C      1  0.5055240000000  0.4714670000000  0.4428040000000 1.0
C      1  0.4745570000000  0.4858590000000  0.4428270000000 1.0
C      1  0.4786750000000  0.5197570000000  0.4428080000000 1.0
C      1  0.5121860000000  0.5263160000000  0.4427720000000 1.0
C      1  0.5287800000000  0.4964710000000  0.4427700000000 1.0
C      1  0.4716710000000  0.4106040000000  0.4813370000000 1.0
C      1  0.4062210000000  0.4992950000000  0.4813600000000 1.0
C      1  0.4703460000000  0.5889480000000  0.4812570000000 1.0
C      1  0.5754270000000  0.5556660000000  0.4811700000000 1.0
C      1  0.5762460000000  0.4454440000000  0.4812190000000 1.0
C      1  0.5146450000000  0.4763340000000  0.4742410000000 1.0
C      1  0.4820120000000  0.4787270000000  0.4742720000000 1.0
C      1  0.4742030000000  0.5105020000000  0.4742650000000 1.0
C      1  0.5020100000000  0.5277480000000  0.4742300000000 1.0
C      1  0.5270050000000  0.5066310000000  0.4742160000000 1.0
C      1  0.5721350000000  0.4549630000000  0.5296630000000 1.0
C      1  0.4794650000000  0.4175140000000  0.5297690000000 1.0
C      1  0.4152130000000  0.4940770000000  0.5297970000000 1.0
C      1  0.4681730000000  0.5788440000000  0.5297070000000 1.0
C      1  0.5651570000000  0.5546700000000  0.5296240000000 1.0
END
