TITL C-2782240-8521-103 0.00583248588467012 125000 -485.238564196288 0 0 78 (C1) n - 1
REM
REM in /home/nfs/bkarasulu/CARBON/AIRSS/Generating-Clusters/REBO/Higher-Symm/SD-CG/HFTN-CG
REM
REM
REM
REM
REM
REM ./C.cell (12c818d87b63d06a65506943cc24bca4)
REM
REM compiler GCC version 9.2.1 20190827 (Red Hat 9.2.1-1)
REM options -cpp -mtune=generic -march=x86-64 -g -O0 -fpre-include=/usr/include/finclude/math-vector-fortran.h
REM seed 1071598105 -1095146545 1048221993 1352724645 359261399 -1174334928 -23481754 -2046755067 117530308 496181319 1267545227 1393801639 -1757258293 -1395739237 949322698 1810472504 583936662 -1255595626 -1931407835 -1744581918 947568312 -1423712874 -431798163 532981461 1094058166 275882396 -444884956 1438076500 648025446 47047010 23829620 360425899 -1684621834
REM
CELL 1.54180   50.00000   50.00000   50.00000   90.00000   90.00000   90.00000
LATT -1
SFAC C  
C      1  0.4239350000000  0.5005120000000  0.5249550000000 1.0
C      1  0.4855710000000  0.5022440000000  0.5739680000000 1.0
C      1  0.5676680000000  0.5020490000000  0.5551380000000 1.0
C      1  0.5788090000000  0.4998800000000  0.4723060000000 1.0
C      1  0.5129420000000  0.5000210000000  0.4172510000000 1.0
C      1  0.4392530000000  0.5002080000000  0.4470600000000 1.0
C      1  0.5770570000000  0.5020570000000  0.5270590000000 1.0
C      1  0.5144360000000  0.5045510000000  0.5735830000000 1.0
C      1  0.4334510000000  0.4980210000000  0.5531150000000 1.0
C      1  0.4217320000000  0.4991050000000  0.4706070000000 1.0
C      1  0.4835470000000  0.4966330000000  0.4125080000000 1.0
C      1  0.5604900000000  0.5011050000000  0.4493450000000 1.0
C      1  0.5119710000000  0.4319140000000  0.4440800000000 1.0
C      1  0.4544220000000  0.4307820000000  0.4582180000000 1.0
C      1  0.4403160000000  0.4306230000000  0.5155250000000 1.0
C      1  0.4851300000000  0.4309530000000  0.5534720000000 1.0
C      1  0.5425590000000  0.4337460000000  0.5432680000000 1.0
C      1  0.5553490000000  0.4323090000000  0.4852760000000 1.0
C      1  0.4798320000000  0.4302440000000  0.4459430000000 1.0
C      1  0.5352230000000  0.4323330000000  0.4600000000000 1.0
C      1  0.5544220000000  0.4328060000000  0.5134470000000 1.0
C      1  0.5175510000000  0.4337670000000  0.5569600000000 1.0
C      1  0.4601790000000  0.4294640000000  0.5408290000000 1.0
C      1  0.4412060000000  0.4302090000000  0.4873910000000 1.0
C      1  0.4447050000000  0.4761530000000  0.4330000000000 1.0
C      1  0.4148280000000  0.4768770000000  0.5126680000000 1.0
C      1  0.4719970000000  0.4769600000000  0.5739720000000 1.0
C      1  0.5571710000000  0.4795640000000  0.5680190000000 1.0
C      1  0.5850910000000  0.4765830000000  0.4862490000000 1.0
C      1  0.5283150000000  0.4767180000000  0.4207240000000 1.0
C      1  0.5510780000000  0.4772070000000  0.4377550000000 1.0
C      1  0.5824080000000  0.4773580000000  0.5145340000000 1.0
C      1  0.5305390000000  0.4811550000000  0.5783020000000 1.0
C      1  0.4456920000000  0.4748780000000  0.5631240000000 1.0
C      1  0.4151100000000  0.4757500000000  0.4843500000000 1.0
C      1  0.4687920000000  0.4735220000000  0.4178840000000 1.0
C      1  0.5255340000000  0.5278260000000  0.5620850000000 1.0
C      1  0.5666960000000  0.5283420000000  0.5127010000000 1.0
C      1  0.5447210000000  0.5280390000000  0.4497400000000 1.0
C      1  0.4830190000000  0.5230640000000  0.4298070000000 1.0
C      1  0.4384440000000  0.5262690000000  0.4778910000000 1.0
C      1  0.4458010000000  0.5268820000000  0.5452700000000 1.0
C      1  0.4708960000000  0.5251610000000  0.5670640000000 1.0
C      1  0.4379570000000  0.5268180000000  0.5118880000000 1.0
C      1  0.4579230000000  0.5253970000000  0.4494100000000 1.0
C      1  0.5167870000000  0.5272420000000  0.4338290000000 1.0
C      1  0.5631070000000  0.5278820000000  0.4789250000000 1.0
C      1  0.5533020000000  0.5290690000000  0.5444050000000 1.0
C      1  0.5637990000000  0.4541750000000  0.5563890000000 1.0
C      1  0.5778220000000  0.4519500000000  0.4736460000000 1.0
C      1  0.5143610000000  0.4517170000000  0.4191000000000 1.0
C      1  0.4346700000000  0.4518420000000  0.4443580000000 1.0
C      1  0.4193630000000  0.4521510000000  0.5265750000000 1.0
C      1  0.4877380000000  0.4533290000000  0.5746480000000 1.0
C      1  0.4388680000000  0.4503670000000  0.5500520000000 1.0
C      1  0.4232080000000  0.4509700000000  0.4725130000000 1.0
C      1  0.4840410000000  0.4496020000000  0.4218740000000 1.0
C      1  0.5573480000000  0.4526450000000  0.4511340000000 1.0
C      1  0.5733390000000  0.4534110000000  0.5274470000000 1.0
C      1  0.5170770000000  0.4560880000000  0.5802400000000 1.0
C      1  0.4494960000000  0.5577180000000  0.5202910000000 1.0
C      1  0.4816090000000  0.5534480000000  0.5697940000000 1.0
C      1  0.5407280000000  0.5606930000000  0.5464000000000 1.0
C      1  0.5592370000000  0.5599100000000  0.4897140000000 1.0
C      1  0.5191870000000  0.5584300000000  0.4464280000000 1.0
C      1  0.4607900000000  0.5554880000000  0.4622250000000 1.0
C      1  0.5626780000000  0.5603260000000  0.5215180000000 1.0
C      1  0.5097560000000  0.5560570000000  0.5597520000000 1.0
C      1  0.4559560000000  0.5586350000000  0.5525140000000 1.0
C      1  0.4406390000000  0.5586160000000  0.4882480000000 1.0
C      1  0.4868280000000  0.5521070000000  0.4427650000000 1.0
C      1  0.5487220000000  0.5594260000000  0.4589890000000 1.0
C      1  0.5048000000000  0.5661260000000  0.5301200000000 1.0
C      1  0.5276230000000  0.5717150000000  0.4830570000000 1.0
C      1  0.4727940000000  0.5699980000000  0.4902370000000 1.0
C      1  0.4816560000000  0.5649300000000  0.5193820000000 1.0
C      1  0.5314700000000  0.5727630000000  0.5151760000000 1.0
C      1  0.4974320000000  0.5690780000000  0.4705090000000 1.0
END
