TITL C-2782229-3092-1385 -5.38733146397219e-05 125000 -486.467541087057 0 0 83 (C1) n - 1
REM
REM in /home/nfs/bkarasulu/CARBON/AIRSS/Generating-Clusters/REBO/Higher-Symm/SD-CG/HFTN-CG
REM
REM
REM
REM
REM
REM ./C.cell (12c818d87b63d06a65506943cc24bca4)
REM
REM compiler GCC version 9.2.1 20190827 (Red Hat 9.2.1-1)
REM options -cpp -mtune=generic -march=x86-64 -g -O0 -fpre-include=/usr/include/finclude/math-vector-fortran.h
REM seed -1189050958 1801659133 768975812 -2142694256 676579541 2039486649 324357457 1314536242 1389790139 -255023219 2079422056 -987870114 780682060 -1080173224 -412952957 178026266 150782427 -1620479083 657735635 -1633383606 1382361791 -1651818944 -2031768751 -1004622225 1298180605 1993294452 1559109906 420737354 -1810285954 2003851168 -1010533056 522655652 -15460778
REM
CELL 1.54180   50.00000   50.00000   50.00000   90.00000   90.00000   90.00000
LATT -1
SFAC C  
C      1  0.5410840000000  0.4974810000000  0.5993460000000 1.0
C      1  0.5753820000000  0.5399140000000  0.5019280000000 1.0
C      1  0.4998370000000  0.5975460000000  0.5383930000000 1.0
C      1  0.4598910000000  0.4971550000000  0.3989370000000 1.0
C      1  0.5355230000000  0.5038760000000  0.3982060000000 1.0
C      1  0.4649360000000  0.5030070000000  0.6023310000000 1.0
C      1  0.4237640000000  0.5389440000000  0.4980730000000 1.0
C      1  0.5954360000000  0.4591940000000  0.5021360000000 1.0
C      1  0.4056340000000  0.4577370000000  0.4951990000000 1.0
C      1  0.4976150000000  0.5979560000000  0.4617520000000 1.0
C      1  0.4997590000000  0.4028640000000  0.4591050000000 1.0
C      1  0.4928370000000  0.4203260000000  0.5399880000000 1.0
C      1  0.5356970000000  0.5172830000000  0.5075600000000 1.0
C      1  0.5082430000000  0.5345380000000  0.5180050000000 1.0
C      1  0.5184190000000  0.5068620000000  0.5351170000000 1.0
C      1  0.4638230000000  0.5166720000000  0.4924900000000 1.0
C      1  0.5359110000000  0.4806780000000  0.4915710000000 1.0
C      1  0.4638070000000  0.4804950000000  0.5094270000000 1.0
C      1  0.4911010000000  0.5341300000000  0.4819020000000 1.0
C      1  0.5083610000000  0.4622800000000  0.4830000000000 1.0
C      1  0.4911900000000  0.4623630000000  0.5190460000000 1.0
C      1  0.4812380000000  0.5061510000000  0.4650790000000 1.0
C      1  0.5174390000000  0.4892640000000  0.4641550000000 1.0
C      1  0.4821230000000  0.4901880000000  0.5365770000000 1.0
C      1  0.5211860000000  0.4009440000000  0.4769730000000 1.0
C      1  0.4746140000000  0.5205410000000  0.4032800000000 1.0
C      1  0.4030010000000  0.4732140000000  0.5184930000000 1.0
C      1  0.4704310000000  0.4217570000000  0.5238240000000 1.0
C      1  0.5216510000000  0.5958690000000  0.5207450000000 1.0
C      1  0.4758640000000  0.5953580000000  0.4793790000000 1.0
C      1  0.5256420000000  0.5207110000000  0.5965440000000 1.0
C      1  0.4801700000000  0.4795900000000  0.5995800000000 1.0
C      1  0.5208350000000  0.4801070000000  0.4005870000000 1.0
C      1  0.5966690000000  0.4752080000000  0.4791130000000 1.0
C      1  0.4241160000000  0.5252760000000  0.4740360000000 1.0
C      1  0.5760160000000  0.5257360000000  0.5256380000000 1.0
C      1  0.5830130000000  0.4673740000000  0.5269270000000 1.0
C      1  0.5227440000000  0.5852690000000  0.4687680000000 1.0
C      1  0.4741220000000  0.5267510000000  0.5885460000000 1.0
C      1  0.4183460000000  0.4668020000000  0.4708340000000 1.0
C      1  0.5736200000000  0.5288950000000  0.4754820000000 1.0
C      1  0.4250330000000  0.5274350000000  0.5243900000000 1.0
C      1  0.4751390000000  0.5841270000000  0.5312290000000 1.0
C      1  0.5200690000000  0.4211950000000  0.5312090000000 1.0
C      1  0.4748350000000  0.4158770000000  0.4653700000000 1.0
C      1  0.5254650000000  0.5272070000000  0.4119810000000 1.0
C      1  0.4701220000000  0.4727490000000  0.4104360000000 1.0
C      1  0.5309540000000  0.4731590000000  0.5874190000000 1.0
C      1  0.4219220000000  0.4952120000000  0.4724200000000 1.0
C      1  0.4725810000000  0.4196320000000  0.4937710000000 1.0
C      1  0.4979560000000  0.4771520000000  0.4176300000000 1.0
C      1  0.5788050000000  0.4957460000000  0.5263420000000 1.0
C      1  0.4173400000000  0.4975650000000  0.5233400000000 1.0
C      1  0.5814180000000  0.4991270000000  0.4755520000000 1.0
C      1  0.5225010000000  0.4155230000000  0.5012840000000 1.0
C      1  0.4763430000000  0.5784820000000  0.5026030000000 1.0
C      1  0.5217190000000  0.5792870000000  0.4973200000000 1.0
C      1  0.5026460000000  0.4772380000000  0.5819150000000 1.0
C      1  0.5017420000000  0.5220220000000  0.5808140000000 1.0
C      1  0.4980520000000  0.5216110000000  0.4196300000000 1.0
C      1  0.5447830000000  0.4569020000000  0.5690160000000 1.0
C      1  0.5579610000000  0.5418350000000  0.4564330000000 1.0
C      1  0.4613590000000  0.5651250000000  0.5468320000000 1.0
C      1  0.4555260000000  0.4553360000000  0.4271090000000 1.0
C      1  0.5396930000000  0.5440710000000  0.4296170000000 1.0
C      1  0.4591730000000  0.5426620000000  0.5705270000000 1.0
C      1  0.4406920000000  0.5400000000000  0.5437700000000 1.0
C      1  0.5664070000000  0.4533010000000  0.5446940000000 1.0
C      1  0.4345240000000  0.4534870000000  0.4522420000000 1.0
C      1  0.5370240000000  0.5666960000000  0.4530800000000 1.0
C      1  0.4587330000000  0.4322220000000  0.4495860000000 1.0
C      1  0.5392760000000  0.4357880000000  0.5449130000000 1.0
C      1  0.5603670000000  0.4998770000000  0.4995480000000 1.0
C      1  0.4993870000000  0.5581410000000  0.4998090000000 1.0
C      1  0.5011690000000  0.4990680000000  0.5598890000000 1.0
C      1  0.4392400000000  0.4990890000000  0.5000960000000 1.0
C      1  0.4993030000000  0.4375250000000  0.5012180000000 1.0
C      1  0.4985550000000  0.4983480000000  0.4404120000000 1.0
C      1  0.5188000000000  0.4792650000000  0.5187660000000 1.0
C      1  0.4812940000000  0.5171960000000  0.5192840000000 1.0
C      1  0.4806100000000  0.4789180000000  0.4820460000000 1.0
C      1  0.5181460000000  0.5169030000000  0.4807180000000 1.0
C      1  0.4997530000000  0.4981660000000  0.5001720000000 1.0
END
