TITL C-2782229-3092-234 0.00104462760284502 125000 -479.372736593749 0 0 87 (C1) n - 1
REM
REM in /home/nfs/bkarasulu/CARBON/AIRSS/Generating-Clusters/REBO/Higher-Symm/SD-CG/HFTN-CG
REM
REM
REM
REM
REM
REM ./C.cell (12c818d87b63d06a65506943cc24bca4)
REM
REM compiler GCC version 9.2.1 20190827 (Red Hat 9.2.1-1)
REM options -cpp -mtune=generic -march=x86-64 -g -O0 -fpre-include=/usr/include/finclude/math-vector-fortran.h
REM seed -6351922 287509337 -1367933634 -1112192702 1798240566 -1986574495 1386840673 -1771278239 1035814867 -2052283692 -953198685 501521780 2043951346 151651237 -1748072715 -1660916049 -1268990645 -1148933400 363893956 425350694 944977361 -414072534 -2024224741 -1789442524 -891121642 -874279477 -2053752300 816370312 -1128129133 4590154 1053235646 1666341702 -1043544473
REM
CELL 1.54180   50.00000   50.00000   50.00000   90.00000   90.00000   90.00000
LATT -1
SFAC C  
C      1  0.5004400000000  0.4688880000000  0.5178110000000 1.0
C      1  0.5299710000000  0.5149940000000  0.5157340000000 1.0
C      1  0.4744800000000  0.5167880000000  0.5214770000000 1.0
C      1  0.4981630000000  0.4700450000000  0.4840970000000 1.0
C      1  0.5279620000000  0.5148130000000  0.4815810000000 1.0
C      1  0.4725900000000  0.5164990000000  0.4874890000000 1.0
C      1  0.5027100000000  0.5302400000000  0.5261820000000 1.0
C      1  0.5265370000000  0.4851000000000  0.5078430000000 1.0
C      1  0.4750490000000  0.4854860000000  0.5124070000000 1.0
C      1  0.5001000000000  0.5288550000000  0.4933930000000 1.0
C      1  0.5257620000000  0.4840700000000  0.4748690000000 1.0
C      1  0.4713360000000  0.4852150000000  0.4791460000000 1.0
C      1  0.5388210000000  0.4645810000000  0.5275420000000 1.0
C      1  0.5142070000000  0.5570040000000  0.5416420000000 1.0
C      1  0.4502060000000  0.4865090000000  0.5310560000000 1.0
C      1  0.5406180000000  0.4578630000000  0.4603070000000 1.0
C      1  0.5141450000000  0.5515820000000  0.4754510000000 1.0
C      1  0.4435610000000  0.4827050000000  0.4618640000000 1.0
C      1  0.5397970000000  0.5396360000000  0.5370670000000 1.0
C      1  0.5158410000000  0.4470110000000  0.5381580000000 1.0
C      1  0.4450250000000  0.5160400000000  0.5361240000000 1.0
C      1  0.5419990000000  0.5413790000000  0.4676160000000 1.0
C      1  0.5125970000000  0.4471480000000  0.4674170000000 1.0
C      1  0.4466600000000  0.5135630000000  0.4659870000000 1.0
C      1  0.5311070000000  0.5335000000000  0.5958100000000 1.0
C      1  0.4458760000000  0.5233300000000  0.5849910000000 1.0
C      1  0.5105320000000  0.4538850000000  0.5981510000000 1.0
C      1  0.5457560000000  0.5308360000000  0.4183900000000 1.0
C      1  0.4510280000000  0.5082440000000  0.4087020000000 1.0
C      1  0.5078030000000  0.4549820000000  0.4032290000000 1.0
C      1  0.5336840000000  0.4681620000000  0.5936950000000 1.0
C      1  0.4524660000000  0.4969860000000  0.5900880000000 1.0
C      1  0.5076000000000  0.5472050000000  0.6005370000000 1.0
C      1  0.5317040000000  0.4679390000000  0.3988340000000 1.0
C      1  0.4485780000000  0.4811190000000  0.4040670000000 1.0
C      1  0.5205270000000  0.5406920000000  0.4134550000000 1.0
C      1  0.5247460000000  0.5097060000000  0.4380450000000 1.0
C      1  0.4702730000000  0.5146170000000  0.4337760000000 1.0
C      1  0.4948860000000  0.4623530000000  0.4319890000000 1.0
C      1  0.5300050000000  0.5167850000000  0.5682900000000 1.0
C      1  0.4739170000000  0.5175500000000  0.5636930000000 1.0
C      1  0.5025890000000  0.4690480000000  0.5687380000000 1.0
C      1  0.5247610000000  0.4788490000000  0.4303200000000 1.0
C      1  0.4689750000000  0.4807000000000  0.4312780000000 1.0
C      1  0.4977690000000  0.5303640000000  0.4348200000000 1.0
C      1  0.5325790000000  0.4852300000000  0.5661260000000 1.0
C      1  0.4734520000000  0.4837230000000  0.5679990000000 1.0
C      1  0.5004050000000  0.5332360000000  0.5703580000000 1.0
C      1  0.4552470000000  0.4489650000000  0.5186610000000 1.0
C      1  0.5679080000000  0.4880330000000  0.5134790000000 1.0
C      1  0.4833480000000  0.5674790000000  0.5187620000000 1.0
C      1  0.4492040000000  0.4509830000000  0.4851480000000 1.0
C      1  0.5654110000000  0.4821790000000  0.4797530000000 1.0
C      1  0.4780860000000  0.5652500000000  0.4850620000000 1.0
C      1  0.4532880000000  0.5510690000000  0.5191780000000 1.0
C      1  0.5693340000000  0.5219100000000  0.5172430000000 1.0
C      1  0.4848900000000  0.4320440000000  0.5183070000000 1.0
C      1  0.4485270000000  0.5482680000000  0.4854310000000 1.0
C      1  0.5678500000000  0.5160650000000  0.4841080000000 1.0
C      1  0.4790430000000  0.4343400000000  0.4847290000000 1.0
C      1  0.5647380000000  0.4538760000000  0.5121140000000 1.0
C      1  0.5145210000000  0.5814300000000  0.5223460000000 1.0
C      1  0.4291330000000  0.4708040000000  0.5134180000000 1.0
C      1  0.5619690000000  0.4478120000000  0.4803260000000 1.0
C      1  0.5093370000000  0.5786770000000  0.4905650000000 1.0
C      1  0.4218210000000  0.4712990000000  0.4815960000000 1.0
C      1  0.5629240000000  0.5552010000000  0.5215670000000 1.0
C      1  0.5169270000000  0.4201550000000  0.5215520000000 1.0
C      1  0.4276300000000  0.5287330000000  0.5133030000000 1.0
C      1  0.5626900000000  0.5497770000000  0.4894290000000 1.0
C      1  0.5117290000000  0.4247230000000  0.4896840000000 1.0
C      1  0.4221370000000  0.5269650000000  0.4811810000000 1.0
C      1  0.5550800000000  0.5159540000000  0.4523090000000 1.0
C      1  0.4640750000000  0.5395410000000  0.4560930000000 1.0
C      1  0.4872600000000  0.4367580000000  0.4514100000000 1.0
C      1  0.5550670000000  0.5118340000000  0.5466030000000 1.0
C      1  0.4527320000000  0.5421860000000  0.5525870000000 1.0
C      1  0.4842450000000  0.4489760000000  0.5482030000000 1.0
C      1  0.5540860000000  0.4842760000000  0.4470680000000 1.0
C      1  0.4619480000000  0.4560430000000  0.4537200000000 1.0
C      1  0.4913530000000  0.5551870000000  0.4547560000000 1.0
C      1  0.5588440000000  0.4803500000000  0.5459490000000 1.0
C      1  0.4553950000000  0.4620300000000  0.5504380000000 1.0
C      1  0.4822600000000  0.5542270000000  0.5504150000000 1.0
C      1  0.4159570000000  0.4993720000000  0.4999800000000 1.0
C      1  0.5410560000000  0.5730920000000  0.5026010000000 1.0
C      1  0.5433520000000  0.4290810000000  0.5018850000000 1.0
END
