TITL C-2782225-7408-581 -0.0016209498284101 125000 -285.784752202049 0 0 52 (D2) n - 1
REM
REM in /home/nfs/bkarasulu/CARBON/AIRSS/Generating-Clusters/REBO/Higher-Symm/SD-CG/HFTN-CG
REM
REM
REM
REM
REM
REM ./C.cell (12c818d87b63d06a65506943cc24bca4)
REM
REM compiler GCC version 9.2.1 20190827 (Red Hat 9.2.1-1)
REM options -cpp -mtune=generic -march=x86-64 -g -O0 -fpre-include=/usr/include/finclude/math-vector-fortran.h
REM seed -1486263331 -576319412 -875011083 -467842915 -1712526937 1169287051 1126324279 240294430 684258099 1083043013 -1642332071 -703887167 2026202848 -2075654207 1682021528 -1847237064 -1533986547 -976629728 -830662763 -760152725 -1023724896 -1131408943 -447000405 -1443787868 1425881568 2040850916 -1369142625 1958976010 -1722127626 -2042167113 1551344123 -798088831 -1218564728
REM
CELL 1.54180   50.00000   50.00000   50.00000   90.00000   90.00000   90.00000
LATT -1
SFAC C  
C      1  0.4969940000000  0.4678120000000  0.4802580000000 1.0
C      1  0.4736520000000  0.4668820000000  0.5030540000000 1.0
C      1  0.5029620000000  0.4678180000000  0.5197590000000 1.0
C      1  0.5263040000000  0.4668470000000  0.4969630000000 1.0
C      1  0.4970810000000  0.5361790000000  0.5197480000000 1.0
C      1  0.4736900000000  0.5371390000000  0.4970030000000 1.0
C      1  0.5029630000000  0.5361650000000  0.4802340000000 1.0
C      1  0.5263550000000  0.5371060000000  0.5029790000000 1.0
C      1  0.5065120000000  0.4110350000000  0.4294500000000 1.0
C      1  0.4224060000000  0.4118310000000  0.4901690000000 1.0
C      1  0.4933720000000  0.4110790000000  0.5705960000000 1.0
C      1  0.5774780000000  0.4117370000000  0.5098760000000 1.0
C      1  0.5067820000000  0.5929430000000  0.5705360000000 1.0
C      1  0.4225430000000  0.5922550000000  0.5100000000000 1.0
C      1  0.4933350000000  0.5929160000000  0.4294180000000 1.0
C      1  0.5775720000000  0.5921510000000  0.4899550000000 1.0
C      1  0.5466740000000  0.5127990000000  0.5122310000000 1.0
C      1  0.5125850000000  0.5123560000000  0.4584260000000 1.0
C      1  0.4533400000000  0.5128520000000  0.4877640000000 1.0
C      1  0.4874280000000  0.5123930000000  0.5415690000000 1.0
C      1  0.5466340000000  0.4911290000000  0.4876670000000 1.0
C      1  0.5126630000000  0.4916150000000  0.5415460000000 1.0
C      1  0.4533520000000  0.4911950000000  0.5123380000000 1.0
C      1  0.4873240000000  0.4916100000000  0.4584590000000 1.0
C      1  0.5542200000000  0.4601370000000  0.5114320000000 1.0
C      1  0.5103470000000  0.4600470000000  0.4511230000000 1.0
C      1  0.4457270000000  0.4602010000000  0.4885890000000 1.0
C      1  0.4895990000000  0.4600840000000  0.5488980000000 1.0
C      1  0.5542480000000  0.5437800000000  0.4884490000000 1.0
C      1  0.5105070000000  0.5439270000000  0.5488540000000 1.0
C      1  0.4458050000000  0.5438550000000  0.5115300000000 1.0
C      1  0.4895460000000  0.5439160000000  0.4511250000000 1.0
C      1  0.5632000000000  0.5193420000000  0.4765630000000 1.0
C      1  0.4776690000000  0.5199140000000  0.4409740000000 1.0
C      1  0.4368220000000  0.5194340000000  0.5234290000000 1.0
C      1  0.5223540000000  0.5199150000000  0.5590170000000 1.0
C      1  0.5632290000000  0.4845640000000  0.5233000000000 1.0
C      1  0.4777750000000  0.4841020000000  0.5590750000000 1.0
C      1  0.4367490000000  0.4846330000000  0.4767090000000 1.0
C      1  0.5222020000000  0.4840430000000  0.4409350000000 1.0
C      1  0.5661940000000  0.5685540000000  0.4892200000000 1.0
C      1  0.4914870000000  0.5690150000000  0.4400060000000 1.0
C      1  0.4338910000000  0.5686440000000  0.5107460000000 1.0
C      1  0.5085990000000  0.5690340000000  0.5599600000000 1.0
C      1  0.5661320000000  0.4353480000000  0.5106350000000 1.0
C      1  0.4915320000000  0.4349830000000  0.5600120000000 1.0
C      1  0.4337830000000  0.4354270000000  0.4893980000000 1.0
C      1  0.5083830000000  0.4349420000000  0.4400220000000 1.0
C      1  0.5435320000000  0.5021620000000  0.4572440000000 1.0
C      1  0.4564690000000  0.5022390000000  0.5427560000000 1.0
C      1  0.5436250000000  0.5017690000000  0.5426610000000 1.0
C      1  0.4563750000000  0.5018030000000  0.4573390000000 1.0
END
