TITL C-2782235-7892-1418 0.00747767846998722 125000 -995.998792933501 0 0 171 (C1) n - 1
REM
REM in /home/nfs/bkarasulu/CARBON/AIRSS/Generating-Clusters/REBO/Higher-Symm/SD-CG/HFTN-CG
REM
REM
REM
REM
REM
REM ./C.cell (12c818d87b63d06a65506943cc24bca4)
REM
REM compiler GCC version 9.2.1 20190827 (Red Hat 9.2.1-1)
REM options -cpp -mtune=generic -march=x86-64 -g -O0 -fpre-include=/usr/include/finclude/math-vector-fortran.h
REM seed 1556663123 1441226412 863196446 -1546198955 83106011 1095709463 -152744204 -1030766199 -57986253 -1399190247 1650781801 -562335671 868039017 1846132860 1736029035 -1211285420 1065377170 335895934 -1015060960 1694118516 1236125899 1402401322 823187573 210540224 98769178 1292973923 939254413 -1741914799 -1322116933 1656471577 1183973962 271995305 -2065070556
REM
CELL 1.54180   50.00000   50.00000   50.00000   90.00000   90.00000   90.00000
LATT -1
SFAC C  
C      1  0.5678810000000  0.4732600000000  0.5578110000000 1.0
C      1  0.4266850000000  0.5278610000000  0.5607830000000 1.0
C      1  0.5731500000000  0.5271750000000  0.5671870000000 1.0
C      1  0.4265750000000  0.4733230000000  0.5586660000000 1.0
C      1  0.4650350000000  0.5505570000000  0.4839470000000 1.0
C      1  0.5417620000000  0.4502790000000  0.4767290000000 1.0
C      1  0.4611390000000  0.4530460000000  0.4832480000000 1.0
C      1  0.5382010000000  0.5525650000000  0.4739000000000 1.0
C      1  0.4474680000000  0.4150320000000  0.5250120000000 1.0
C      1  0.5586200000000  0.5698100000000  0.5179920000000 1.0
C      1  0.4382960000000  0.5773240000000  0.5244160000000 1.0
C      1  0.5588780000000  0.4260950000000  0.5184580000000 1.0
C      1  0.4467240000000  0.5139120000000  0.5807440000000 1.0
C      1  0.5484100000000  0.4870640000000  0.5796830000000 1.0
C      1  0.4468780000000  0.4848360000000  0.5794680000000 1.0
C      1  0.5474530000000  0.5160720000000  0.5798070000000 1.0
C      1  0.5650410000000  0.5722810000000  0.5480720000000 1.0
C      1  0.4323280000000  0.4270070000000  0.5489750000000 1.0
C      1  0.5683140000000  0.4239760000000  0.5512550000000 1.0
C      1  0.4276580000000  0.5776450000000  0.5568930000000 1.0
C      1  0.4736130000000  0.5815350000000  0.5929050000000 1.0
C      1  0.5240970000000  0.4189140000000  0.5888330000000 1.0
C      1  0.4719580000000  0.4230130000000  0.5933140000000 1.0
C      1  0.5245930000000  0.5852590000000  0.5857810000000 1.0
C      1  0.5326370000000  0.4352230000000  0.5382350000000 1.0
C      1  0.4640340000000  0.5690140000000  0.5436470000000 1.0
C      1  0.5271090000000  0.5685130000000  0.5366640000000 1.0
C      1  0.4709160000000  0.4335990000000  0.5425720000000 1.0
C      1  0.4776300000000  0.4313270000000  0.4939730000000 1.0
C      1  0.5219310000000  0.5664820000000  0.4971630000000 1.0
C      1  0.4733910000000  0.5757540000000  0.5055470000000 1.0
C      1  0.5258720000000  0.4274800000000  0.4963090000000 1.0
C      1  0.5800710000000  0.5637850000000  0.4731160000000 1.0
C      1  0.4199190000000  0.4379040000000  0.4917230000000 1.0
C      1  0.5819530000000  0.4358920000000  0.4808830000000 1.0
C      1  0.4177830000000  0.5615320000000  0.4818350000000 1.0
C      1  0.4309140000000  0.5177480000000  0.5036370000000 1.0
C      1  0.5710020000000  0.4877960000000  0.5012280000000 1.0
C      1  0.4292600000000  0.4875110000000  0.5037120000000 1.0
C      1  0.5704790000000  0.5180740000000  0.4987240000000 1.0
C      1  0.4091480000000  0.5246480000000  0.4694000000000 1.0
C      1  0.5998850000000  0.4805760000000  0.4746490000000 1.0
C      1  0.4027480000000  0.4785170000000  0.4712320000000 1.0
C      1  0.5947500000000  0.5269730000000  0.4682020000000 1.0
C      1  0.4225960000000  0.5496050000000  0.5123340000000 1.0
C      1  0.5751870000000  0.4545720000000  0.5085540000000 1.0
C      1  0.4121160000000  0.4595460000000  0.5135150000000 1.0
C      1  0.5728000000000  0.5522010000000  0.4979020000000 1.0
C      1  0.4502670000000  0.5986520000000  0.5042480000000 1.0
C      1  0.5497450000000  0.4042000000000  0.4966540000000 1.0
C      1  0.4600820000000  0.4048860000000  0.5021170000000 1.0
C      1  0.5404960000000  0.5929240000000  0.5050410000000 1.0
C      1  0.5713640000000  0.4865930000000  0.4410980000000 1.0
C      1  0.4561490000000  0.5127520000000  0.4496710000000 1.0
C      1  0.5546060000000  0.5115050000000  0.4421100000000 1.0
C      1  0.4459900000000  0.4846260000000  0.4447520000000 1.0
C      1  0.5573520000000  0.5402910000000  0.4293960000000 1.0
C      1  0.4535710000000  0.4656280000000  0.4174050000000 1.0
C      1  0.5633290000000  0.4569410000000  0.4347340000000 1.0
C      1  0.4514880000000  0.5440580000000  0.4370510000000 1.0
C      1  0.5310420000000  0.3984330000000  0.4695740000000 1.0
C      1  0.4650650000000  0.6011040000000  0.4753610000000 1.0
C      1  0.5298030000000  0.5999410000000  0.4757090000000 1.0
C      1  0.4684290000000  0.3986820000000  0.4730010000000 1.0
C      1  0.4625130000000  0.5278800000000  0.5096450000000 1.0
C      1  0.5403130000000  0.4750760000000  0.5000520000000 1.0
C      1  0.4584530000000  0.4761030000000  0.5045700000000 1.0
C      1  0.5392370000000  0.5305920000000  0.5001320000000 1.0
C      1  0.4675980000000  0.4634670000000  0.4543890000000 1.0
C      1  0.5268220000000  0.5088600000000  0.4547670000000 1.0
C      1  0.4860260000000  0.5084460000000  0.4602840000000 1.0
C      1  0.5131850000000  0.4647360000000  0.4247830000000 1.0
C      1  0.5810960000000  0.5528150000000  0.5603940000000 1.0
C      1  0.4191760000000  0.4519180000000  0.5427830000000 1.0
C      1  0.5765130000000  0.4521900000000  0.5424860000000 1.0
C      1  0.4191750000000  0.5502120000000  0.5461780000000 1.0
C      1  0.5243750000000  0.5315470000000  0.5608590000000 1.0
C      1  0.4735980000000  0.4705180000000  0.5652480000000 1.0
C      1  0.5265300000000  0.4700080000000  0.5613010000000 1.0
C      1  0.4735000000000  0.5283130000000  0.5700690000000 1.0
C      1  0.4414760000000  0.5280540000000  0.4730030000000 1.0
C      1  0.5676920000000  0.4717450000000  0.4714580000000 1.0
C      1  0.4337700000000  0.4712340000000  0.4735260000000 1.0
C      1  0.5618080000000  0.5288650000000  0.4674660000000 1.0
C      1  0.4545110000000  0.4247060000000  0.5711020000000 1.0
C      1  0.5410850000000  0.5819870000000  0.5632690000000 1.0
C      1  0.4531500000000  0.5791690000000  0.5737930000000 1.0
C      1  0.5427840000000  0.4217960000000  0.5680640000000 1.0
C      1  0.4612290000000  0.4966690000000  0.4100960000000 1.0
C      1  0.5375720000000  0.5470450000000  0.4093450000000 1.0
C      1  0.4736880000000  0.5277800000000  0.4169930000000 1.0
C      1  0.5394480000000  0.4570130000000  0.4201240000000 1.0
C      1  0.4722510000000  0.4459800000000  0.3978560000000 1.0
C      1  0.5390570000000  0.5751800000000  0.4041650000000 1.0
C      1  0.4889390000000  0.5638600000000  0.4046820000000 1.0
C      1  0.5195380000000  0.4307550000000  0.3976430000000 1.0
C      1  0.5657230000000  0.5629090000000  0.4472120000000 1.0
C      1  0.4323580000000  0.4288100000000  0.4697050000000 1.0
C      1  0.5716190000000  0.4356270000000  0.4549130000000 1.0
C      1  0.4312180000000  0.5630080000000  0.4573920000000 1.0
C      1  0.4546780000000  0.4176170000000  0.4557070000000 1.0
C      1  0.5387420000000  0.5799720000000  0.4530710000000 1.0
C      1  0.4611110000000  0.5749060000000  0.4601890000000 1.0
C      1  0.5397450000000  0.4263490000000  0.4520570000000 1.0
C      1  0.4696630000000  0.5719820000000  0.4297510000000 1.0
C      1  0.5192970000000  0.4229860000000  0.4251890000000 1.0
C      1  0.4628850000000  0.4340990000000  0.4277460000000 1.0
C      1  0.5280860000000  0.5896860000000  0.4250430000000 1.0
C      1  0.6073210000000  0.5326510000000  0.4930740000000 1.0
C      1  0.3908120000000  0.4793110000000  0.4980800000000 1.0
C      1  0.6108840000000  0.4852380000000  0.5005740000000 1.0
C      1  0.3934160000000  0.5279670000000  0.4929180000000 1.0
C      1  0.5289150000000  0.5377680000000  0.5273780000000 1.0
C      1  0.4659890000000  0.4651210000000  0.5323210000000 1.0
C      1  0.5311590000000  0.4661690000000  0.5276070000000 1.0
C      1  0.4706150000000  0.5388470000000  0.5385390000000 1.0
C      1  0.5291300000000  0.5036100000000  0.4845690000000 1.0
C      1  0.4742680000000  0.5022860000000  0.4922230000000 1.0
C      1  0.4921880000000  0.4563350000000  0.4437110000000 1.0
C      1  0.5046020000000  0.5322930000000  0.4434780000000 1.0
C      1  0.4951220000000  0.3911220000000  0.5255390000000 1.0
C      1  0.5084530000000  0.6098240000000  0.5254180000000 1.0
C      1  0.5027140000000  0.4147640000000  0.4605180000000 1.0
C      1  0.4992780000000  0.5861890000000  0.4524560000000 1.0
C      1  0.4689020000000  0.5007430000000  0.5502410000000 1.0
C      1  0.5303980000000  0.5010630000000  0.5469980000000 1.0
C      1  0.5006330000000  0.5606220000000  0.4577880000000 1.0
C      1  0.5039700000000  0.4436280000000  0.4659140000000 1.0
C      1  0.4965070000000  0.5919480000000  0.4215560000000 1.0
C      1  0.4898730000000  0.4167560000000  0.4325950000000 1.0
C      1  0.4996550000000  0.3849380000000  0.4735160000000 1.0
C      1  0.4968850000000  0.6084190000000  0.4748170000000 1.0
C      1  0.4946120000000  0.4010490000000  0.5484630000000 1.0
C      1  0.5059840000000  0.6002330000000  0.5485890000000 1.0
C      1  0.5897440000000  0.5136390000000  0.5334880000000 1.0
C      1  0.4069360000000  0.5065470000000  0.5336010000000 1.0
C      1  0.5007610000000  0.5917030000000  0.5017910000000 1.0
C      1  0.4997970000000  0.4058350000000  0.4991700000000 1.0
C      1  0.4002520000000  0.5017960000000  0.4542490000000 1.0
C      1  0.6046980000000  0.5025250000000  0.4562760000000 1.0
C      1  0.5000090000000  0.5712300000000  0.5893300000000 1.0
C      1  0.4989880000000  0.4323880000000  0.5914210000000 1.0
C      1  0.4376190000000  0.5009430000000  0.5441840000000 1.0
C      1  0.5630250000000  0.5024740000000  0.5458380000000 1.0
C      1  0.5046800000000  0.4601140000000  0.4879560000000 1.0
C      1  0.4969160000000  0.5387990000000  0.4801980000000 1.0
C      1  0.3909740000000  0.5054890000000  0.5105130000000 1.0
C      1  0.6075380000000  0.5113850000000  0.5122050000000 1.0
C      1  0.6002380000000  0.4946750000000  0.4275710000000 1.0
C      1  0.3930480000000  0.5017410000000  0.4281810000000 1.0
C      1  0.4979610000000  0.4676370000000  0.5336980000000 1.0
C      1  0.4990220000000  0.5257400000000  0.5300850000000 1.0
C      1  0.5036070000000  0.4310430000000  0.5518410000000 1.0
C      1  0.4956430000000  0.5701750000000  0.5496860000000 1.0
C      1  0.4996920000000  0.5453290000000  0.5706820000000 1.0
C      1  0.4996420000000  0.4573540000000  0.5721090000000 1.0
C      1  0.5065640000000  0.5388870000000  0.4127710000000 1.0
C      1  0.4960270000000  0.4405780000000  0.3867070000000 1.0
C      1  0.4955810000000  0.5509860000000  0.5097550000000 1.0
C      1  0.5018930000000  0.4427540000000  0.5139520000000 1.0
C      1  0.5004030000000  0.4998990000000  0.5631050000000 1.0
C      1  0.5054190000000  0.4931730000000  0.4362970000000 1.0
C      1  0.5037170000000  0.4894760000000  0.4933820000000 1.0
C      1  0.4984260000000  0.4972640000000  0.5234790000000 1.0
C      1  0.5032260000000  0.4960440000000  0.6165950000000 1.0
C      1  0.5018260000000  0.4979560000000  0.5900700000000 1.0
C      1  0.5096810000000  0.4986700000000  0.3846370000000 1.0
C      1  0.5046260000000  0.4941310000000  0.6431200000000 1.0
C      1  0.5236210000000  0.4962320000000  0.3634010000000 1.0
C      1  0.4933200000000  0.5015320000000  0.4095610000000 1.0
C      1  0.5060030000000  0.4922500000000  0.6692230000000 1.0
END
