TITL C-2782232-2968-156 -0.00168450445390747 125000 -687.434095456303 0 0 123 (C1) n - 1
REM
REM in /home/nfs/bkarasulu/CARBON/AIRSS/Generating-Clusters/REBO/Higher-Symm/SD-CG/HFTN-CG
REM
REM
REM
REM
REM
REM ./C.cell (12c818d87b63d06a65506943cc24bca4)
REM
REM compiler GCC version 9.2.1 20190827 (Red Hat 9.2.1-1)
REM options -cpp -mtune=generic -march=x86-64 -g -O0 -fpre-include=/usr/include/finclude/math-vector-fortran.h
REM seed 1306340449 371033909 782423685 1427014461 1813199468 1360981731 1054848957 142474282 -1490215979 2003835824 1915360878 888398256 1137134513 1939412642 1236816500 84216286 -479137069 52239344 1645436974 -88795351 -2118789142 -1861883872 1729438262 1200961952 -218600108 347345770 -1102630842 691622549 1948787694 626480465 -1694877864 1430572533 1882721190
REM
CELL 1.54180   50.00000   50.00000   50.00000   90.00000   90.00000   90.00000
LATT -1
SFAC C  
C      1  0.5315020000000  0.5531960000000  0.5301970000000 1.0
C      1  0.4566550000000  0.5501680000000  0.5267390000000 1.0
C      1  0.4474560000000  0.4708480000000  0.5322190000000 1.0
C      1  0.5075990000000  0.4381200000000  0.5329190000000 1.0
C      1  0.5535670000000  0.4864700000000  0.5305660000000 1.0
C      1  0.4936640000000  0.5097080000000  0.5507250000000 1.0
C      1  0.4683150000000  0.4891430000000  0.5523180000000 1.0
C      1  0.5057860000000  0.4641850000000  0.5549560000000 1.0
C      1  0.5284470000000  0.4889360000000  0.5534800000000 1.0
C      1  0.5181050000000  0.5298380000000  0.5518050000000 1.0
C      1  0.5246120000000  0.5594420000000  0.4553370000000 1.0
C      1  0.4514190000000  0.5438280000000  0.4538340000000 1.0
C      1  0.4434160000000  0.4672230000000  0.4560800000000 1.0
C      1  0.5135560000000  0.4364890000000  0.4544800000000 1.0
C      1  0.5634610000000  0.4940640000000  0.4555690000000 1.0
C      1  0.5855810000000  0.4939930000000  0.4783560000000 1.0
C      1  0.5315330000000  0.5820160000000  0.4767880000000 1.0
C      1  0.4317640000000  0.5589190000000  0.4729680000000 1.0
C      1  0.4280910000000  0.4514160000000  0.4799940000000 1.0
C      1  0.5218910000000  0.4168490000000  0.4783780000000 1.0
C      1  0.5639340000000  0.4775100000000  0.5792820000000 1.0
C      1  0.5374870000000  0.5627140000000  0.5803150000000 1.0
C      1  0.4579170000000  0.5546010000000  0.5764240000000 1.0
C      1  0.4395730000000  0.4734550000000  0.5847400000000 1.0
C      1  0.5029910000000  0.4225260000000  0.5832110000000 1.0
C      1  0.5034910000000  0.3972070000000  0.4977830000000 1.0
C      1  0.5946610000000  0.4756300000000  0.5039960000000 1.0
C      1  0.5581280000000  0.5889580000000  0.4957620000000 1.0
C      1  0.4379130000000  0.5815730000000  0.4956560000000 1.0
C      1  0.4045820000000  0.4626490000000  0.5001300000000 1.0
C      1  0.4036890000000  0.4931780000000  0.5031430000000 1.0
C      1  0.4740490000000  0.4050560000000  0.5024350000000 1.0
C      1  0.5774370000000  0.4503800000000  0.5062480000000 1.0
C      1  0.5803460000000  0.5677520000000  0.4992140000000 1.0
C      1  0.4673370000000  0.5894440000000  0.4994880000000 1.0
C      1  0.4922990000000  0.5279520000000  0.4086320000000 1.0
C      1  0.4720840000000  0.5019510000000  0.4084720000000 1.0
C      1  0.4902400000000  0.4747150000000  0.4102540000000 1.0
C      1  0.5221410000000  0.4836400000000  0.4100220000000 1.0
C      1  0.5233560000000  0.5164630000000  0.4088450000000 1.0
C      1  0.4444900000000  0.4570600000000  0.5633660000000 1.0
C      1  0.5192220000000  0.4205710000000  0.5599670000000 1.0
C      1  0.5673430000000  0.4953450000000  0.5590360000000 1.0
C      1  0.5252520000000  0.5725220000000  0.5562960000000 1.0
C      1  0.4470900000000  0.5422630000000  0.5547510000000 1.0
C      1  0.5130030000000  0.4750860000000  0.5866630000000 1.0
C      1  0.5258480000000  0.5063310000000  0.5827290000000 1.0
C      1  0.5028700000000  0.5318820000000  0.5823760000000 1.0
C      1  0.4790680000000  0.5099860000000  0.5838960000000 1.0
C      1  0.4793470000000  0.4764150000000  0.5819760000000 1.0
C      1  0.4750500000000  0.4394580000000  0.5226290000000 1.0
C      1  0.5450080000000  0.4536800000000  0.5291060000000 1.0
C      1  0.5561030000000  0.5322310000000  0.5232150000000 1.0
C      1  0.4839740000000  0.5653540000000  0.5265620000000 1.0
C      1  0.4350730000000  0.5019630000000  0.5261190000000 1.0
C      1  0.4739300000000  0.5569440000000  0.4347640000000 1.0
C      1  0.4362150000000  0.4926570000000  0.4368960000000 1.0
C      1  0.4873840000000  0.4399430000000  0.4344480000000 1.0
C      1  0.5535270000000  0.4702580000000  0.4348360000000 1.0
C      1  0.5451490000000  0.5427290000000  0.4365070000000 1.0
C      1  0.4488790000000  0.4293330000000  0.4659470000000 1.0
C      1  0.5505700000000  0.4306580000000  0.4669350000000 1.0
C      1  0.5807160000000  0.5265600000000  0.4698360000000 1.0
C      1  0.4996860000000  0.5880000000000  0.4664620000000 1.0
C      1  0.4179750000000  0.5281270000000  0.4677500000000 1.0
C      1  0.4937930000000  0.4571870000000  0.4921380000000 1.0
C      1  0.5369190000000  0.4789280000000  0.4931160000000 1.0
C      1  0.5283840000000  0.5309930000000  0.4945250000000 1.0
C      1  0.4786580000000  0.5407670000000  0.4943960000000 1.0
C      1  0.4570480000000  0.4938470000000  0.4938420000000 1.0
C      1  0.4413070000000  0.5052710000000  0.4678010000000 1.0
C      1  0.4769200000000  0.4464140000000  0.4661630000000 1.0
C      1  0.5424140000000  0.4623000000000  0.4660110000000 1.0
C      1  0.5483050000000  0.5302550000000  0.4680960000000 1.0
C      1  0.4860160000000  0.5580380000000  0.4667910000000 1.0
C      1  0.4313130000000  0.5495390000000  0.5049840000000 1.0
C      1  0.4316350000000  0.4489410000000  0.5137530000000 1.0
C      1  0.5243840000000  0.4186590000000  0.5119050000000 1.0
C      1  0.5798670000000  0.5055210000000  0.5099230000000 1.0
C      1  0.5297320000000  0.5793160000000  0.5098280000000 1.0
C      1  0.4856620000000  0.4433660000000  0.5830040000000 1.0
C      1  0.5411610000000  0.4604930000000  0.5785580000000 1.0
C      1  0.5426270000000  0.5359860000000  0.5825560000000 1.0
C      1  0.4858470000000  0.5579650000000  0.5770710000000 1.0
C      1  0.4471340000000  0.5000210000000  0.5840350000000 1.0
C      1  0.4583450000000  0.5207970000000  0.5099440000000 1.0
C      1  0.4701290000000  0.4693110000000  0.5078760000000 1.0
C      1  0.5193990000000  0.4601800000000  0.5091660000000 1.0
C      1  0.5417180000000  0.5062690000000  0.5082730000000 1.0
C      1  0.5047540000000  0.5448380000000  0.5106870000000 1.0
C      1  0.5707380000000  0.5207710000000  0.4370100000000 1.0
C      1  0.5025770000000  0.5743380000000  0.4347940000000 1.0
C      1  0.4311260000000  0.5255630000000  0.4354280000000 1.0
C      1  0.4534940000000  0.4428400000000  0.4345370000000 1.0
C      1  0.5410920000000  0.4385360000000  0.4345550000000 1.0
C      1  0.5669750000000  0.6177810000000  0.4970220000000 1.0
C      1  0.4173410000000  0.6030550000000  0.5005810000000 1.0
C      1  0.3782580000000  0.4480230000000  0.5014100000000 1.0
C      1  0.5096680000000  0.3676840000000  0.4977380000000 1.0
C      1  0.6214550000000  0.4728400000000  0.5109550000000 1.0
C      1  0.5512780000000  0.5217690000000  0.5539780000000 1.0
C      1  0.4964210000000  0.5724520000000  0.5551060000000 1.0
C      1  0.4414400000000  0.5133860000000  0.5558180000000 1.0
C      1  0.4748050000000  0.4498850000000  0.5525220000000 1.0
C      1  0.5394600000000  0.4422720000000  0.5567120000000 1.0
C      1  0.4195230000000  0.5187260000000  0.5006450000000 1.0
C      1  0.4534470000000  0.4271210000000  0.4993100000000 1.0
C      1  0.5518230000000  0.4353040000000  0.5006550000000 1.0
C      1  0.5787870000000  0.5391750000000  0.5012200000000 1.0
C      1  0.4975510000000  0.5827650000000  0.5002250000000 1.0
C      1  0.4717100000000  0.4796060000000  0.4676500000000 1.0
C      1  0.5100010000000  0.4684270000000  0.4655540000000 1.0
C      1  0.5330410000000  0.5009460000000  0.4686400000000 1.0
C      1  0.5086500000000  0.5339530000000  0.4688710000000 1.0
C      1  0.4707750000000  0.5212710000000  0.4684270000000 1.0
C      1  0.5507540000000  0.5001140000000  0.4185730000000 1.0
C      1  0.5170890000000  0.5485140000000  0.4179960000000 1.0
C      1  0.4594340000000  0.5314860000000  0.4171650000000 1.0
C      1  0.4579530000000  0.4730670000000  0.4195560000000 1.0
C      1  0.5146170000000  0.4522980000000  0.4181450000000 1.0
C      1  0.4986930000000  0.5011430000000  0.4646810000000 1.0
C      1  0.4965620000000  0.4978430000000  0.4985790000000 1.0
C      1  0.4927880000000  0.4989490000000  0.5222490000000 1.0
END
