TITL C-2782237-5345-1129 -0.000375079299958951 125000 -656.523104652308 0 0 113 (C1) n - 1
REM
REM in /home/nfs/bkarasulu/CARBON/AIRSS/Generating-Clusters/REBO/Higher-Symm/SD-CG/HFTN-CG
REM
REM
REM
REM
REM
REM ./C.cell (12c818d87b63d06a65506943cc24bca4)
REM
REM compiler GCC version 9.2.1 20190827 (Red Hat 9.2.1-1)
REM options -cpp -mtune=generic -march=x86-64 -g -O0 -fpre-include=/usr/include/finclude/math-vector-fortran.h
REM seed -471645758 125094620 2017644102 927431870 -771183773 -1820068433 -2080913735 1465000034 945963491 -237475787 -171759689 -2138517379 1396032780 808670073 524235170 -119191056 1807411651 -1206579335 923325602 1558033423 -2124536178 898941349 -2143000503 1985921977 1240408486 -1755772106 2108802244 1548014334 -1647382294 -2006705241 -22566261 70404751 1140724201
REM
CELL 1.54180   50.00000   50.00000   50.00000   90.00000   90.00000   90.00000
LATT -1
SFAC C  
C      1  0.4664480000000  0.5396600000000  0.4208320000000 1.0
C      1  0.5363070000000  0.4744320000000  0.5747510000000 1.0
C      1  0.4279630000000  0.4768410000000  0.4448900000000 1.0
C      1  0.5266500000000  0.4433270000000  0.5347590000000 1.0
C      1  0.5099640000000  0.5606740000000  0.5824150000000 1.0
C      1  0.5425920000000  0.5193010000000  0.4450000000000 1.0
C      1  0.5044790000000  0.4257790000000  0.5288760000000 1.0
C      1  0.5583190000000  0.5527260000000  0.5779200000000 1.0
C      1  0.4604670000000  0.5140390000000  0.4678970000000 1.0
C      1  0.5034330000000  0.4649150000000  0.4994500000000 1.0
C      1  0.4457540000000  0.5236240000000  0.4395790000000 1.0
C      1  0.4837490000000  0.4528930000000  0.5708240000000 1.0
C      1  0.4995940000000  0.5499390000000  0.4993160000000 1.0
C      1  0.4618700000000  0.5555760000000  0.5552880000000 1.0
C      1  0.4681650000000  0.3952370000000  0.4921480000000 1.0
C      1  0.5535830000000  0.5407250000000  0.5475880000000 1.0
C      1  0.5608540000000  0.4912080000000  0.5663260000000 1.0
C      1  0.4406980000000  0.4540120000000  0.4568920000000 1.0
C      1  0.4256820000000  0.5401440000000  0.5829050000000 1.0
C      1  0.5164710000000  0.4704410000000  0.4388670000000 1.0
C      1  0.4088060000000  0.5332190000000  0.5404940000000 1.0
C      1  0.5541180000000  0.4463240000000  0.5198120000000 1.0
C      1  0.4433840000000  0.5699510000000  0.5124390000000 1.0
C      1  0.5096270000000  0.6062410000000  0.4331580000000 1.0
C      1  0.4180180000000  0.5525050000000  0.5175850000000 1.0
C      1  0.5188540000000  0.5322080000000  0.4310780000000 1.0
C      1  0.4929510000000  0.5690760000000  0.5199280000000 1.0
C      1  0.5213900000000  0.5172990000000  0.5972630000000 1.0
C      1  0.5017430000000  0.5023160000000  0.4857390000000 1.0
C      1  0.4227560000000  0.4957460000000  0.4910080000000 1.0
C      1  0.5095080000000  0.5017580000000  0.4311740000000 1.0
C      1  0.4507370000000  0.4793040000000  0.4929410000000 1.0
C      1  0.5520720000000  0.4969620000000  0.4284830000000 1.0
C      1  0.5270750000000  0.4560760000000  0.4617500000000 1.0
C      1  0.5197390000000  0.4895790000000  0.5984120000000 1.0
C      1  0.5283400000000  0.4676370000000  0.4870860000000 1.0
C      1  0.5104460000000  0.5830630000000  0.5655350000000 1.0
C      1  0.4830260000000  0.4320530000000  0.5467630000000 1.0
C      1  0.4935310000000  0.4593300000000  0.4178490000000 1.0
C      1  0.5399160000000  0.4458160000000  0.4253570000000 1.0
C      1  0.5720440000000  0.5673020000000  0.5515770000000 1.0
C      1  0.4548670000000  0.5380780000000  0.5159250000000 1.0
C      1  0.5088630000000  0.5311300000000  0.5721220000000 1.0
C      1  0.4675730000000  0.5719240000000  0.5324970000000 1.0
C      1  0.4537480000000  0.4478090000000  0.5450500000000 1.0
C      1  0.5050710000000  0.4633390000000  0.5860920000000 1.0
C      1  0.4649110000000  0.5079860000000  0.4087550000000 1.0
C      1  0.4244100000000  0.5149630000000  0.5724690000000 1.0
C      1  0.4797890000000  0.4652940000000  0.4812910000000 1.0
C      1  0.5594800000000  0.4770770000000  0.5257450000000 1.0
C      1  0.4160480000000  0.5254440000000  0.5023860000000 1.0
C      1  0.6097030000000  0.5223890000000  0.5069610000000 1.0
C      1  0.5796700000000  0.4822460000000  0.4814240000000 1.0
C      1  0.5148920000000  0.4123250000000  0.5032960000000 1.0
C      1  0.4455800000000  0.4583130000000  0.4141620000000 1.0
C      1  0.4100920000000  0.5046080000000  0.5277580000000 1.0
C      1  0.4765130000000  0.4994090000000  0.5594420000000 1.0
C      1  0.5884860000000  0.4845060000000  0.5293370000000 1.0
C      1  0.5536740000000  0.4771270000000  0.4942940000000 1.0
C      1  0.4390120000000  0.4959680000000  0.4258330000000 1.0
C      1  0.5525510000000  0.5717760000000  0.5014420000000 1.0
C      1  0.4957680000000  0.4978060000000  0.4588900000000 1.0
C      1  0.4441920000000  0.4458200000000  0.4900900000000 1.0
C      1  0.5397210000000  0.5931750000000  0.5212980000000 1.0
C      1  0.4967290000000  0.5840690000000  0.4329310000000 1.0
C      1  0.5087970000000  0.4328940000000  0.4278760000000 1.0
C      1  0.4748680000000  0.4999020000000  0.5023730000000 1.0
C      1  0.5590650000000  0.4281570000000  0.4456970000000 1.0
C      1  0.4692250000000  0.4436550000000  0.4592340000000 1.0
C      1  0.5278820000000  0.5076610000000  0.4935140000000 1.0
C      1  0.5436640000000  0.4167740000000  0.5068150000000 1.0
C      1  0.5988760000000  0.4931940000000  0.5006750000000 1.0
C      1  0.4677470000000  0.4833780000000  0.4548760000000 1.0
C      1  0.4974830000000  0.5513840000000  0.4270080000000 1.0
C      1  0.5429120000000  0.5245420000000  0.4734330000000 1.0
C      1  0.4471030000000  0.5833360000000  0.4850460000000 1.0
C      1  0.5327610000000  0.5472790000000  0.4945480000000 1.0
C      1  0.4573710000000  0.4730400000000  0.5677360000000 1.0
C      1  0.4526630000000  0.4989850000000  0.5276100000000 1.0
C      1  0.4973440000000  0.4149050000000  0.4457960000000 1.0
C      1  0.5887100000000  0.4624690000000  0.4631330000000 1.0
C      1  0.5776280000000  0.4364370000000  0.4662880000000 1.0
C      1  0.5695150000000  0.5831750000000  0.5281690000000 1.0
C      1  0.4665830000000  0.4673170000000  0.4274890000000 1.0
C      1  0.4348560000000  0.4541780000000  0.5196540000000 1.0
C      1  0.4436870000000  0.5600820000000  0.5765380000000 1.0
C      1  0.5434560000000  0.4754970000000  0.4104010000000 1.0
C      1  0.5391100000000  0.5040860000000  0.5215960000000 1.0
C      1  0.5363120000000  0.5475810000000  0.5954940000000 1.0
C      1  0.5639140000000  0.5127700000000  0.5431720000000 1.0
C      1  0.5023720000000  0.4968710000000  0.5525820000000 1.0
C      1  0.4402200000000  0.5413980000000  0.4657820000000 1.0
C      1  0.4199230000000  0.4775880000000  0.5193390000000 1.0
C      1  0.4903670000000  0.4971220000000  0.4053240000000 1.0
C      1  0.4755260000000  0.5314480000000  0.4929750000000 1.0
C      1  0.4505410000000  0.5677500000000  0.4629150000000 1.0
C      1  0.5945390000000  0.5152770000000  0.5332680000000 1.0
C      1  0.5096730000000  0.4117020000000  0.4744530000000 1.0
C      1  0.5322220000000  0.4277460000000  0.4600150000000 1.0
C      1  0.4101920000000  0.4893510000000  0.4637170000000 1.0
C      1  0.5169980000000  0.5788710000000  0.5361660000000 1.0
C      1  0.4572440000000  0.4182820000000  0.4912100000000 1.0
C      1  0.4683180000000  0.5683770000000  0.4390330000000 1.0
C      1  0.4618640000000  0.5256450000000  0.5468090000000 1.0
C      1  0.4692590000000  0.4717320000000  0.5299130000000 1.0
C      1  0.5154750000000  0.4779610000000  0.3997100000000 1.0
C      1  0.5289560000000  0.5490650000000  0.5281760000000 1.0
C      1  0.6229940000000  0.5423430000000  0.4954500000000 1.0
C      1  0.5189240000000  0.5215770000000  0.5426430000000 1.0
C      1  0.5186170000000  0.4695500000000  0.5492620000000 1.0
C      1  0.4967840000000  0.4681490000000  0.5254210000000 1.0
C      1  0.4367490000000  0.4965600000000  0.5575700000000 1.0
C      1  0.5682470000000  0.4311210000000  0.4926490000000 1.0
END
