TITL C-2782239-8622-780 -0.00134348256517055 125000 -1120.33412794428 0 0 187 (C1) n - 1
REM
REM in /home/nfs/bkarasulu/CARBON/AIRSS/Generating-Clusters/REBO/Higher-Symm/SD-CG/HFTN-CG
REM
REM
REM
REM
REM
REM ./C.cell (12c818d87b63d06a65506943cc24bca4)
REM
REM compiler GCC version 9.2.1 20190827 (Red Hat 9.2.1-1)
REM options -cpp -mtune=generic -march=x86-64 -g -O0 -fpre-include=/usr/include/finclude/math-vector-fortran.h
REM seed 1680542024 1082920526 1709472777 -374821381 -696823845 -1538551606 -2019805970 850611281 -822482784 -1541039881 -1825207793 -773962085 1523852951 1097362471 -2087901486 -638086595 -2028632634 -294646175 199808062 1586219455 465566094 2017635485 -1572137586 126705984 1905778899 376305150 820029410 -2115260662 -686470228 1451789514 -1997674397 -969026686 -6625701
REM
CELL 1.54180   50.00000   50.00000   50.00000   90.00000   90.00000   90.00000
LATT -1
SFAC C  
C      1  0.4507670000000  0.4742990000000  0.4436570000000 1.0
C      1  0.5532340000000  0.5204430000000  0.4450280000000 1.0
C      1  0.4501990000000  0.5573360000000  0.4811570000000 1.0
C      1  0.5481730000000  0.5495250000000  0.5232840000000 1.0
C      1  0.4502580000000  0.5237190000000  0.5514230000000 1.0
C      1  0.5476780000000  0.4809250000000  0.5576750000000 1.0
C      1  0.4549500000000  0.4451510000000  0.5207080000000 1.0
C      1  0.5475800000000  0.4381360000000  0.4752300000000 1.0
C      1  0.4667850000000  0.4903760000000  0.5177160000000 1.0
C      1  0.5347580000000  0.4824710000000  0.5060400000000 1.0
C      1  0.4648120000000  0.4797790000000  0.4854130000000 1.0
C      1  0.5326350000000  0.4967940000000  0.4748910000000 1.0
C      1  0.4657250000000  0.5137100000000  0.4822570000000 1.0
C      1  0.5358680000000  0.5208740000000  0.4953550000000 1.0
C      1  0.4676740000000  0.5225120000000  0.5140360000000 1.0
C      1  0.5367120000000  0.5079520000000  0.5264210000000 1.0
C      1  0.5167720000000  0.5610930000000  0.5165090000000 1.0
C      1  0.4783370000000  0.5242040000000  0.5523460000000 1.0
C      1  0.5165210000000  0.4673170000000  0.5609730000000 1.0
C      1  0.4863560000000  0.4471930000000  0.5181390000000 1.0
C      1  0.5145680000000  0.4421810000000  0.4679450000000 1.0
C      1  0.4824880000000  0.4836990000000  0.4353650000000 1.0
C      1  0.5265860000000  0.5226980000000  0.4451890000000 1.0
C      1  0.4790590000000  0.5620450000000  0.4890950000000 1.0
C      1  0.5476230000000  0.4811590000000  0.4499900000000 1.0
C      1  0.4536700000000  0.5212460000000  0.4523450000000 1.0
C      1  0.5524780000000  0.5458020000000  0.4820550000000 1.0
C      1  0.4514300000000  0.5489830000000  0.5205930000000 1.0
C      1  0.5595570000000  0.5187480000000  0.5459040000000 1.0
C      1  0.4510010000000  0.4804150000000  0.5461360000000 1.0
C      1  0.5473260000000  0.4550640000000  0.5210740000000 1.0
C      1  0.4494810000000  0.4528420000000  0.4822290000000 1.0
C      1  0.5505470000000  0.5971450000000  0.5063010000000 1.0
C      1  0.4430730000000  0.5785990000000  0.5638620000000 1.0
C      1  0.5498870000000  0.5100790000000  0.6038130000000 1.0
C      1  0.4500010000000  0.4269660000000  0.5700160000000 1.0
C      1  0.5491920000000  0.4102040000000  0.4949690000000 1.0
C      1  0.4476130000000  0.4404030000000  0.4444250000000 1.0
C      1  0.5507380000000  0.4941410000000  0.3940430000000 1.0
C      1  0.4532960000000  0.5717660000000  0.4336230000000 1.0
C      1  0.5667800000000  0.4819780000000  0.5292520000000 1.0
C      1  0.4343080000000  0.4692690000000  0.5084180000000 1.0
C      1  0.5610670000000  0.4694170000000  0.4793270000000 1.0
C      1  0.4347690000000  0.4956520000000  0.4650650000000 1.0
C      1  0.5697430000000  0.5172730000000  0.4746770000000 1.0
C      1  0.4332530000000  0.5321910000000  0.4966860000000 1.0
C      1  0.5704890000000  0.5253840000000  0.5143350000000 1.0
C      1  0.4319820000000  0.5043320000000  0.5302330000000 1.0
C      1  0.4852650000000  0.5930240000000  0.4444310000000 1.0
C      1  0.5074200000000  0.5989750000000  0.5288140000000 1.0
C      1  0.4827420000000  0.5681800000000  0.5930470000000 1.0
C      1  0.5258470000000  0.4701920000000  0.6140670000000 1.0
C      1  0.4850740000000  0.4107950000000  0.5598630000000 1.0
C      1  0.5249170000000  0.3776310000000  0.4687640000000 1.0
C      1  0.4660760000000  0.4348450000000  0.3986130000000 1.0
C      1  0.5219910000000  0.5212970000000  0.3978060000000 1.0
C      1  0.5197820000000  0.4628110000000  0.4892240000000 1.0
C      1  0.4908270000000  0.4879700000000  0.4653160000000 1.0
C      1  0.5045280000000  0.5171360000000  0.4622730000000 1.0
C      1  0.4919820000000  0.5340280000000  0.4846380000000 1.0
C      1  0.5099000000000  0.5319180000000  0.5090640000000 1.0
C      1  0.4966620000000  0.5143710000000  0.5305670000000 1.0
C      1  0.5132220000000  0.4884930000000  0.5390390000000 1.0
C      1  0.4949300000000  0.4767750000000  0.5172050000000 1.0
C      1  0.5211890000000  0.6109530000000  0.5074700000000 1.0
C      1  0.4565010000000  0.5889520000000  0.5884220000000 1.0
C      1  0.5263660000000  0.5001230000000  0.6157960000000 1.0
C      1  0.4740440000000  0.4110830000000  0.5879990000000 1.0
C      1  0.5252690000000  0.3892930000000  0.4946170000000 1.0
C      1  0.4700880000000  0.4268010000000  0.4253710000000 1.0
C      1  0.5218620000000  0.4958930000000  0.3806670000000 1.0
C      1  0.4809230000000  0.5827320000000  0.4169940000000 1.0
C      1  0.5676460000000  0.5313780000000  0.5925140000000 1.0
C      1  0.4361760000000  0.4505210000000  0.5845440000000 1.0
C      1  0.5643780000000  0.4120760000000  0.5221910000000 1.0
C      1  0.4361080000000  0.4185990000000  0.4666030000000 1.0
C      1  0.5632660000000  0.4704550000000  0.4066900000000 1.0
C      1  0.4395260000000  0.5482400000000  0.4188770000000 1.0
C      1  0.5655950000000  0.5926850000000  0.4781380000000 1.0
C      1  0.4244930000000  0.5891770000000  0.5442960000000 1.0
C      1  0.4174110000000  0.4648660000000  0.5687350000000 1.0
C      1  0.5876550000000  0.4299860000000  0.5204640000000 1.0
C      1  0.4099220000000  0.4392300000000  0.4592160000000 1.0
C      1  0.5851070000000  0.4775490000000  0.4261260000000 1.0
C      1  0.4157200000000  0.5383730000000  0.4330970000000 1.0
C      1  0.5862600000000  0.5730340000000  0.4776050000000 1.0
C      1  0.4064180000000  0.5677600000000  0.5340210000000 1.0
C      1  0.5884730000000  0.5218980000000  0.5742500000000 1.0
C      1  0.4615470000000  0.3820040000000  0.4958760000000 1.0
C      1  0.5477820000000  0.4294940000000  0.4335830000000 1.0
C      1  0.4494980000000  0.5012010000000  0.4004030000000 1.0
C      1  0.5543850000000  0.5669870000000  0.4333460000000 1.0
C      1  0.4446280000000  0.5947410000000  0.4936270000000 1.0
C      1  0.5605960000000  0.5579980000000  0.5532590000000 1.0
C      1  0.4522790000000  0.4952330000000  0.5918510000000 1.0
C      1  0.5525480000000  0.4298070000000  0.5694990000000 1.0
C      1  0.4554710000000  0.4608180000000  0.3936820000000 1.0
C      1  0.5412530000000  0.5411110000000  0.4036430000000 1.0
C      1  0.4639680000000  0.6037460000000  0.4598810000000 1.0
C      1  0.5219630000000  0.5901830000000  0.5520100000000 1.0
C      1  0.4618280000000  0.5419580000000  0.5934300000000 1.0
C      1  0.5424410000000  0.4503190000000  0.6022000000000 1.0
C      1  0.4668890000000  0.4010440000000  0.5398790000000 1.0
C      1  0.5371250000000  0.3939710000000  0.4485380000000 1.0
C      1  0.5964150000000  0.5021330000000  0.4343080000000 1.0
C      1  0.4051810000000  0.5487650000000  0.4569360000000 1.0
C      1  0.6018160000000  0.5624930000000  0.4984430000000 1.0
C      1  0.4014640000000  0.5428780000000  0.5465210000000 1.0
C      1  0.5945470000000  0.4943650000000  0.5700370000000 1.0
C      1  0.4053510000000  0.4532180000000  0.5459620000000 1.0
C      1  0.5966240000000  0.4368320000000  0.4944760000000 1.0
C      1  0.4034410000000  0.4608390000000  0.4450690000000 1.0
C      1  0.5046390000000  0.5862290000000  0.5735030000000 1.0
C      1  0.4709580000000  0.5157410000000  0.5983890000000 1.0
C      1  0.5264290000000  0.4267960000000  0.5914790000000 1.0
C      1  0.4787890000000  0.3875470000000  0.5177840000000 1.0
C      1  0.5187450000000  0.4117300000000  0.4326360000000 1.0
C      1  0.4743170000000  0.4826430000000  0.3861140000000 1.0
C      1  0.5279840000000  0.5661040000000  0.4117260000000 1.0
C      1  0.4750750000000  0.6093520000000  0.4865920000000 1.0
C      1  0.5008080000000  0.5102310000000  0.5964450000000 1.0
C      1  0.4979820000000  0.4288330000000  0.5939370000000 1.0
C      1  0.5064990000000  0.3935980000000  0.5151700000000 1.0
C      1  0.4920130000000  0.4159720000000  0.4394020000000 1.0
C      1  0.5015670000000  0.4777860000000  0.3899030000000 1.0
C      1  0.4999470000000  0.5631250000000  0.4097290000000 1.0
C      1  0.5043120000000  0.6079470000000  0.4847750000000 1.0
C      1  0.4776720000000  0.5982110000000  0.5674660000000 1.0
C      1  0.4587620000000  0.4007680000000  0.4764690000000 1.0
C      1  0.5424230000000  0.4523970000000  0.4137020000000 1.0
C      1  0.4579660000000  0.5307010000000  0.4063000000000 1.0
C      1  0.5462200000000  0.5872570000000  0.4569790000000 1.0
C      1  0.4421160000000  0.6024500000000  0.5246500000000 1.0
C      1  0.5476360000000  0.5484220000000  0.5786320000000 1.0
C      1  0.4563430000000  0.4670740000000  0.5960500000000 1.0
C      1  0.5462280000000  0.4137690000000  0.5438790000000 1.0
C      1  0.4410780000000  0.5400330000000  0.5732140000000 1.0
C      1  0.5593190000000  0.4609370000000  0.5794400000000 1.0
C      1  0.4465520000000  0.4230180000000  0.5372170000000 1.0
C      1  0.5606660000000  0.4115010000000  0.4585670000000 1.0
C      1  0.4377110000000  0.4730990000000  0.4145170000000 1.0
C      1  0.5637360000000  0.5352390000000  0.4225950000000 1.0
C      1  0.4405940000000  0.5819160000000  0.4619900000000 1.0
C      1  0.5475680000000  0.5816200000000  0.5357310000000 1.0
C      1  0.4656150000000  0.5614820000000  0.5466680000000 1.0
C      1  0.5423370000000  0.5098200000000  0.5705550000000 1.0
C      1  0.4668640000000  0.4551490000000  0.5593990000000 1.0
C      1  0.5313350000000  0.4316090000000  0.5111880000000 1.0
C      1  0.4750340000000  0.4439680000000  0.4622290000000 1.0
C      1  0.5325830000000  0.4900400000000  0.4229640000000 1.0
C      1  0.4722440000000  0.5442530000000  0.4414450000000 1.0
C      1  0.5355520000000  0.5701930000000  0.4914970000000 1.0
C      1  0.4878720000000  0.5762740000000  0.5159720000000 1.0
C      1  0.4906240000000  0.5493930000000  0.5667100000000 1.0
C      1  0.5059670000000  0.4782290000000  0.5896660000000 1.0
C      1  0.4973810000000  0.4412920000000  0.5500480000000 1.0
C      1  0.5006450000000  0.4289030000000  0.4966140000000 1.0
C      1  0.4981700000000  0.4552610000000  0.4435510000000 1.0
C      1  0.5017500000000  0.5043620000000  0.4198230000000 1.0
C      1  0.4923760000000  0.5650020000000  0.4593980000000 1.0
C      1  0.4319000000000  0.5100220000000  0.4283150000000 1.0
C      1  0.5746280000000  0.5522420000000  0.4566730000000 1.0
C      1  0.4265680000000  0.5694790000000  0.5085310000000 1.0
C      1  0.5868020000000  0.5395990000000  0.5476900000000 1.0
C      1  0.4289060000000  0.4947390000000  0.5685380000000 1.0
C      1  0.5702750000000  0.4456300000000  0.5446710000000 1.0
C      1  0.4208720000000  0.4362410000000  0.4912080000000 1.0
C      1  0.5686140000000  0.4545580000000  0.4436860000000 1.0
C      1  0.4112090000000  0.4493690000000  0.5200350000000 1.0
C      1  0.5858180000000  0.4482830000000  0.4724590000000 1.0
C      1  0.4126450000000  0.4858780000000  0.4423490000000 1.0
C      1  0.5923440000000  0.5237200000000  0.4505970000000 1.0
C      1  0.4112230000000  0.5528940000000  0.4828680000000 1.0
C      1  0.5974160000000  0.5440410000000  0.5174200000000 1.0
C      1  0.4108390000000  0.5183200000000  0.5521700000000 1.0
C      1  0.5867850000000  0.4738700000000  0.5542360000000 1.0
C      1  0.5162820000000  0.5840970000000  0.4680310000000 1.0
C      1  0.4689690000000  0.5938050000000  0.5374640000000 1.0
C      1  0.5175560000000  0.5325040000000  0.5769430000000 1.0
C      1  0.4849930000000  0.4566470000000  0.5882890000000 1.0
C      1  0.5161310000000  0.4164950000000  0.5353320000000 1.0
C      1  0.4851880000000  0.4152370000000  0.4710670000000 1.0
C      1  0.5122310000000  0.4639260000000  0.4163100000000 1.0
C      1  0.4883640000000  0.5337660000000  0.4152070000000 1.0
C      1  0.4312400000000  0.4999730000000  0.4969970000000 1.0
C      1  0.5713050000000  0.4955600000000  0.4983810000000 1.0
C      1  0.4992600000000  0.4962210000000  0.4951850000000 1.0
END
