TITL C-2782227-3064-1026 0.00107503633131466 125000 -844.680950406395 0 0 149 (C1) n - 1
REM
REM in /home/nfs/bkarasulu/CARBON/AIRSS/Generating-Clusters/REBO/Higher-Symm/SD-CG/HFTN-CG
REM
REM
REM
REM
REM
REM ./C.cell (12c818d87b63d06a65506943cc24bca4)
REM
REM compiler GCC version 9.2.1 20190827 (Red Hat 9.2.1-1)
REM options -cpp -mtune=generic -march=x86-64 -g -O0 -fpre-include=/usr/include/finclude/math-vector-fortran.h
REM seed -397248248 -212894766 -16669403 1441009794 -1506550037 -727029099 1359212788 -1738644269 -81658238 -1642559434 -1438359460 -866863726 672208856 1923555805 1556575667 246895555 -1197616185 -773466905 867477846 -48641767 281153150 -1283965394 1381923838 -1656122858 -556728666 -1457620565 -1798073878 -1199247493 -1866134066 2004374610 773752319 -1327353332 651221337
REM
CELL 1.54180   50.00000   50.00000   50.00000   90.00000   90.00000   90.00000
LATT -1
SFAC C  
C      1  0.3950310000000  0.4573450000000  0.5137740000000 1.0
C      1  0.4267920000000  0.5844400000000  0.5137690000000 1.0
C      1  0.5579590000000  0.5961940000000  0.5138980000000 1.0
C      1  0.6083780000000  0.4749280000000  0.5128410000000 1.0
C      1  0.5052780000000  0.3859400000000  0.5209900000000 1.0
C      1  0.5547040000000  0.5006850000000  0.4597660000000 1.0
C      1  0.5180550000000  0.4549590000000  0.4603340000000 1.0
C      1  0.4541030000000  0.4631230000000  0.4683870000000 1.0
C      1  0.4505080000000  0.5320130000000  0.4664100000000 1.0
C      1  0.5172160000000  0.5510170000000  0.4667180000000 1.0
C      1  0.5356270000000  0.5775160000000  0.4758900000000 1.0
C      1  0.5826990000000  0.4856800000000  0.4716310000000 1.0
C      1  0.5158030000000  0.4065190000000  0.4802930000000 1.0
C      1  0.4213440000000  0.4591290000000  0.4722550000000 1.0
C      1  0.4331650000000  0.5589780000000  0.4751500000000 1.0
C      1  0.5175880000000  0.5630530000000  0.5126980000000 1.0
C      1  0.5639380000000  0.4997580000000  0.5076330000000 1.0
C      1  0.5187470000000  0.4295670000000  0.5181490000000 1.0
C      1  0.4445270000000  0.4596460000000  0.5116310000000 1.0
C      1  0.4442240000000  0.5379550000000  0.5102320000000 1.0
C      1  0.4824380000000  0.4975180000000  0.4840860000000 1.0
C      1  0.4997080000000  0.5181970000000  0.4814000000000 1.0
C      1  0.5258210000000  0.5138530000000  0.4839090000000 1.0
C      1  0.5389710000000  0.4913780000000  0.4951980000000 1.0
C      1  0.4892160000000  0.4725110000000  0.4945880000000 1.0
C      1  0.4634910000000  0.5963550000000  0.4694040000000 1.0
C      1  0.5803580000000  0.5628070000000  0.4664720000000 1.0
C      1  0.5800380000000  0.4429150000000  0.4689200000000 1.0
C      1  0.4715380000000  0.4015380000000  0.4700550000000 1.0
C      1  0.3973650000000  0.4947350000000  0.4672130000000 1.0
C      1  0.5694500000000  0.4563140000000  0.4431450000000 1.0
C      1  0.4827080000000  0.4207600000000  0.4467670000000 1.0
C      1  0.4179160000000  0.4942060000000  0.4424090000000 1.0
C      1  0.4666350000000  0.5772900000000  0.4437130000000 1.0
C      1  0.5634810000000  0.5536230000000  0.4406780000000 1.0
C      1  0.5313430000000  0.5594750000000  0.5847030000000 1.0
C      1  0.5671270000000  0.4887200000000  0.5817600000000 1.0
C      1  0.5076360000000  0.4333940000000  0.5855660000000 1.0
C      1  0.4351960000000  0.4691080000000  0.5853700000000 1.0
C      1  0.4538770000000  0.5470340000000  0.5817730000000 1.0
C      1  0.4351830000000  0.4883050000000  0.4957080000000 1.0
C      1  0.4683620000000  0.5553490000000  0.4934970000000 1.0
C      1  0.5620990000000  0.5459390000000  0.4977410000000 1.0
C      1  0.5591830000000  0.4573780000000  0.4997230000000 1.0
C      1  0.4723510000000  0.4233460000000  0.5034810000000 1.0
C      1  0.4135610000000  0.5397480000000  0.4947950000000 1.0
C      1  0.5124370000000  0.5923930000000  0.4956910000000 1.0
C      1  0.5894160000000  0.5143930000000  0.4889230000000 1.0
C      1  0.5421090000000  0.4109320000000  0.5013340000000 1.0
C      1  0.4337500000000  0.4337510000000  0.4919040000000 1.0
C      1  0.5869520000000  0.5363390000000  0.5149280000000 1.0
C      1  0.5624440000000  0.4123040000000  0.5287160000000 1.0
C      1  0.4454340000000  0.4158530000000  0.5183850000000 1.0
C      1  0.3974740000000  0.5259790000000  0.5204570000000 1.0
C      1  0.4930170000000  0.6045220000000  0.5208350000000 1.0
C      1  0.5639500000000  0.5765560000000  0.4903410000000 1.0
C      1  0.5897290000000  0.4623790000000  0.4919970000000 1.0
C      1  0.4896550000000  0.3981880000000  0.4962100000000 1.0
C      1  0.4040940000000  0.4776450000000  0.4921590000000 1.0
C      1  0.4483720000000  0.5818660000000  0.4913420000000 1.0
C      1  0.5647170000000  0.5072420000000  0.5346130000000 1.0
C      1  0.5336380000000  0.4436490000000  0.5403400000000 1.0
C      1  0.4640090000000  0.4563920000000  0.5395760000000 1.0
C      1  0.4445120000000  0.5190210000000  0.5366500000000 1.0
C      1  0.4990300000000  0.5612780000000  0.5370810000000 1.0
C      1  0.5262520000000  0.5145340000000  0.5271510000000 1.0
C      1  0.5240460000000  0.4810640000000  0.5308270000000 1.0
C      1  0.4956270000000  0.4746980000000  0.5240150000000 1.0
C      1  0.4778120000000  0.4971930000000  0.5332430000000 1.0
C      1  0.4948960000000  0.5222880000000  0.5312950000000 1.0
C      1  0.5301180000000  0.5844470000000  0.5566280000000 1.0
C      1  0.5951430000000  0.4962260000000  0.5578520000000 1.0
C      1  0.5225140000000  0.4131560000000  0.5655080000000 1.0
C      1  0.4196380000000  0.4489750000000  0.5577970000000 1.0
C      1  0.4277640000000  0.5566340000000  0.5564150000000 1.0
C      1  0.4433250000000  0.4303060000000  0.5446040000000 1.0
C      1  0.4142600000000  0.5274340000000  0.5462330000000 1.0
C      1  0.4976360000000  0.5912430000000  0.5492740000000 1.0
C      1  0.5888820000000  0.5270290000000  0.5448720000000 1.0
C      1  0.5528840000000  0.4223200000000  0.5552770000000 1.0
C      1  0.6037880000000  0.4766430000000  0.5408510000000 1.0
C      1  0.5055330000000  0.3965000000000  0.5464010000000 1.0
C      1  0.4005600000000  0.4595850000000  0.5415700000000 1.0
C      1  0.4320330000000  0.5783620000000  0.5409820000000 1.0
C      1  0.5517390000000  0.5876690000000  0.5405260000000 1.0
C      1  0.4826240000000  0.5443540000000  0.5724760000000 1.0
C      1  0.5420140000000  0.5319400000000  0.5759360000000 1.0
C      1  0.5407820000000  0.4751730000000  0.5715410000000 1.0
C      1  0.4845090000000  0.4492020000000  0.5731150000000 1.0
C      1  0.4451180000000  0.4970550000000  0.5767580000000 1.0
C      1  0.5317300000000  0.5300210000000  0.4457770000000 1.0
C      1  0.5291040000000  0.4974480000000  0.4414490000000 1.0
C      1  0.5028370000000  0.4673760000000  0.4408490000000 1.0
C      1  0.4642970000000  0.4881090000000  0.4499190000000 1.0
C      1  0.4746150000000  0.5382370000000  0.4446740000000 1.0
C      1  0.4988460000000  0.4629640000000  0.4122970000000 1.0
C      1  0.4619540000000  0.4952700000000  0.4195220000000 1.0
C      1  0.4827210000000  0.5489490000000  0.4143280000000 1.0
C      1  0.5323350000000  0.5397540000000  0.4163420000000 1.0
C      1  0.5365870000000  0.4924400000000  0.4110050000000 1.0
C      1  0.4898120000000  0.4427820000000  0.5217050000000 1.0
C      1  0.4476480000000  0.4900130000000  0.5253770000000 1.0
C      1  0.4746410000000  0.5460010000000  0.5236040000000 1.0
C      1  0.5353650000000  0.5414330000000  0.5126610000000 1.0
C      1  0.5515130000000  0.4648020000000  0.5257660000000 1.0
C      1  0.4397010000000  0.5563600000000  0.4428250000000 1.0
C      1  0.5335690000000  0.5696570000000  0.4428320000000 1.0
C      1  0.5775570000000  0.4890430000000  0.4382610000000 1.0
C      1  0.5147810000000  0.4240330000000  0.4549980000000 1.0
C      1  0.4337370000000  0.4640820000000  0.4408830000000 1.0
C      1  0.5007010000000  0.5787940000000  0.4434030000000 1.0
C      1  0.5784510000000  0.5231680000000  0.4372780000000 1.0
C      1  0.5476850000000  0.4309120000000  0.4494960000000 1.0
C      1  0.4527770000000  0.4356690000000  0.4400020000000 1.0
C      1  0.4207370000000  0.5281240000000  0.4407080000000 1.0
C      1  0.4678800000000  0.5165670000000  0.5599890000000 1.0
C      1  0.5129660000000  0.5369230000000  0.5572970000000 1.0
C      1  0.5417290000000  0.5057780000000  0.5561510000000 1.0
C      1  0.5123160000000  0.4619840000000  0.5579880000000 1.0
C      1  0.4691640000000  0.4771790000000  0.5661090000000 1.0
C      1  0.5094270000000  0.5542850000000  0.4081170000000 1.0
C      1  0.5420540000000  0.5183040000000  0.3997860000000 1.0
C      1  0.5229670000000  0.4707150000000  0.3987600000000 1.0
C      1  0.4740900000000  0.4750460000000  0.4032260000000 1.0
C      1  0.4630860000000  0.5233200000000  0.4167420000000 1.0
C      1  0.5894320000000  0.5343230000000  0.4638680000000 1.0
C      1  0.5610070000000  0.4211780000000  0.4771930000000 1.0
C      1  0.4482690000000  0.4197520000000  0.4665790000000 1.0
C      1  0.4057070000000  0.5230010000000  0.4671690000000 1.0
C      1  0.4928730000000  0.5936170000000  0.4689890000000 1.0
C      1  0.4510620000000  0.4430370000000  0.5747980000000 1.0
C      1  0.4319580000000  0.5256350000000  0.5744480000000 1.0
C      1  0.5027770000000  0.5706320000000  0.5756950000000 1.0
C      1  0.5739100000000  0.5198560000000  0.5746310000000 1.0
C      1  0.5390830000000  0.4421270000000  0.5794270000000 1.0
C      1  0.5509300000000  0.5309050000000  0.4739230000000 1.0
C      1  0.5359160000000  0.4640800000000  0.4800600000000 1.0
C      1  0.4737060000000  0.4505970000000  0.4859820000000 1.0
C      1  0.4522400000000  0.5035350000000  0.4761160000000 1.0
C      1  0.4876500000000  0.5451990000000  0.4725270000000 1.0
C      1  0.5375370000000  0.6130130000000  0.5039130000000 1.0
C      1  0.6163820000000  0.4994240000000  0.5014310000000 1.0
C      1  0.5314740000000  0.3802320000000  0.5114680000000 1.0
C      1  0.4019680000000  0.4320170000000  0.5033360000000 1.0
C      1  0.4039660000000  0.5710050000000  0.5042170000000 1.0
C      1  0.4952570000000  0.4971270000000  0.4452280000000 1.0
C      1  0.4947460000000  0.4916950000000  0.5781480000000 1.0
C      1  0.5130590000000  0.5079520000000  0.5812760000000 1.0
C      1  0.5016840000000  0.5142000000000  0.4182310000000 1.0
END
