TITL C-2782234-8014-592 -0.00177195352294779 125000 -885.582283645864 0 0 153 (C1) n - 1
REM
REM in /home/nfs/bkarasulu/CARBON/AIRSS/Generating-Clusters/REBO/Higher-Symm/SD-CG/HFTN-CG
REM
REM
REM
REM
REM
REM ./C.cell (12c818d87b63d06a65506943cc24bca4)
REM
REM compiler GCC version 9.2.1 20190827 (Red Hat 9.2.1-1)
REM options -cpp -mtune=generic -march=x86-64 -g -O0 -fpre-include=/usr/include/finclude/math-vector-fortran.h
REM seed 1744107734 972389025 1515642664 828949751 2052513325 -391973009 -287165467 -868278146 -197182051 134287872 -89627087 462367853 1093103149 -1967352726 -1980967926 2081081173 -1701923772 -1296281357 -2118611704 1069195843 1291490671 404467810 1694823341 357995107 -1788539016 1318481279 1935550893 278193401 2042086577 868769128 -139874820 288495919 134042348
REM
CELL 1.54180   50.00000   50.00000   50.00000   90.00000   90.00000   90.00000
LATT -1
SFAC C  
C      1  0.4603770000000  0.4979190000000  0.4155130000000 1.0
C      1  0.4553640000000  0.4918770000000  0.5843460000000 1.0
C      1  0.6068840000000  0.5447920000000  0.4576780000000 1.0
C      1  0.5742050000000  0.5307630000000  0.5450220000000 1.0
C      1  0.5339490000000  0.5309990000000  0.5356920000000 1.0
C      1  0.5317460000000  0.5306700000000  0.4593640000000 1.0
C      1  0.5337500000000  0.5052810000000  0.4068030000000 1.0
C      1  0.5413380000000  0.5147070000000  0.5834710000000 1.0
C      1  0.5348440000000  0.4490080000000  0.5505300000000 1.0
C      1  0.5357000000000  0.4539310000000  0.4395870000000 1.0
C      1  0.4987210000000  0.4672760000000  0.4689380000000 1.0
C      1  0.5009710000000  0.4617850000000  0.5339400000000 1.0
C      1  0.4882890000000  0.4716230000000  0.5743470000000 1.0
C      1  0.4806130000000  0.4552640000000  0.4090820000000 1.0
C      1  0.4777770000000  0.4407990000000  0.5754560000000 1.0
C      1  0.4714100000000  0.4382790000000  0.4361430000000 1.0
C      1  0.5212300000000  0.4782960000000  0.4528460000000 1.0
C      1  0.5248540000000  0.4799160000000  0.5466920000000 1.0
C      1  0.4849560000000  0.5008860000000  0.4018080000000 1.0
C      1  0.4869480000000  0.4991770000000  0.5946970000000 1.0
C      1  0.4557980000000  0.5117330000000  0.5573630000000 1.0
C      1  0.4580740000000  0.5155410000000  0.4377380000000 1.0
C      1  0.5687920000000  0.5484120000000  0.5239780000000 1.0
C      1  0.5810960000000  0.5431170000000  0.4672340000000 1.0
C      1  0.5412400000000  0.5411030000000  0.5650070000000 1.0
C      1  0.5562440000000  0.5483470000000  0.4483900000000 1.0
C      1  0.4354760000000  0.4746200000000  0.4523570000000 1.0
C      1  0.4352100000000  0.4768790000000  0.5604020000000 1.0
C      1  0.4338930000000  0.4536310000000  0.4710310000000 1.0
C      1  0.4312650000000  0.4543010000000  0.5367540000000 1.0
C      1  0.4924670000000  0.5105760000000  0.4707780000000 1.0
C      1  0.4910690000000  0.5099120000000  0.5313460000000 1.0
C      1  0.5145670000000  0.5518630000000  0.5227890000000 1.0
C      1  0.5135850000000  0.5528940000000  0.4719580000000 1.0
C      1  0.5280550000000  0.5614560000000  0.4342080000000 1.0
C      1  0.5244670000000  0.5640910000000  0.5711090000000 1.0
C      1  0.5031710000000  0.4076980000000  0.4607010000000 1.0
C      1  0.4990690000000  0.4092060000000  0.5377360000000 1.0
C      1  0.4877140000000  0.5855830000000  0.4664300000000 1.0
C      1  0.4890490000000  0.5807600000000  0.5332730000000 1.0
C      1  0.4345690000000  0.5578910000000  0.5364810000000 1.0
C      1  0.4362510000000  0.5591170000000  0.4604040000000 1.0
C      1  0.4407860000000  0.5276990000000  0.4733420000000 1.0
C      1  0.4391080000000  0.5247200000000  0.5309990000000 1.0
C      1  0.5148140000000  0.5098790000000  0.5540070000000 1.0
C      1  0.5126380000000  0.5090340000000  0.4438160000000 1.0
C      1  0.5077630000000  0.5216030000000  0.5838520000000 1.0
C      1  0.5065840000000  0.5202450000000  0.4147510000000 1.0
C      1  0.5039310000000  0.4376820000000  0.5540940000000 1.0
C      1  0.4919680000000  0.4389950000000  0.4618990000000 1.0
C      1  0.4519050000000  0.4585740000000  0.5835920000000 1.0
C      1  0.4549430000000  0.4673350000000  0.4281900000000 1.0
C      1  0.5471070000000  0.5739190000000  0.4664490000000 1.0
C      1  0.5488750000000  0.5719200000000  0.5250790000000 1.0
C      1  0.4259180000000  0.5012590000000  0.4577890000000 1.0
C      1  0.4213460000000  0.4979000000000  0.5428320000000 1.0
C      1  0.4706980000000  0.5381800000000  0.5508740000000 1.0
C      1  0.4683980000000  0.5407590000000  0.4451540000000 1.0
C      1  0.4867800000000  0.5402360000000  0.5237770000000 1.0
C      1  0.4853470000000  0.5409990000000  0.4723920000000 1.0
C      1  0.4035810000000  0.5210910000000  0.4569460000000 1.0
C      1  0.4002060000000  0.5226240000000  0.5430250000000 1.0
C      1  0.5448480000000  0.4582590000000  0.4090220000000 1.0
C      1  0.5581480000000  0.4707990000000  0.5743330000000 1.0
C      1  0.5653310000000  0.5098050000000  0.5598430000000 1.0
C      1  0.5529690000000  0.4859270000000  0.4228330000000 1.0
C      1  0.4965760000000  0.4749810000000  0.3962880000000 1.0
C      1  0.5132070000000  0.4773870000000  0.5951020000000 1.0
C      1  0.5703560000000  0.4601010000000  0.4639070000000 1.0
C      1  0.5686160000000  0.4582070000000  0.5228540000000 1.0
C      1  0.4688710000000  0.4699000000000  0.5269010000000 1.0
C      1  0.4700320000000  0.4782380000000  0.4777540000000 1.0
C      1  0.4798870000000  0.5614550000000  0.4271460000000 1.0
C      1  0.4768520000000  0.5589820000000  0.5713450000000 1.0
C      1  0.5279570000000  0.4211430000000  0.4350820000000 1.0
C      1  0.5381890000000  0.4173010000000  0.5552870000000 1.0
C      1  0.4452610000000  0.4292140000000  0.4647210000000 1.0
C      1  0.4488660000000  0.4293450000000  0.5378590000000 1.0
C      1  0.5206200000000  0.5771400000000  0.5432620000000 1.0
C      1  0.5172590000000  0.5833080000000  0.4567350000000 1.0
C      1  0.5646340000000  0.4801900000000  0.5439200000000 1.0
C      1  0.5606440000000  0.4839490000000  0.4500770000000 1.0
C      1  0.5057820000000  0.5511730000000  0.4188760000000 1.0
C      1  0.5011940000000  0.5525600000000  0.5835680000000 1.0
C      1  0.4766520000000  0.4882240000000  0.5509720000000 1.0
C      1  0.4656210000000  0.4998830000000  0.4594370000000 1.0
C      1  0.4609600000000  0.5765120000000  0.5476410000000 1.0
C      1  0.4618190000000  0.5794350000000  0.4500590000000 1.0
C      1  0.4359880000000  0.5904430000000  0.5296020000000 1.0
C      1  0.4367290000000  0.5911740000000  0.4697780000000 1.0
C      1  0.5433540000000  0.5012340000000  0.5276820000000 1.0
C      1  0.5416390000000  0.5005960000000  0.4694330000000 1.0
C      1  0.5313760000000  0.4053070000000  0.5265130000000 1.0
C      1  0.5376130000000  0.4044150000000  0.4624810000000 1.0
C      1  0.5255010000000  0.4773900000000  0.3951780000000 1.0
C      1  0.5397580000000  0.4845520000000  0.5892480000000 1.0
C      1  0.4056600000000  0.5465990000000  0.5297560000000 1.0
C      1  0.4064390000000  0.5468240000000  0.4661540000000 1.0
C      1  0.4698780000000  0.4185220000000  0.5528830000000 1.0
C      1  0.4695250000000  0.4082160000000  0.4528170000000 1.0
C      1  0.5507230000000  0.4359010000000  0.4636550000000 1.0
C      1  0.5465460000000  0.4358680000000  0.5212950000000 1.0
C      1  0.5730690000000  0.5387270000000  0.4943940000000 1.0
C      1  0.5818540000000  0.4622990000000  0.4917610000000 1.0
C      1  0.3894230000000  0.4935100000000  0.4956950000000 1.0
C      1  0.4353180000000  0.3792280000000  0.5013940000000 1.0
C      1  0.5927610000000  0.4333200000000  0.5035040000000 1.0
C      1  0.4850030000000  0.5842780000000  0.4997440000000 1.0
C      1  0.5752590000000  0.4123590000000  0.5012050000000 1.0
C      1  0.5568310000000  0.5751070000000  0.4920860000000 1.0
C      1  0.6140480000000  0.5320200000000  0.5167320000000 1.0
C      1  0.5000820000000  0.4683860000000  0.5021480000000 1.0
C      1  0.4860850000000  0.6168810000000  0.5024620000000 1.0
C      1  0.3741610000000  0.4461790000000  0.4947470000000 1.0
C      1  0.4968840000000  0.4998870000000  0.5018940000000 1.0
C      1  0.4786310000000  0.4429300000000  0.4934500000000 1.0
C      1  0.5200670000000  0.5218380000000  0.4970290000000 1.0
C      1  0.6061320000000  0.5589270000000  0.5144940000000 1.0
C      1  0.5771910000000  0.4913960000000  0.5027040000000 1.0
C      1  0.5124670000000  0.4103540000000  0.4919520000000 1.0
C      1  0.3927040000000  0.4663680000000  0.4974130000000 1.0
C      1  0.5447730000000  0.3983650000000  0.4956280000000 1.0
C      1  0.6143000000000  0.4541240000000  0.5135040000000 1.0
C      1  0.5647490000000  0.6022160000000  0.5097750000000 1.0
C      1  0.4916970000000  0.3960600000000  0.5099210000000 1.0
C      1  0.5345280000000  0.4362060000000  0.4908350000000 1.0
C      1  0.5175020000000  0.5725190000000  0.4985480000000 1.0
C      1  0.3960030000000  0.5536520000000  0.4979070000000 1.0
C      1  0.4541870000000  0.3609180000000  0.5097940000000 1.0
C      1  0.4602090000000  0.6258140000000  0.5010380000000 1.0
C      1  0.6223330000000  0.4814720000000  0.5173610000000 1.0
C      1  0.4706510000000  0.5445780000000  0.4980380000000 1.0
C      1  0.4258780000000  0.4915020000000  0.5119520000000 1.0
C      1  0.5134260000000  0.6235480000000  0.5062800000000 1.0
C      1  0.4542420000000  0.5177630000000  0.5034150000000 1.0
C      1  0.5444060000000  0.5317630000000  0.4971570000000 1.0
C      1  0.4572480000000  0.4847430000000  0.5039400000000 1.0
C      1  0.3805200000000  0.5239710000000  0.4927180000000 1.0
C      1  0.4397860000000  0.6023230000000  0.4999000000000 1.0
C      1  0.4532410000000  0.5710990000000  0.4997560000000 1.0
C      1  0.6370990000000  0.5097510000000  0.5231730000000 1.0
C      1  0.4133690000000  0.5181080000000  0.5002610000000 1.0
C      1  0.4416720000000  0.4046570000000  0.4949950000000 1.0
C      1  0.4729290000000  0.4105900000000  0.4866280000000 1.0
C      1  0.4483400000000  0.4346080000000  0.5064700000000 1.0
C      1  0.5464110000000  0.4918720000000  0.4977940000000 1.0
C      1  0.4240880000000  0.4588380000000  0.5032770000000 1.0
C      1  0.4806390000000  0.3672610000000  0.5133630000000 1.0
C      1  0.5313040000000  0.4653860000000  0.4992460000000 1.0
C      1  0.4296760000000  0.5482800000000  0.4981380000000 1.0
C      1  0.6000020000000  0.5035930000000  0.5112830000000 1.0
C      1  0.5318120000000  0.6024890000000  0.5058600000000 1.0
C      1  0.5901470000000  0.5813170000000  0.5131660000000 1.0
END
