TITL C-2782234-8014-1398 0.00368032118900304 125000 -641.313729891099 0 0 111 (C1) n - 1
REM
REM in /home/nfs/bkarasulu/CARBON/AIRSS/Generating-Clusters/REBO/Higher-Symm/SD-CG/HFTN-CG
REM
REM
REM
REM
REM
REM ./C.cell (12c818d87b63d06a65506943cc24bca4)
REM
REM compiler GCC version 9.2.1 20190827 (Red Hat 9.2.1-1)
REM options -cpp -mtune=generic -march=x86-64 -g -O0 -fpre-include=/usr/include/finclude/math-vector-fortran.h
REM seed 1359955380 1285274579 -784392046 833132173 97644638 -774678030 493588756 -2054430144 1092599075 -808528472 1581476652 1523801895 -1056465904 -406322344 1088438856 1667423178 1424537572 -1796430289 1629058013 -440029633 -844336545 1678238071 1353953857 -1985741969 -1285820534 -686478891 1039751381 1833406343 630161966 -199774450 -1819589540 -139394571 -395548944
REM
CELL 1.54180   50.00000   50.00000   50.00000   90.00000   90.00000   90.00000
LATT -1
SFAC C  
C      1  0.4798550000000  0.4970590000000  0.4491540000000 1.0
C      1  0.5331430000000  0.4152340000000  0.5394400000000 1.0
C      1  0.4521370000000  0.5694400000000  0.4576000000000 1.0
C      1  0.5686070000000  0.4673230000000  0.4497870000000 1.0
C      1  0.4369790000000  0.4651110000000  0.5044310000000 1.0
C      1  0.4523770000000  0.4823970000000  0.4349160000000 1.0
C      1  0.4324430000000  0.5518320000000  0.5317580000000 1.0
C      1  0.5071760000000  0.5073250000000  0.4625300000000 1.0
C      1  0.4622360000000  0.5102900000000  0.5716200000000 1.0
C      1  0.4774290000000  0.5328700000000  0.5022870000000 1.0
C      1  0.5260570000000  0.4596930000000  0.4949070000000 1.0
C      1  0.4824530000000  0.4751820000000  0.4231290000000 1.0
C      1  0.4835590000000  0.4462480000000  0.4682240000000 1.0
C      1  0.4392320000000  0.5116620000000  0.4423560000000 1.0
C      1  0.5555200000000  0.4179190000000  0.4741430000000 1.0
C      1  0.5028900000000  0.4702670000000  0.5255970000000 1.0
C      1  0.4650410000000  0.5339640000000  0.4451750000000 1.0
C      1  0.4019570000000  0.5004150000000  0.5619380000000 1.0
C      1  0.5098200000000  0.4818000000000  0.5631830000000 1.0
C      1  0.5412120000000  0.4661740000000  0.4695770000000 1.0
C      1  0.4701870000000  0.5712740000000  0.4308010000000 1.0
C      1  0.4446250000000  0.4984940000000  0.5015890000000 1.0
C      1  0.4266620000000  0.4842580000000  0.5501300000000 1.0
C      1  0.5030650000000  0.4849600000000  0.4953960000000 1.0
C      1  0.5463010000000  0.5386210000000  0.5486420000000 1.0
C      1  0.5385980000000  0.4123330000000  0.5097690000000 1.0
C      1  0.5810640000000  0.4501590000000  0.5101680000000 1.0
C      1  0.5974860000000  0.4769860000000  0.5085890000000 1.0
C      1  0.4985470000000  0.5251310000000  0.5449730000000 1.0
C      1  0.5513440000000  0.5667830000000  0.5055520000000 1.0
C      1  0.5023380000000  0.4290610000000  0.4551760000000 1.0
C      1  0.5398920000000  0.4899440000000  0.5515270000000 1.0
C      1  0.5135060000000  0.4300320000000  0.4985260000000 1.0
C      1  0.4518990000000  0.5789760000000  0.5325980000000 1.0
C      1  0.5734310000000  0.4965880000000  0.5539920000000 1.0
C      1  0.4836470000000  0.5075460000000  0.4872230000000 1.0
C      1  0.4583930000000  0.5535250000000  0.4876630000000 1.0
C      1  0.5363440000000  0.5377440000000  0.5752980000000 1.0
C      1  0.4000170000000  0.5075720000000  0.5317330000000 1.0
C      1  0.5164200000000  0.5014030000000  0.5291720000000 1.0
C      1  0.5194140000000  0.5197860000000  0.5896340000000 1.0
C      1  0.5433260000000  0.4613930000000  0.5195180000000 1.0
C      1  0.4532820000000  0.4774360000000  0.5693150000000 1.0
C      1  0.5537910000000  0.4921220000000  0.5198540000000 1.0
C      1  0.4821760000000  0.4954250000000  0.5483990000000 1.0
C      1  0.4712680000000  0.5834090000000  0.4812210000000 1.0
C      1  0.4616670000000  0.5244640000000  0.5267140000000 1.0
C      1  0.5311050000000  0.4498100000000  0.5742270000000 1.0
C      1  0.4019060000000  0.5039680000000  0.4976960000000 1.0
C      1  0.4572710000000  0.4304610000000  0.4937390000000 1.0
C      1  0.5709800000000  0.4885690000000  0.4333890000000 1.0
C      1  0.4982760000000  0.5607770000000  0.4313590000000 1.0
C      1  0.4939410000000  0.5189060000000  0.5778800000000 1.0
C      1  0.4845170000000  0.4756550000000  0.5827130000000 1.0
C      1  0.5061120000000  0.5459460000000  0.5083770000000 1.0
C      1  0.5325160000000  0.5567400000000  0.4797440000000 1.0
C      1  0.5441040000000  0.5294100000000  0.4432500000000 1.0
C      1  0.5513230000000  0.4390700000000  0.4530230000000 1.0
C      1  0.4587560000000  0.4467500000000  0.4573030000000 1.0
C      1  0.5861260000000  0.5309000000000  0.5191620000000 1.0
C      1  0.4475730000000  0.5335620000000  0.5566630000000 1.0
C      1  0.4307920000000  0.5517630000000  0.4998370000000 1.0
C      1  0.4993370000000  0.5757140000000  0.5207040000000 1.0
C      1  0.5293770000000  0.4955770000000  0.6003440000000 1.0
C      1  0.4919920000000  0.5550450000000  0.5444390000000 1.0
C      1  0.5229280000000  0.5503300000000  0.4272400000000 1.0
C      1  0.4650200000000  0.5605840000000  0.5527970000000 1.0
C      1  0.5421270000000  0.4437410000000  0.5459850000000 1.0
C      1  0.5253460000000  0.4857730000000  0.4521240000000 1.0
C      1  0.5331330000000  0.4696630000000  0.5932850000000 1.0
C      1  0.5142840000000  0.4682840000000  0.4267980000000 1.0
C      1  0.5317640000000  0.3994880000000  0.4791470000000 1.0
C      1  0.5054570000000  0.4042100000000  0.4696970000000 1.0
C      1  0.4975540000000  0.4529750000000  0.5525180000000 1.0
C      1  0.4333890000000  0.4486380000000  0.4772170000000 1.0
C      1  0.5924110000000  0.5000770000000  0.5252550000000 1.0
C      1  0.5110170000000  0.4253070000000  0.5614510000000 1.0
C      1  0.5669880000000  0.4287590000000  0.5003830000000 1.0
C      1  0.4844900000000  0.4124300000000  0.4946920000000 1.0
C      1  0.4324920000000  0.4765830000000  0.4602980000000 1.0
C      1  0.5015950000000  0.5829690000000  0.4714470000000 1.0
C      1  0.5722440000000  0.5274020000000  0.5457630000000 1.0
C      1  0.5089940000000  0.5363170000000  0.4762230000000 1.0
C      1  0.5368900000000  0.5127060000000  0.5040210000000 1.0
C      1  0.4547040000000  0.4913220000000  0.5321550000000 1.0
C      1  0.4670670000000  0.4556750000000  0.5485560000000 1.0
C      1  0.4712480000000  0.5870840000000  0.5127650000000 1.0
C      1  0.4282870000000  0.5195630000000  0.5229130000000 1.0
C      1  0.5213520000000  0.5815640000000  0.4987690000000 1.0
C      1  0.5680660000000  0.5397480000000  0.4734990000000 1.0
C      1  0.5276920000000  0.4957510000000  0.4134960000000 1.0
C      1  0.5715880000000  0.4681950000000  0.5373920000000 1.0
C      1  0.4168500000000  0.5044400000000  0.4671100000000 1.0
C      1  0.5180550000000  0.5953150000000  0.4482280000000 1.0
C      1  0.4982280000000  0.5025220000000  0.4140930000000 1.0
C      1  0.4341380000000  0.5405440000000  0.4587790000000 1.0
C      1  0.4864170000000  0.4569450000000  0.4983500000000 1.0
C      1  0.5513410000000  0.5609820000000  0.4531720000000 1.0
C      1  0.4881750000000  0.5530360000000  0.4612940000000 1.0
C      1  0.4571880000000  0.4945770000000  0.4733130000000 1.0
C      1  0.4842610000000  0.5249090000000  0.4208340000000 1.0
C      1  0.4810410000000  0.3908370000000  0.5127610000000 1.0
C      1  0.4139810000000  0.4797760000000  0.5186440000000 1.0
C      1  0.5504370000000  0.5063680000000  0.4253980000000 1.0
C      1  0.5450070000000  0.5189740000000  0.4756890000000 1.0
C      1  0.5749500000000  0.5494440000000  0.5004010000000 1.0
C      1  0.4125750000000  0.5330560000000  0.4835180000000 1.0
C      1  0.5312930000000  0.5380110000000  0.5246150000000 1.0
C      1  0.5224150000000  0.4410800000000  0.4395340000000 1.0
C      1  0.4606660000000  0.4518140000000  0.5196900000000 1.0
C      1  0.5400400000000  0.5859780000000  0.4399130000000 1.0
END
