TITL C-2782229-3092-1193 -0.000667237995866191 125000 -368.717973183005 0 0 60 (C1) n - 1
REM
REM in /home/nfs/bkarasulu/CARBON/AIRSS/Generating-Clusters/REBO/Higher-Symm/SD-CG/HFTN-CG
REM
REM
REM
REM
REM
REM ./C.cell (12c818d87b63d06a65506943cc24bca4)
REM
REM compiler GCC version 9.2.1 20190827 (Red Hat 9.2.1-1)
REM options -cpp -mtune=generic -march=x86-64 -g -O0 -fpre-include=/usr/include/finclude/math-vector-fortran.h
REM seed 1508748622 -647017716 -1415225993 -700198538 651790176 290348930 738141586 -1612607530 -400506400 1508488353 -949004600 1671157503 1174082925 -1068288025 -1098226257 -1031930805 2065397165 -1047870004 1436571766 118521862 -588688561 -1314068696 -1575582925 -952858141 -1667799985 1635642039 -761532143 1747203963 1158824188 -458361942 2084598151 -2004652441 -1897161944
REM
CELL 1.54180   50.00000   50.00000   50.00000   90.00000   90.00000   90.00000
LATT -1
SFAC C  
C      1  0.4656560000000  0.5749550000000  0.5138220000000 1.0
C      1  0.5597430000000  0.5351490000000  0.5136760000000 1.0
C      1  0.5630360000000  0.4626920000000  0.5139720000000 1.0
C      1  0.4820120000000  0.4260740000000  0.5141610000000 1.0
C      1  0.4195900000000  0.4993990000000  0.5104770000000 1.0
C      1  0.4658060000000  0.5740940000000  0.4870500000000 1.0
C      1  0.5604270000000  0.5497960000000  0.4893640000000 1.0
C      1  0.5633070000000  0.4614510000000  0.4871690000000 1.0
C      1  0.4822020000000  0.4259340000000  0.4873500000000 1.0
C      1  0.4325800000000  0.5056990000000  0.4860880000000 1.0
C      1  0.5321350000000  0.4983910000000  0.5264730000000 1.0
C      1  0.5174990000000  0.4730020000000  0.5260190000000 1.0
C      1  0.4888230000000  0.4792540000000  0.5289050000000 1.0
C      1  0.4861680000000  0.5083560000000  0.5313990000000 1.0
C      1  0.5126580000000  0.5200250000000  0.5304690000000 1.0
C      1  0.5261180000000  0.4987030000000  0.4688550000000 1.0
C      1  0.5113540000000  0.4734370000000  0.4670810000000 1.0
C      1  0.4827380000000  0.4795890000000  0.4693580000000 1.0
C      1  0.4798720000000  0.5087660000000  0.4726310000000 1.0
C      1  0.5066950000000  0.5205740000000  0.4719880000000 1.0
C      1  0.5193240000000  0.4883780000000  0.4308460000000 1.0
C      1  0.4924710000000  0.4767210000000  0.4306650000000 1.0
C      1  0.4730190000000  0.4984980000000  0.4309690000000 1.0
C      1  0.4878920000000  0.5236090000000  0.4330030000000 1.0
C      1  0.5165140000000  0.5174810000000  0.4333430000000 1.0
C      1  0.5178120000000  0.4906650000000  0.5697230000000 1.0
C      1  0.4909330000000  0.4791200000000  0.5688420000000 1.0
C      1  0.4715890000000  0.5010430000000  0.5679040000000 1.0
C      1  0.4866970000000  0.5261910000000  0.5690150000000 1.0
C      1  0.5153280000000  0.5198910000000  0.5703430000000 1.0
C      1  0.4871420000000  0.4513780000000  0.4413460000000 1.0
C      1  0.4460640000000  0.4959940000000  0.4385750000000 1.0
C      1  0.4772680000000  0.5473480000000  0.4431480000000 1.0
C      1  0.5355290000000  0.5345550000000  0.4450830000000 1.0
C      1  0.5416000000000  0.4746040000000  0.4409370000000 1.0
C      1  0.4858600000000  0.4533180000000  0.5592000000000 1.0
C      1  0.4460810000000  0.4987130000000  0.5562560000000 1.0
C      1  0.4765720000000  0.5502040000000  0.5589200000000 1.0
C      1  0.5357640000000  0.5364570000000  0.5599860000000 1.0
C      1  0.5401100000000  0.4771640000000  0.5594130000000 1.0
C      1  0.4585740000000  0.5170150000000  0.4903820000000 1.0
C      1  0.5131350000000  0.5433710000000  0.4876190000000 1.0
C      1  0.5512310000000  0.4992430000000  0.4821150000000 1.0
C      1  0.5218450000000  0.4512220000000  0.4814850000000 1.0
C      1  0.4669680000000  0.4633400000000  0.4867160000000 1.0
C      1  0.4657310000000  0.5219660000000  0.5174080000000 1.0
C      1  0.5161200000000  0.5437490000000  0.5150510000000 1.0
C      1  0.5535620000000  0.5072510000000  0.5093630000000 1.0
C      1  0.5249460000000  0.4516070000000  0.5088870000000 1.0
C      1  0.4698150000000  0.4641620000000  0.5141460000000 1.0
C      1  0.5550810000000  0.4679760000000  0.5390500000000 1.0
C      1  0.4830970000000  0.4355180000000  0.5392490000000 1.0
C      1  0.4277670000000  0.4977420000000  0.5364150000000 1.0
C      1  0.4693900000000  0.5667450000000  0.5390540000000 1.0
C      1  0.5523210000000  0.5439680000000  0.5396650000000 1.0
C      1  0.5561570000000  0.4652880000000  0.4615690000000 1.0
C      1  0.4838420000000  0.4345020000000  0.4619950000000 1.0
C      1  0.4283770000000  0.4977370000000  0.4592860000000 1.0
C      1  0.4698160000000  0.5644850000000  0.4623710000000 1.0
C      1  0.5502380000000  0.5464420000000  0.4643490000000 1.0
END
