TITL C-2782228-2999-618 -0.0241668726185446 125000 -586.25112352912 0 0 99 (C1) n - 1
REM
REM in /home/nfs/bkarasulu/CARBON/AIRSS/Generating-Clusters/REBO/Higher-Symm/SD-CG/HFTN-CG
REM
REM
REM
REM
REM
REM ./C.cell (12c818d87b63d06a65506943cc24bca4)
REM
REM compiler GCC version 9.2.1 20190827 (Red Hat 9.2.1-1)
REM options -cpp -mtune=generic -march=x86-64 -g -O0 -fpre-include=/usr/include/finclude/math-vector-fortran.h
REM seed 2046359214 -1748764119 1196672527 -5726700 442009535 -116773125 -2047460540 1196199173 348635626 1006449185 -894461310 1208944701 -1451963212 564313564 641362232 -816928417 1023942780 1505403430 792186492 -1475689563 2110434682 462229364 -494482395 1637544717 -1738079530 832996935 1905812385 1803846532 -1683016292 2093304242 -1914300100 601844580 -154581321
REM
CELL 1.54180   50.00000   50.00000   50.00000   90.00000   90.00000   90.00000
LATT -1
SFAC C  
C      1  0.4650930000000  0.4371360000000  0.4833560000000 1.0
C      1  0.4618670000000  0.5531160000000  0.4812640000000 1.0
C      1  0.5751610000000  0.5058880000000  0.4807770000000 1.0
C      1  0.4554890000000  0.5409510000000  0.4281530000000 1.0
C      1  0.5476170000000  0.5215850000000  0.4262150000000 1.0
C      1  0.4880960000000  0.4536280000000  0.4274740000000 1.0
C      1  0.5307710000000  0.4830810000000  0.5562860000000 1.0
C      1  0.4671510000000  0.4763410000000  0.5685270000000 1.0
C      1  0.4969700000000  0.5356530000000  0.5441100000000 1.0
C      1  0.4289200000000  0.5248440000000  0.5710350000000 1.0
C      1  0.5508270000000  0.5462900000000  0.5635570000000 1.0
C      1  0.5152300000000  0.4284650000000  0.5609960000000 1.0
C      1  0.5462600000000  0.4886440000000  0.4853070000000 1.0
C      1  0.4656270000000  0.4703170000000  0.4887080000000 1.0
C      1  0.4902240000000  0.5422590000000  0.4902510000000 1.0
C      1  0.5174280000000  0.4866580000000  0.4144750000000 1.0
C      1  0.4677320000000  0.4961570000000  0.4127160000000 1.0
C      1  0.5025750000000  0.5337240000000  0.4190090000000 1.0
C      1  0.5422300000000  0.4243190000000  0.5588280000000 1.0
C      1  0.4124040000000  0.5037760000000  0.5643780000000 1.0
C      1  0.5374510000000  0.5701900000000  0.5651690000000 1.0
C      1  0.5936430000000  0.5126120000000  0.5059830000000 1.0
C      1  0.4628330000000  0.4143040000000  0.5055120000000 1.0
C      1  0.4458490000000  0.5689400000000  0.5007810000000 1.0
C      1  0.4809990000000  0.6041120000000  0.4903500000000 1.0
C      1  0.6237730000000  0.4700140000000  0.5151280000000 1.0
C      1  0.4117780000000  0.4054540000000  0.5163930000000 1.0
C      1  0.5840980000000  0.4855290000000  0.5454810000000 1.0
C      1  0.4436570000000  0.4361330000000  0.5443000000000 1.0
C      1  0.4647500000000  0.5774230000000  0.5347970000000 1.0
C      1  0.5232940000000  0.4493190000000  0.4473930000000 1.0
C      1  0.4305360000000  0.5060760000000  0.4462660000000 1.0
C      1  0.5352870000000  0.5554470000000  0.4532690000000 1.0
C      1  0.5344150000000  0.4680490000000  0.4293540000000 1.0
C      1  0.4445170000000  0.4885510000000  0.4285540000000 1.0
C      1  0.5121870000000  0.5591130000000  0.4384470000000 1.0
C      1  0.5506890000000  0.4642310000000  0.4986580000000 1.0
C      1  0.4434850000000  0.4794040000000  0.5029130000000 1.0
C      1  0.5085930000000  0.5565290000000  0.5028130000000 1.0
C      1  0.4243180000000  0.5477660000000  0.5122930000000 1.0
C      1  0.5816490000000  0.5436320000000  0.5157800000000 1.0
C      1  0.4965580000000  0.4112840000000  0.5134420000000 1.0
C      1  0.5540090000000  0.5298210000000  0.5410020000000 1.0
C      1  0.4983280000000  0.4395790000000  0.5414770000000 1.0
C      1  0.4489470000000  0.5331530000000  0.5527360000000 1.0
C      1  0.4729090000000  0.5239850000000  0.4102080000000 1.0
C      1  0.5243060000000  0.5140590000000  0.4143330000000 1.0
C      1  0.4903010000000  0.4781380000000  0.4132930000000 1.0
C      1  0.5603360000000  0.4774900000000  0.4350930000000 1.0
C      1  0.4445700000000  0.4615400000000  0.4368230000000 1.0
C      1  0.4920950000000  0.5762950000000  0.4485310000000 1.0
C      1  0.5077320000000  0.4869150000000  0.5372980000000 1.0
C      1  0.4802350000000  0.4931520000000  0.5513450000000 1.0
C      1  0.5099170000000  0.5172450000000  0.5286080000000 1.0
C      1  0.4957190000000  0.5182120000000  0.4718460000000 1.0
C      1  0.5198680000000  0.4957730000000  0.4802850000000 1.0
C      1  0.4869810000000  0.4875800000000  0.4824680000000 1.0
C      1  0.4899810000000  0.5687230000000  0.5483640000000 1.0
C      1  0.5611670000000  0.4687490000000  0.5529200000000 1.0
C      1  0.4387960000000  0.4625950000000  0.5564280000000 1.0
C      1  0.4598680000000  0.4500000000000  0.4549450000000 1.0
C      1  0.4657150000000  0.5605500000000  0.4520590000000 1.0
C      1  0.5660570000000  0.4972810000000  0.4516650000000 1.0
C      1  0.5292440000000  0.5679570000000  0.5182020000000 1.0
C      1  0.5462770000000  0.4409370000000  0.5140560000000 1.0
C      1  0.4254030000000  0.4949920000000  0.5181220000000 1.0
C      1  0.6035860000000  0.4872350000000  0.5222140000000 1.0
C      1  0.4361530000000  0.4165800000000  0.5223740000000 1.0
C      1  0.4637140000000  0.5930610000000  0.5095050000000 1.0
C      1  0.4934450000000  0.5979570000000  0.4667140000000 1.0
C      1  0.6430360000000  0.4535820000000  0.5083670000000 1.0
C      1  0.3885090000000  0.3948330000000  0.5106850000000 1.0
C      1  0.4935780000000  0.4204290000000  0.4814120000000 1.0
C      1  0.4553300000000  0.5232740000000  0.4859240000000 1.0
C      1  0.5755580000000  0.5392640000000  0.4830350000000 1.0
C      1  0.4731260000000  0.4232370000000  0.5357340000000 1.0
C      1  0.4431970000000  0.5565740000000  0.5361540000000 1.0
C      1  0.5815940000000  0.5169310000000  0.5371390000000 1.0
C      1  0.4840720000000  0.5321440000000  0.4473890000000 1.0
C      1  0.5473730000000  0.5247750000000  0.4591490000000 1.0
C      1  0.4932390000000  0.4544440000000  0.4611030000000 1.0
C      1  0.4195120000000  0.5202590000000  0.5032360000000 1.0
C      1  0.5553760000000  0.5635760000000  0.5069040000000 1.0
C      1  0.5267490000000  0.4232150000000  0.5025240000000 1.0
C      1  0.5557670000000  0.4414250000000  0.5408960000000 1.0
C      1  0.4211990000000  0.4852100000000  0.5447780000000 1.0
C      1  0.5199360000000  0.5760720000000  0.5438560000000 1.0
C      1  0.5356430000000  0.5255250000000  0.5190600000000 1.0
C      1  0.5036390000000  0.4600740000000  0.5216110000000 1.0
C      1  0.4644250000000  0.5130840000000  0.5388930000000 1.0
C      1  0.5464060000000  0.4755540000000  0.5829050000000 1.0
C      1  0.4465620000000  0.4648990000000  0.5895070000000 1.0
C      1  0.4845920000000  0.5445950000000  0.5718100000000 1.0
C      1  0.4632560000000  0.5132830000000  0.5107310000000 1.0
C      1  0.5444250000000  0.5277790000000  0.4928900000000 1.0
C      1  0.5004090000000  0.4520180000000  0.4943590000000 1.0
C      1  0.5230600000000  0.4295210000000  0.4704830000000 1.0
C      1  0.4289770000000  0.5155240000000  0.4727100000000 1.0
C      1  0.5537700000000  0.5623990000000  0.4753450000000 1.0
END
