TITL C-2782232-2968-174 0.00247982432482263 125000 -975.420926774277 0 0 169 (C1) n - 1
REM
REM in /home/nfs/bkarasulu/CARBON/AIRSS/Generating-Clusters/REBO/Higher-Symm/SD-CG/HFTN-CG
REM
REM
REM
REM
REM
REM ./C.cell (12c818d87b63d06a65506943cc24bca4)
REM
REM compiler GCC version 9.2.1 20190827 (Red Hat 9.2.1-1)
REM options -cpp -mtune=generic -march=x86-64 -g -O0 -fpre-include=/usr/include/finclude/math-vector-fortran.h
REM seed -1637268607 896112048 -704155781 -1946787302 -929777886 1436549083 1774817156 -212590791 679364041 212223118 -1803199530 891862009 -16114801 -436853881 -1925304849 -1850717267 -1203329108 1673869914 -1151728539 625208881 841282246 1835397441 -166714030 -1187910420 2111977627 1589470495 629652872 2034247693 -285723631 456339233 527818791 1839709558 1575779987
REM
CELL 1.54180   50.00000   50.00000   50.00000   90.00000   90.00000   90.00000
LATT -1
SFAC C  
C      1  0.5116050000000  0.5382080000000  0.4900000000000 1.0
C      1  0.5185150000000  0.5046290000000  0.4592170000000 1.0
C      1  0.5273120000000  0.4647810000000  0.4815200000000 1.0
C      1  0.5145780000000  0.4824160000000  0.5313780000000 1.0
C      1  0.5169350000000  0.5326640000000  0.5306660000000 1.0
C      1  0.4096910000000  0.4822090000000  0.4277880000000 1.0
C      1  0.4054080000000  0.4241210000000  0.4967090000000 1.0
C      1  0.4163040000000  0.4716470000000  0.5699560000000 1.0
C      1  0.4087640000000  0.5602890000000  0.5494590000000 1.0
C      1  0.4047610000000  0.5637530000000  0.4577760000000 1.0
C      1  0.4187950000000  0.5294850000000  0.5415870000000 1.0
C      1  0.4153620000000  0.5491280000000  0.4857910000000 1.0
C      1  0.4174070000000  0.5001790000000  0.4534720000000 1.0
C      1  0.4154850000000  0.4529310000000  0.4834910000000 1.0
C      1  0.4216630000000  0.4714550000000  0.5383800000000 1.0
C      1  0.4616020000000  0.4099890000000  0.4563180000000 1.0
C      1  0.4562710000000  0.4275920000000  0.5675610000000 1.0
C      1  0.4644990000000  0.5415890000000  0.5881730000000 1.0
C      1  0.4621740000000  0.5993410000000  0.4851920000000 1.0
C      1  0.4584710000000  0.5143810000000  0.4044570000000 1.0
C      1  0.5120320000000  0.5119690000000  0.4003780000000 1.0
C      1  0.5108770000000  0.4015750000000  0.4491720000000 1.0
C      1  0.5093270000000  0.4220250000000  0.5774030000000 1.0
C      1  0.5134650000000  0.5460360000000  0.5989330000000 1.0
C      1  0.5141380000000  0.6049340000000  0.4834290000000 1.0
C      1  0.4034750000000  0.4628340000000  0.4554230000000 1.0
C      1  0.4092000000000  0.4464260000000  0.5223620000000 1.0
C      1  0.4104360000000  0.5037660000000  0.5590250000000 1.0
C      1  0.4079450000000  0.5577380000000  0.5155100000000 1.0
C      1  0.4076820000000  0.5303690000000  0.4514460000000 1.0
C      1  0.4960780000000  0.4284480000000  0.4644160000000 1.0
C      1  0.4960930000000  0.4469670000000  0.5591120000000 1.0
C      1  0.5021580000000  0.5423000000000  0.5667730000000 1.0
C      1  0.4991390000000  0.5744290000000  0.4790870000000 1.0
C      1  0.4943500000000  0.5011700000000  0.4278730000000 1.0
C      1  0.4624000000000  0.5108600000000  0.5802400000000 1.0
C      1  0.4585790000000  0.5840770000000  0.5140450000000 1.0
C      1  0.4559710000000  0.5385950000000  0.4258930000000 1.0
C      1  0.4502790000000  0.4375430000000  0.4440070000000 1.0
C      1  0.4569710000000  0.4216900000000  0.5364460000000 1.0
C      1  0.5912740000000  0.4541710000000  0.5593690000000 1.0
C      1  0.5926550000000  0.5416290000000  0.5658200000000 1.0
C      1  0.5939260000000  0.5753030000000  0.4820830000000 1.0
C      1  0.5961430000000  0.5066900000000  0.4273030000000 1.0
C      1  0.5873850000000  0.4319400000000  0.4787490000000 1.0
C      1  0.5725500000000  0.4693800000000  0.4604830000000 1.0
C      1  0.5638510000000  0.4567210000000  0.5256820000000 1.0
C      1  0.5644410000000  0.5089500000000  0.5481010000000 1.0
C      1  0.5640690000000  0.5500710000000  0.5093950000000 1.0
C      1  0.5687370000000  0.5243890000000  0.4561060000000 1.0
C      1  0.4939650000000  0.5151740000000  0.5830850000000 1.0
C      1  0.4908630000000  0.5849370000000  0.5087260000000 1.0
C      1  0.4878460000000  0.5325130000000  0.4243820000000 1.0
C      1  0.4809570000000  0.4446430000000  0.4403490000000 1.0
C      1  0.4872560000000  0.4175100000000  0.5445130000000 1.0
C      1  0.5379430000000  0.4201910000000  0.5587920000000 1.0
C      1  0.5375010000000  0.5237300000000  0.5893830000000 1.0
C      1  0.5396420000000  0.5968560000000  0.5045500000000 1.0
C      1  0.5388890000000  0.5297500000000  0.4117800000000 1.0
C      1  0.5299870000000  0.4296120000000  0.4432320000000 1.0
C      1  0.4753910000000  0.4669710000000  0.4708640000000 1.0
C      1  0.4789270000000  0.4673150000000  0.5191160000000 1.0
C      1  0.4703790000000  0.5141430000000  0.5354300000000 1.0
C      1  0.4650860000000  0.5425990000000  0.5017300000000 1.0
C      1  0.4707630000000  0.5188430000000  0.4634030000000 1.0
C      1  0.5684240000000  0.4653800000000  0.5775980000000 1.0
C      1  0.5682850000000  0.5606160000000  0.5614370000000 1.0
C      1  0.5699990000000  0.5763820000000  0.4618150000000 1.0
C      1  0.5740800000000  0.4863180000000  0.4164900000000 1.0
C      1  0.5609260000000  0.4262610000000  0.4865380000000 1.0
C      1  0.5195060000000  0.5835490000000  0.4352800000000 1.0
C      1  0.5192980000000  0.4622360000000  0.4005720000000 1.0
C      1  0.5145160000000  0.4081310000000  0.5107010000000 1.0
C      1  0.5147700000000  0.4662480000000  0.5922760000000 1.0
C      1  0.5208020000000  0.5864870000000  0.5638380000000 1.0
C      1  0.4704040000000  0.4764290000000  0.6287430000000 1.0
C      1  0.4786260000000  0.6054000000000  0.5609200000000 1.0
C      1  0.4777340000000  0.5880460000000  0.4164770000000 1.0
C      1  0.4728960000000  0.4407580000000  0.3768080000000 1.0
C      1  0.4834060000000  0.3587590000000  0.5182060000000 1.0
C      1  0.5093940000000  0.4318420000000  0.4938020000000 1.0
C      1  0.5150800000000  0.4712830000000  0.5586010000000 1.0
C      1  0.5230720000000  0.5569720000000  0.5480550000000 1.0
C      1  0.5184570000000  0.5619970000000  0.4587600000000 1.0
C      1  0.5178460000000  0.4807470000000  0.4253660000000 1.0
C      1  0.4836270000000  0.4961850000000  0.3901110000000 1.0
C      1  0.4868810000000  0.3900180000000  0.4686330000000 1.0
C      1  0.4799870000000  0.4314320000000  0.5918110000000 1.0
C      1  0.4873610000000  0.5660130000000  0.5949650000000 1.0
C      1  0.4873250000000  0.6092660000000  0.4641690000000 1.0
C      1  0.4547940000000  0.5557900000000  0.4552560000000 1.0
C      1  0.4518050000000  0.4720060000000  0.4398130000000 1.0
C      1  0.4562820000000  0.4308630000000  0.5038400000000 1.0
C      1  0.4566520000000  0.4825760000000  0.5621720000000 1.0
C      1  0.4577220000000  0.5610350000000  0.5391500000000 1.0
C      1  0.4967610000000  0.5081140000000  0.5339870000000 1.0
C      1  0.4913270000000  0.5405990000000  0.5107590000000 1.0
C      1  0.5006770000000  0.5258290000000  0.4661150000000 1.0
C      1  0.5067190000000  0.4776550000000  0.4630500000000 1.0
C      1  0.5062310000000  0.4610260000000  0.5078980000000 1.0
C      1  0.6043370000000  0.5309330000000  0.5423870000000 1.0
C      1  0.6057620000000  0.5500470000000  0.4870260000000 1.0
C      1  0.6068910000000  0.5020750000000  0.4530910000000 1.0
C      1  0.6005750000000  0.4561630000000  0.4856120000000 1.0
C      1  0.6023620000000  0.4718340000000  0.5407550000000 1.0
C      1  0.5352970000000  0.5857520000000  0.5341010000000 1.0
C      1  0.5365280000000  0.5552810000000  0.4307030000000 1.0
C      1  0.5383780000000  0.4544750000000  0.4271920000000 1.0
C      1  0.5371150000000  0.4131350000000  0.5275580000000 1.0
C      1  0.5279030000000  0.4934060000000  0.5811710000000 1.0
C      1  0.4965760000000  0.5913510000000  0.5777170000000 1.0
C      1  0.4962470000000  0.5995670000000  0.4345650000000 1.0
C      1  0.4929800000000  0.4672070000000  0.3841160000000 1.0
C      1  0.4956550000000  0.3844900000000  0.4995810000000 1.0
C      1  0.4888080000000  0.4579770000000  0.6069070000000 1.0
C      1  0.5953460000000  0.5214920000000  0.4743660000000 1.0
C      1  0.6024130000000  0.4756020000000  0.4629950000000 1.0
C      1  0.5905730000000  0.4708900000000  0.5100660000000 1.0
C      1  0.5920050000000  0.5020890000000  0.5348020000000 1.0
C      1  0.5917910000000  0.5346740000000  0.5118110000000 1.0
C      1  0.4682190000000  0.4580440000000  0.5727630000000 1.0
C      1  0.4743850000000  0.5615700000000  0.5630310000000 1.0
C      1  0.4716880000000  0.5787150000000  0.4602290000000 1.0
C      1  0.4671390000000  0.4852710000000  0.4187460000000 1.0
C      1  0.4736690000000  0.4154280000000  0.4870120000000 1.0
C      1  0.4004980000000  0.5246340000000  0.5133140000000 1.0
C      1  0.3982710000000  0.5196800000000  0.4822850000000 1.0
C      1  0.3970640000000  0.4877620000000  0.4775650000000 1.0
C      1  0.3995450000000  0.4738070000000  0.5054640000000 1.0
C      1  0.4014240000000  0.4965880000000  0.5274550000000 1.0
C      1  0.4521700000000  0.4789910000000  0.5300910000000 1.0
C      1  0.4494610000000  0.5313890000000  0.5367370000000 1.0
C      1  0.4458860000000  0.5458810000000  0.4829320000000 1.0
C      1  0.4470680000000  0.4943140000000  0.4637880000000 1.0
C      1  0.4473840000000  0.4547210000000  0.4861860000000 1.0
C      1  0.5467670000000  0.5112380000000  0.4731290000000 1.0
C      1  0.5530540000000  0.4819770000000  0.4818320000000 1.0
C      1  0.5441420000000  0.4797600000000  0.5145300000000 1.0
C      1  0.5424310000000  0.5106100000000  0.5261220000000 1.0
C      1  0.5412390000000  0.5299480000000  0.4990770000000 1.0
C      1  0.5609990000000  0.5307160000000  0.5734320000000 1.0
C      1  0.5621330000000  0.5801420000000  0.4939340000000 1.0
C      1  0.5639110000000  0.5174110000000  0.4231020000000 1.0
C      1  0.5355040000000  0.4350760000000  0.4725880000000 1.0
C      1  0.5595650000000  0.4416430000000  0.5559930000000 1.0
C      1  0.4247530000000  0.4528410000000  0.4321520000000 1.0
C      1  0.4293560000000  0.4204590000000  0.5197490000000 1.0
C      1  0.4333390000000  0.4974670000000  0.5820180000000 1.0
C      1  0.4305130000000  0.5777870000000  0.5300360000000 1.0
C      1  0.4280030000000  0.5515960000000  0.4363040000000 1.0
C      1  0.5576690000000  0.4909590000000  0.5733930000000 1.0
C      1  0.5596840000000  0.5668230000000  0.5356700000000 1.0
C      1  0.5623160000000  0.5539220000000  0.4472450000000 1.0
C      1  0.5647530000000  0.4660980000000  0.4335440000000 1.0
C      1  0.5572500000000  0.4278850000000  0.5144440000000 1.0
C      1  0.5128330000000  0.3974090000000  0.5551380000000 1.0
C      1  0.5130250000000  0.5145600000000  0.6115770000000 1.0
C      1  0.5109780000000  0.6116100000000  0.5159820000000 1.0
C      1  0.5102330000000  0.5454720000000  0.4022750000000 1.0
C      1  0.5026170000000  0.4233260000000  0.4254170000000 1.0
C      1  0.4893720000000  0.4923580000000  0.6081620000000 1.0
C      1  0.4843950000000  0.6062440000000  0.5347380000000 1.0
C      1  0.4828060000000  0.5626900000000  0.4090210000000 1.0
C      1  0.4849910000000  0.4429010000000  0.4067320000000 1.0
C      1  0.4917770000000  0.3855330000000  0.5337260000000 1.0
C      1  0.5892170000000  0.5029050000000  0.5016290000000 1.0
C      1  0.4801990000000  0.4968200000000  0.4857440000000 1.0
C      1  0.4514670000000  0.4853980000000  0.4966950000000 1.0
C      1  0.5054250000000  0.4993480000000  0.4965600000000 1.0
END
