TITL C-2782234-8014-739 8.69050114968826e-05 125000 -652.569418175586 0 0 112 (C1) n - 1
REM
REM in /home/nfs/bkarasulu/CARBON/AIRSS/Generating-Clusters/REBO/Higher-Symm/SD-CG/HFTN-CG
REM
REM
REM
REM
REM
REM ./C.cell (12c818d87b63d06a65506943cc24bca4)
REM
REM compiler GCC version 9.2.1 20190827 (Red Hat 9.2.1-1)
REM options -cpp -mtune=generic -march=x86-64 -g -O0 -fpre-include=/usr/include/finclude/math-vector-fortran.h
REM seed 209430225 713379069 1001969241 -2065371964 706354420 -1438676482 2042557873 -1360337260 -787062498 991408428 1867424722 183191512 -1158423323 616199477 -1417731517 -922171518 394079204 789838738 -1412772569 -2045524204 -1601536249 -765936139 325181902 113314421 -1266254302 1230808177 -780515829 426039557 1787051592 -251260671 -506430711 -105316947 559803222
REM
CELL 1.54180   50.00000   50.00000   50.00000   90.00000   90.00000   90.00000
LATT -1
SFAC C  
C      1  0.5746190000000  0.4524950000000  0.4804420000000 1.0
C      1  0.5429650000000  0.5761510000000  0.5394230000000 1.0
C      1  0.5001200000000  0.5456530000000  0.4358770000000 1.0
C      1  0.4867970000000  0.5074240000000  0.4034710000000 1.0
C      1  0.5328180000000  0.4175260000000  0.5222290000000 1.0
C      1  0.5533080000000  0.4966870000000  0.5662540000000 1.0
C      1  0.5344900000000  0.4779960000000  0.5469040000000 1.0
C      1  0.5614570000000  0.4749760000000  0.5301540000000 1.0
C      1  0.4324770000000  0.4417010000000  0.5328380000000 1.0
C      1  0.4702380000000  0.4344090000000  0.4262710000000 1.0
C      1  0.5717180000000  0.5375620000000  0.5352260000000 1.0
C      1  0.5066170000000  0.5485220000000  0.3849290000000 1.0
C      1  0.4431160000000  0.5546490000000  0.5186250000000 1.0
C      1  0.4489050000000  0.4230120000000  0.5090580000000 1.0
C      1  0.4779130000000  0.4661560000000  0.5071210000000 1.0
C      1  0.5362620000000  0.4716970000000  0.5075730000000 1.0
C      1  0.5583000000000  0.5436400000000  0.4202400000000 1.0
C      1  0.4916690000000  0.4320430000000  0.4529990000000 1.0
C      1  0.4281750000000  0.5293220000000  0.5237710000000 1.0
C      1  0.5222120000000  0.4711390000000  0.4129900000000 1.0
C      1  0.5302810000000  0.5199110000000  0.5322110000000 1.0
C      1  0.5148660000000  0.5073230000000  0.5669840000000 1.0
C      1  0.4591470000000  0.4959460000000  0.5851130000000 1.0
C      1  0.5057560000000  0.5865230000000  0.5006870000000 1.0
C      1  0.5071600000000  0.4645910000000  0.5032090000000 1.0
C      1  0.5629550000000  0.5265270000000  0.5660030000000 1.0
C      1  0.5465940000000  0.5756040000000  0.5676480000000 1.0
C      1  0.4490380000000  0.4276160000000  0.4753260000000 1.0
C      1  0.5088830000000  0.4542370000000  0.4352730000000 1.0
C      1  0.4955750000000  0.5324420000000  0.4911970000000 1.0
C      1  0.5510200000000  0.5474260000000  0.5823340000000 1.0
C      1  0.4144940000000  0.4654770000000  0.5272780000000 1.0
C      1  0.4274500000000  0.5139240000000  0.4991100000000 1.0
C      1  0.4226980000000  0.5126220000000  0.4338240000000 1.0
C      1  0.4525110000000  0.4252960000000  0.4491980000000 1.0
C      1  0.4717590000000  0.4581480000000  0.4106230000000 1.0
C      1  0.4977530000000  0.5332090000000  0.4062130000000 1.0
C      1  0.4547440000000  0.5038810000000  0.4872450000000 1.0
C      1  0.4214350000000  0.5510160000000  0.4753660000000 1.0
C      1  0.5510630000000  0.4459320000000  0.5641320000000 1.0
C      1  0.5330970000000  0.4993120000000  0.4240540000000 1.0
C      1  0.4548180000000  0.4212400000000  0.5483150000000 1.0
C      1  0.4898580000000  0.5163310000000  0.5178490000000 1.0
C      1  0.4656730000000  0.5673910000000  0.4725530000000 1.0
C      1  0.5082880000000  0.4941150000000  0.4758980000000 1.0
C      1  0.5404220000000  0.4488620000000  0.4406670000000 1.0
C      1  0.4488880000000  0.4703590000000  0.4508970000000 1.0
C      1  0.4669870000000  0.4988760000000  0.5544020000000 1.0
C      1  0.5694140000000  0.4806450000000  0.4690500000000 1.0
C      1  0.5217890000000  0.4956260000000  0.5907430000000 1.0
C      1  0.5219750000000  0.4481280000000  0.5782830000000 1.0
C      1  0.5555980000000  0.4451270000000  0.5048140000000 1.0
C      1  0.4785320000000  0.5398800000000  0.5858450000000 1.0
C      1  0.5207950000000  0.5446730000000  0.5291210000000 1.0
C      1  0.4200430000000  0.5132550000000  0.5473240000000 1.0
C      1  0.4512180000000  0.4535460000000  0.4960120000000 1.0
C      1  0.4657410000000  0.5610790000000  0.5380500000000 1.0
C      1  0.5518120000000  0.5191470000000  0.4106300000000 1.0
C      1  0.5227010000000  0.5630800000000  0.5854920000000 1.0
C      1  0.4751700000000  0.4609700000000  0.4554340000000 1.0
C      1  0.4655630000000  0.4501470000000  0.5331840000000 1.0
C      1  0.4260250000000  0.5317500000000  0.4559010000000 1.0
C      1  0.4855880000000  0.4830030000000  0.6021110000000 1.0
C      1  0.5394230000000  0.4196420000000  0.4902680000000 1.0
C      1  0.5381080000000  0.4938470000000  0.4743780000000 1.0
C      1  0.5403550000000  0.5034540000000  0.5130170000000 1.0
C      1  0.5676650000000  0.4355990000000  0.4556150000000 1.0
C      1  0.4965720000000  0.5039830000000  0.5465520000000 1.0
C      1  0.4075950000000  0.4994030000000  0.4790980000000 1.0
C      1  0.5140400000000  0.5559130000000  0.4980410000000 1.0
C      1  0.5487820000000  0.5578180000000  0.4428400000000 1.0
C      1  0.5579210000000  0.5582430000000  0.5231550000000 1.0
C      1  0.5610280000000  0.5524880000000  0.4678720000000 1.0
C      1  0.5130300000000  0.5907010000000  0.4534040000000 1.0
C      1  0.5092210000000  0.4194010000000  0.4737400000000 1.0
C      1  0.5089170000000  0.5128560000000  0.4387070000000 1.0
C      1  0.5450050000000  0.5514370000000  0.4962580000000 1.0
C      1  0.4491640000000  0.4957270000000  0.4316630000000 1.0
C      1  0.4822350000000  0.4951520000000  0.4966080000000 1.0
C      1  0.5683380000000  0.4687590000000  0.5689510000000 1.0
C      1  0.4004750000000  0.5085210000000  0.4181950000000 1.0
C      1  0.5121420000000  0.5776490000000  0.5313520000000 1.0
C      1  0.4433440000000  0.5621450000000  0.4903440000000 1.0
C      1  0.5511210000000  0.4358100000000  0.5375650000000 1.0
C      1  0.4572260000000  0.5353470000000  0.5673770000000 1.0
C      1  0.5391680000000  0.4195890000000  0.4580150000000 1.0
C      1  0.4576330000000  0.5229430000000  0.4501140000000 1.0
C      1  0.5783260000000  0.5272640000000  0.4717970000000 1.0
C      1  0.5899960000000  0.5033750000000  0.4655680000000 1.0
C      1  0.5467250000000  0.4795130000000  0.4451850000000 1.0
C      1  0.4250960000000  0.4691040000000  0.5013050000000 1.0
C      1  0.4352360000000  0.5159670000000  0.5713740000000 1.0
C      1  0.4869160000000  0.5177500000000  0.4640650000000 1.0
C      1  0.4886010000000  0.5717120000000  0.5507060000000 1.0
C      1  0.4814770000000  0.5154700000000  0.6018060000000 1.0
C      1  0.5875970000000  0.5126910000000  0.5478740000000 1.0
C      1  0.5031690000000  0.4182730000000  0.5061190000000 1.0
C      1  0.5053570000000  0.6002930000000  0.4777870000000 1.0
C      1  0.4731770000000  0.5522140000000  0.4505730000000 1.0
C      1  0.5513020000000  0.5200890000000  0.4887470000000 1.0
C      1  0.4969990000000  0.4392430000000  0.5323460000000 1.0
C      1  0.4969930000000  0.4824680000000  0.4483020000000 1.0
C      1  0.4958200000000  0.5608180000000  0.5767400000000 1.0
C      1  0.4695180000000  0.4867070000000  0.4111960000000 1.0
C      1  0.5113560000000  0.4680730000000  0.5967420000000 1.0
C      1  0.4761260000000  0.4131000000000  0.5230600000000 1.0
C      1  0.4078830000000  0.4881120000000  0.5421160000000 1.0
C      1  0.5156690000000  0.4554670000000  0.5484550000000 1.0
C      1  0.4353440000000  0.4895300000000  0.4686490000000 1.0
C      1  0.5214640000000  0.5665150000000  0.4418450000000 1.0
C      1  0.5852790000000  0.4845670000000  0.5455470000000 1.0
C      1  0.4667130000000  0.5283050000000  0.5369680000000 1.0
END
