TITL C-2782232-2968-1146 0.00188449827738376 125000 -1141.91354606147 0 0 197 (C1) n - 1
REM
REM in /home/nfs/bkarasulu/CARBON/AIRSS/Generating-Clusters/REBO/Higher-Symm/SD-CG/HFTN-CG
REM
REM
REM
REM
REM
REM ./C.cell (12c818d87b63d06a65506943cc24bca4)
REM
REM compiler GCC version 9.2.1 20190827 (Red Hat 9.2.1-1)
REM options -cpp -mtune=generic -march=x86-64 -g -O0 -fpre-include=/usr/include/finclude/math-vector-fortran.h
REM seed -422558692 972302986 -1948655144 -1679809380 -2067147825 1590553195 -1243430222 1979035271 -2145396383 -1542121194 303341980 1986536451 1843592903 -1076137362 -874627669 -208951535 1256232204 -719668022 1383643737 323110952 1848703904 -62223158 1966284047 -499205386 1107863594 263040995 572854748 1724911770 1229006924 -1166925102 -1285669956 1101873754 -1409557208
REM
CELL 1.54180   50.00000   50.00000   50.00000   90.00000   90.00000   90.00000
LATT -1
SFAC C  
C      1  0.5417850000000  0.4713640000000  0.3994600000000 1.0
C      1  0.5449820000000  0.4623120000000  0.6035730000000 1.0
C      1  0.5889490000000  0.4353190000000  0.5246210000000 1.0
C      1  0.5900350000000  0.4273210000000  0.4780390000000 1.0
C      1  0.4408930000000  0.5896790000000  0.4787640000000 1.0
C      1  0.4444590000000  0.5951310000000  0.5147920000000 1.0
C      1  0.5016020000000  0.5245990000000  0.4624970000000 1.0
C      1  0.5100650000000  0.5277260000000  0.5445200000000 1.0
C      1  0.4986210000000  0.4892170000000  0.5765330000000 1.0
C      1  0.4882650000000  0.4966050000000  0.4237600000000 1.0
C      1  0.4691190000000  0.4515580000000  0.4452720000000 1.0
C      1  0.4690120000000  0.4500340000000  0.5561210000000 1.0
C      1  0.5404620000000  0.4407760000000  0.4767550000000 1.0
C      1  0.5395470000000  0.4415370000000  0.5237870000000 1.0
C      1  0.5692420000000  0.5874180000000  0.5146630000000 1.0
C      1  0.5641950000000  0.5774960000000  0.4836990000000 1.0
C      1  0.4162060000000  0.5555480000000  0.4433420000000 1.0
C      1  0.4157940000000  0.5554750000000  0.5408690000000 1.0
C      1  0.5427560000000  0.4300710000000  0.4279060000000 1.0
C      1  0.5426980000000  0.4258330000000  0.5707560000000 1.0
C      1  0.4048180000000  0.4716450000000  0.5310510000000 1.0
C      1  0.4101120000000  0.4715980000000  0.4692520000000 1.0
C      1  0.5357920000000  0.5966480000000  0.5722270000000 1.0
C      1  0.5286480000000  0.5872450000000  0.4298640000000 1.0
C      1  0.5803910000000  0.5041620000000  0.5611950000000 1.0
C      1  0.5836410000000  0.5063720000000  0.4365410000000 1.0
C      1  0.5098720000000  0.6070430000000  0.5191340000000 1.0
C      1  0.5085410000000  0.6064420000000  0.4854340000000 1.0
C      1  0.4740430000000  0.5390430000000  0.4501210000000 1.0
C      1  0.4811990000000  0.5405440000000  0.5571550000000 1.0
C      1  0.5132090000000  0.6102110000000  0.5499850000000 1.0
C      1  0.5078540000000  0.6035500000000  0.4514590000000 1.0
C      1  0.5211160000000  0.4470920000000  0.6056340000000 1.0
C      1  0.5180310000000  0.4580000000000  0.3925960000000 1.0
C      1  0.5745230000000  0.5558070000000  0.5152490000000 1.0
C      1  0.5701450000000  0.5461430000000  0.4838030000000 1.0
C      1  0.4551290000000  0.5542450000000  0.5841410000000 1.0
C      1  0.4566060000000  0.5516280000000  0.4093930000000 1.0
C      1  0.5748820000000  0.4733150000000  0.4358450000000 1.0
C      1  0.5744780000000  0.4707020000000  0.5649360000000 1.0
C      1  0.5371890000000  0.4491640000000  0.5532510000000 1.0
C      1  0.5378000000000  0.4517740000000  0.4480440000000 1.0
C      1  0.3942970000000  0.5220480000000  0.4510990000000 1.0
C      1  0.4070860000000  0.5253250000000  0.5377800000000 1.0
C      1  0.5257480000000  0.4046840000000  0.5186090000000 1.0
C      1  0.5234660000000  0.4047110000000  0.4861700000000 1.0
C      1  0.5220410000000  0.5540050000000  0.4360960000000 1.0
C      1  0.5279610000000  0.5632870000000  0.5712450000000 1.0
C      1  0.4205220000000  0.5111900000000  0.5616790000000 1.0
C      1  0.4172010000000  0.5088040000000  0.4349710000000 1.0
C      1  0.5490260000000  0.5392330000000  0.4461470000000 1.0
C      1  0.5524690000000  0.5461170000000  0.5573290000000 1.0
C      1  0.5224100000000  0.5652080000000  0.4890190000000 1.0
C      1  0.5226640000000  0.5693720000000  0.5214280000000 1.0
C      1  0.5633130000000  0.5770690000000  0.5670270000000 1.0
C      1  0.5560740000000  0.5728980000000  0.4439400000000 1.0
C      1  0.4936410000000  0.4756130000000  0.6135390000000 1.0
C      1  0.4868430000000  0.4822800000000  0.3867120000000 1.0
C      1  0.4182040000000  0.5153330000000  0.4743240000000 1.0
C      1  0.4177770000000  0.5142550000000  0.5068190000000 1.0
C      1  0.5697980000000  0.4662120000000  0.4671840000000 1.0
C      1  0.5688390000000  0.4771810000000  0.5332910000000 1.0
C      1  0.5647170000000  0.5474570000000  0.4157050000000 1.0
C      1  0.5667690000000  0.5463730000000  0.5890960000000 1.0
C      1  0.4717000000000  0.4554460000000  0.3865800000000 1.0
C      1  0.4755060000000  0.4515610000000  0.6108920000000 1.0
C      1  0.5072780000000  0.5250230000000  0.6022440000000 1.0
C      1  0.5035370000000  0.5335340000000  0.3984860000000 1.0
C      1  0.4877560000000  0.5026020000000  0.5470400000000 1.0
C      1  0.4873070000000  0.4798190000000  0.4521860000000 1.0
C      1  0.4957290000000  0.5089090000000  0.3864400000000 1.0
C      1  0.5047650000000  0.5010930000000  0.6154550000000 1.0
C      1  0.3816780000000  0.5278160000000  0.5152190000000 1.0
C      1  0.3815270000000  0.5282210000000  0.4820810000000 1.0
C      1  0.4549330000000  0.4964350000000  0.4686850000000 1.0
C      1  0.4494250000000  0.4980380000000  0.5378670000000 1.0
C      1  0.6173120000000  0.5209580000000  0.5184500000000 1.0
C      1  0.6161250000000  0.5149710000000  0.4843660000000 1.0
C      1  0.4483160000000  0.5189250000000  0.4448800000000 1.0
C      1  0.4497940000000  0.5276860000000  0.5547770000000 1.0
C      1  0.5218220000000  0.4058270000000  0.5659980000000 1.0
C      1  0.5217880000000  0.4098540000000  0.4294740000000 1.0
C      1  0.4745590000000  0.4653820000000  0.4867940000000 1.0
C      1  0.4717110000000  0.4691860000000  0.5193620000000 1.0
C      1  0.5705170000000  0.5097540000000  0.5302760000000 1.0
C      1  0.5734360000000  0.4993420000000  0.4660330000000 1.0
C      1  0.5635170000000  0.3706260000000  0.5165160000000 1.0
C      1  0.5612410000000  0.3690180000000  0.4888770000000 1.0
C      1  0.5021440000000  0.4595400000000  0.5822230000000 1.0
C      1  0.4964080000000  0.4649240000000  0.4164580000000 1.0
C      1  0.5437460000000  0.4708900000000  0.5168920000000 1.0
C      1  0.5451380000000  0.4709830000000  0.4872770000000 1.0
C      1  0.5265670000000  0.5376660000000  0.5204250000000 1.0
C      1  0.5221960000000  0.5333800000000  0.4875930000000 1.0
C      1  0.4821520000000  0.5314210000000  0.4884840000000 1.0
C      1  0.4782660000000  0.5229220000000  0.5214250000000 1.0
C      1  0.4731400000000  0.5666650000000  0.4425210000000 1.0
C      1  0.4823650000000  0.5688450000000  0.5523070000000 1.0
C      1  0.6007990000000  0.5285050000000  0.5481710000000 1.0
C      1  0.5987840000000  0.5289330000000  0.4577560000000 1.0
C      1  0.5370490000000  0.4967500000000  0.4174990000000 1.0
C      1  0.5409030000000  0.4886180000000  0.5866690000000 1.0
C      1  0.4039990000000  0.5526780000000  0.4745040000000 1.0
C      1  0.4053010000000  0.5520570000000  0.5082940000000 1.0
C      1  0.4640490000000  0.4117080000000  0.4921470000000 1.0
C      1  0.4605650000000  0.4146140000000  0.5243700000000 1.0
C      1  0.4387890000000  0.4914490000000  0.4175010000000 1.0
C      1  0.4440350000000  0.4927830000000  0.5775430000000 1.0
C      1  0.4861790000000  0.5832550000000  0.4781290000000 1.0
C      1  0.4867880000000  0.5836950000000  0.5115770000000 1.0
C      1  0.5113940000000  0.5771220000000  0.5476050000000 1.0
C      1  0.5090330000000  0.5701360000000  0.4596420000000 1.0
C      1  0.5188510000000  0.4861960000000  0.5280660000000 1.0
C      1  0.5292860000000  0.4943420000000  0.4739940000000 1.0
C      1  0.5090290000000  0.4314460000000  0.5313090000000 1.0
C      1  0.5104760000000  0.4305210000000  0.4679120000000 1.0
C      1  0.4723020000000  0.5031770000000  0.5881600000000 1.0
C      1  0.4644240000000  0.5051800000000  0.4109450000000 1.0
C      1  0.4825980000000  0.4377120000000  0.5160440000000 1.0
C      1  0.4853450000000  0.4360830000000  0.4835030000000 1.0
C      1  0.4993400000000  0.4881340000000  0.4794120000000 1.0
C      1  0.4963870000000  0.4878530000000  0.5111610000000 1.0
C      1  0.4184310000000  0.4774930000000  0.5604170000000 1.0
C      1  0.4166460000000  0.4749480000000  0.4386560000000 1.0
C      1  0.5850590000000  0.5550270000000  0.4418910000000 1.0
C      1  0.5899970000000  0.5555930000000  0.5658330000000 1.0
C      1  0.4296270000000  0.4273410000000  0.5286790000000 1.0
C      1  0.4379660000000  0.4259490000000  0.4757960000000 1.0
C      1  0.4788450000000  0.6053200000000  0.4371610000000 1.0
C      1  0.4831620000000  0.6004970000000  0.5634410000000 1.0
C      1  0.5581910000000  0.5150130000000  0.5826660000000 1.0
C      1  0.5608920000000  0.5156850000000  0.4162800000000 1.0
C      1  0.4433830000000  0.4301760000000  0.5566980000000 1.0
C      1  0.4466430000000  0.4295690000000  0.4471460000000 1.0
C      1  0.3923000000000  0.4953660000000  0.4826890000000 1.0
C      1  0.3921350000000  0.4949540000000  0.5167170000000 1.0
C      1  0.5937680000000  0.4638310000000  0.5153540000000 1.0
C      1  0.5953880000000  0.4553800000000  0.4832450000000 1.0
C      1  0.5969800000000  0.4977640000000  0.5147490000000 1.0
C      1  0.5980750000000  0.4882880000000  0.4840920000000 1.0
C      1  0.4241850000000  0.6144900000000  0.4863370000000 1.0
C      1  0.4269300000000  0.6218220000000  0.5125810000000 1.0
C      1  0.4574160000000  0.5885570000000  0.5441280000000 1.0
C      1  0.4564960000000  0.5913260000000  0.4528740000000 1.0
C      1  0.4384630000000  0.4693060000000  0.5265330000000 1.0
C      1  0.4412230000000  0.4700430000000  0.4811880000000 1.0
C      1  0.4940650000000  0.4193980000000  0.4133580000000 1.0
C      1  0.4925030000000  0.4125240000000  0.5808200000000 1.0
C      1  0.4975250000000  0.3958180000000  0.5450920000000 1.0
C      1  0.4950020000000  0.3997960000000  0.4478690000000 1.0
C      1  0.4068030000000  0.4444640000000  0.5144900000000 1.0
C      1  0.4102430000000  0.4436540000000  0.4846500000000 1.0
C      1  0.4485180000000  0.5258700000000  0.4840960000000 1.0
C      1  0.4465680000000  0.5195830000000  0.5159060000000 1.0
C      1  0.5226610000000  0.5086590000000  0.5654560000000 1.0
C      1  0.5132970000000  0.5074760000000  0.4397840000000 1.0
C      1  0.4434090000000  0.5613610000000  0.5568970000000 1.0
C      1  0.4378030000000  0.5449320000000  0.4299180000000 1.0
C      1  0.6019150000000  0.5432910000000  0.4891920000000 1.0
C      1  0.6045360000000  0.5506250000000  0.5223630000000 1.0
C      1  0.5539840000000  0.3934660000000  0.5283100000000 1.0
C      1  0.5506870000000  0.3908480000000  0.4761140000000 1.0
C      1  0.4949910000000  0.4365870000000  0.3886320000000 1.0
C      1  0.4948910000000  0.4292370000000  0.6069920000000 1.0
C      1  0.4686580000000  0.5553510000000  0.5174730000000 1.0
C      1  0.4675870000000  0.5608210000000  0.4852450000000 1.0
C      1  0.4361870000000  0.5572950000000  0.4778420000000 1.0
C      1  0.4364100000000  0.5637250000000  0.5171420000000 1.0
C      1  0.4346790000000  0.4537150000000  0.5761510000000 1.0
C      1  0.4341100000000  0.4504290000000  0.4256780000000 1.0
C      1  0.5614860000000  0.4223010000000  0.5164450000000 1.0
C      1  0.5604770000000  0.4197690000000  0.4853710000000 1.0
C      1  0.5332960000000  0.5371850000000  0.5911920000000 1.0
C      1  0.5329600000000  0.5357360000000  0.4099560000000 1.0
C      1  0.5378950000000  0.5927960000000  0.4750220000000 1.0
C      1  0.5390890000000  0.5956460000000  0.5086270000000 1.0
C      1  0.4499680000000  0.4548990000000  0.5987480000000 1.0
C      1  0.4478670000000  0.4527210000000  0.4020840000000 1.0
C      1  0.4561840000000  0.4800170000000  0.4408480000000 1.0
C      1  0.4655980000000  0.4787380000000  0.5573630000000 1.0
C      1  0.5636040000000  0.4504360000000  0.5827610000000 1.0
C      1  0.5608480000000  0.4560640000000  0.4160070000000 1.0
C      1  0.4965960000000  0.3914870000000  0.5125870000000 1.0
C      1  0.4917210000000  0.3968520000000  0.4792630000000 1.0
C      1  0.4970150000000  0.4376530000000  0.5592580000000 1.0
C      1  0.4983940000000  0.4403700000000  0.4400110000000 1.0
C      1  0.4797590000000  0.5337140000000  0.5890720000000 1.0
C      1  0.4851480000000  0.5539830000000  0.4065470000000 1.0
C      1  0.5566450000000  0.5360040000000  0.5298020000000 1.0
C      1  0.5502110000000  0.5217300000000  0.4730490000000 1.0
C      1  0.4690430000000  0.4081220000000  0.5566500000000 1.0
C      1  0.4692150000000  0.4110000000000  0.4347030000000 1.0
C      1  0.4962730000000  0.5804650000000  0.4212760000000 1.0
C      1  0.5053280000000  0.5997520000000  0.5870470000000 1.0
C      1  0.5312300000000  0.4774530000000  0.5567430000000 1.0
C      1  0.5332340000000  0.4805090000000  0.4456600000000 1.0
C      1  0.4449670000000  0.4447380000000  0.5035890000000 1.0
END
