TITL C-2782233-7966-859 0.000780433116982086 125000 -306.200717425974 0 0 52 (C1) n - 1
REM
REM in /home/nfs/bkarasulu/CARBON/AIRSS/Generating-Clusters/REBO/Higher-Symm/SD-CG/HFTN-CG
REM
REM
REM
REM
REM
REM ./C.cell (12c818d87b63d06a65506943cc24bca4)
REM
REM compiler GCC version 9.2.1 20190827 (Red Hat 9.2.1-1)
REM options -cpp -mtune=generic -march=x86-64 -g -O0 -fpre-include=/usr/include/finclude/math-vector-fortran.h
REM seed -1245732437 -830727988 -1080362157 -2091910834 -1431803092 -348508879 622884221 986036186 -648693103 383955676 -385994322 1786747879 1184430047 1270167910 -1266101118 178106232 -110067811 -1093756755 -607052501 -1086549892 1745688775 -621390388 -130388782 -1105731318 -926530858 -680650025 -1760902536 1239382860 -1762992375 -1689065035 -624489392 1923425240 1448690655
REM
CELL 1.54180   50.00000   50.00000   50.00000   90.00000   90.00000   90.00000
LATT -1
SFAC C  
C      1  0.5397460000000  0.5254120000000  0.4931010000000 1.0
C      1  0.4613240000000  0.4745770000000  0.5072810000000 1.0
C      1  0.4836290000000  0.5394320000000  0.4778880000000 1.0
C      1  0.5189090000000  0.4599120000000  0.5230070000000 1.0
C      1  0.4570500000000  0.5216090000000  0.5284440000000 1.0
C      1  0.5434800000000  0.4786470000000  0.4717740000000 1.0
C      1  0.4996940000000  0.4142610000000  0.5180750000000 1.0
C      1  0.4961980000000  0.5842160000000  0.4816540000000 1.0
C      1  0.5348870000000  0.5206040000000  0.4389830000000 1.0
C      1  0.4652760000000  0.4794960000000  0.5605540000000 1.0
C      1  0.4847770000000  0.5001620000000  0.5623710000000 1.0
C      1  0.5154560000000  0.4999500000000  0.4376380000000 1.0
C      1  0.5050580000000  0.5495310000000  0.4638580000000 1.0
C      1  0.4964740000000  0.4503580000000  0.5349940000000 1.0
C      1  0.4978060000000  0.5618770000000  0.4334050000000 1.0
C      1  0.4994740000000  0.4372290000000  0.5655870000000 1.0
C      1  0.4179250000000  0.5534240000000  0.5262760000000 1.0
C      1  0.5837470000000  0.4482910000000  0.4732930000000 1.0
C      1  0.5675850000000  0.4668390000000  0.4845060000000 1.0
C      1  0.4336730000000  0.5342880000000  0.5155220000000 1.0
C      1  0.5064170000000  0.5726910000000  0.5039640000000 1.0
C      1  0.4917200000000  0.4262240000000  0.4951740000000 1.0
C      1  0.4840630000000  0.4455280000000  0.4758560000000 1.0
C      1  0.5155590000000  0.5543820000000  0.5237070000000 1.0
C      1  0.4893580000000  0.5851660000000  0.4551900000000 1.0
C      1  0.5052510000000  0.4126860000000  0.5447260000000 1.0
C      1  0.4487630000000  0.4817380000000  0.4634200000000 1.0
C      1  0.5514570000000  0.5188590000000  0.5371220000000 1.0
C      1  0.4784120000000  0.5241810000000  0.5478130000000 1.0
C      1  0.5218650000000  0.4761160000000  0.4525930000000 1.0
C      1  0.5384320000000  0.5373540000000  0.5187710000000 1.0
C      1  0.4617010000000  0.4629760000000  0.4814620000000 1.0
C      1  0.4971890000000  0.5448390000000  0.5431620000000 1.0
C      1  0.5030660000000  0.4554710000000  0.4572760000000 1.0
C      1  0.5735720000000  0.5038460000000  0.5259810000000 1.0
C      1  0.4269020000000  0.4970020000000  0.4746700000000 1.0
C      1  0.4631680000000  0.5164510000000  0.4770550000000 1.0
C      1  0.5384620000000  0.4835790000000  0.5235600000000 1.0
C      1  0.4321780000000  0.5230740000000  0.4890070000000 1.0
C      1  0.5694260000000  0.4777990000000  0.5110850000000 1.0
C      1  0.4883840000000  0.5092770000000  0.4323140000000 1.0
C      1  0.5116960000000  0.4903360000000  0.5672270000000 1.0
C      1  0.5141200000000  0.4633490000000  0.5773820000000 1.0
C      1  0.4851840000000  0.5356390000000  0.4206700000000 1.0
C      1  0.5392970000000  0.4978380000000  0.4941870000000 1.0
C      1  0.4614820000000  0.5022010000000  0.5063960000000 1.0
C      1  0.5355800000000  0.5382130000000  0.4677970000000 1.0
C      1  0.4666590000000  0.4614510000000  0.5323380000000 1.0
C      1  0.4673460000000  0.5000650000000  0.4487700000000 1.0
C      1  0.5329930000000  0.5001570000000  0.5515120000000 1.0
C      1  0.4688380000000  0.4474590000000  0.5634180000000 1.0
C      1  0.5292930000000  0.5539420000000  0.4381850000000 1.0
END
