TITL C-2782230-7391-1360 0.0013431466533179 125000 -481.332894126015 0 0 90 (C1) n - 1
REM
REM in /home/nfs/bkarasulu/CARBON/AIRSS/Generating-Clusters/REBO/Higher-Symm/SD-CG/HFTN-CG
REM
REM
REM
REM
REM
REM ./C.cell (12c818d87b63d06a65506943cc24bca4)
REM
REM compiler GCC version 9.2.1 20190827 (Red Hat 9.2.1-1)
REM options -cpp -mtune=generic -march=x86-64 -g -O0 -fpre-include=/usr/include/finclude/math-vector-fortran.h
REM seed 1641962383 1030002080 -850286329 655376847 1986844869 -2134817137 116540964 -205009227 -1354706463 2003561012 -1659953963 895548658 -2075623119 -528927424 1237607271 -747166382 -1017153677 612137521 -911978849 -2125433775 881649390 -571711763 -2031777376 -1798595529 -1344527462 -1182952914 817553658 264242379 -2059090253 -1702445840 530165952 300762557 -1895332297
REM
CELL 1.54180   50.00000   50.00000   50.00000   90.00000   90.00000   90.00000
LATT -1
SFAC C  
C      1  0.4683630000000  0.4552930000000  0.4690610000000 1.0
C      1  0.4676610000000  0.5402720000000  0.5335170000000 1.0
C      1  0.5322190000000  0.5425950000000  0.4606110000000 1.0
C      1  0.5310620000000  0.4495670000000  0.5413310000000 1.0
C      1  0.4899030000000  0.5077420000000  0.4135220000000 1.0
C      1  0.4943480000000  0.4869880000000  0.5875410000000 1.0
C      1  0.5027240000000  0.4869670000000  0.4115280000000 1.0
C      1  0.5074080000000  0.5075870000000  0.5845390000000 1.0
C      1  0.5331940000000  0.5209140000000  0.4270410000000 1.0
C      1  0.5436480000000  0.4761270000000  0.5665640000000 1.0
C      1  0.4525630000000  0.4819000000000  0.4313770000000 1.0
C      1  0.4601140000000  0.5168800000000  0.5779460000000 1.0
C      1  0.4892660000000  0.4887190000000  0.5480060000000 1.0
C      1  0.4914130000000  0.5091330000000  0.4534230000000 1.0
C      1  0.5093690000000  0.5137360000000  0.5442060000000 1.0
C      1  0.5101750000000  0.4828640000000  0.4505680000000 1.0
C      1  0.5000950000000  0.5394810000000  0.5331750000000 1.0
C      1  0.5007410000000  0.4605120000000  0.4682660000000 1.0
C      1  0.4993620000000  0.4606870000000  0.5411390000000 1.0
C      1  0.4993730000000  0.5383040000000  0.4612610000000 1.0
C      1  0.5361850000000  0.5794890000000  0.4956960000000 1.0
C      1  0.5511570000000  0.4264750000000  0.4991720000000 1.0
C      1  0.4469950000000  0.4258730000000  0.5101760000000 1.0
C      1  0.4626360000000  0.5770190000000  0.5014370000000 1.0
C      1  0.4874450000000  0.5844420000000  0.4891700000000 1.0
C      1  0.4859080000000  0.4195110000000  0.5062680000000 1.0
C      1  0.5051860000000  0.4184750000000  0.4860160000000 1.0
C      1  0.5112020000000  0.5853070000000  0.5083370000000 1.0
C      1  0.5657840000000  0.4946520000000  0.4571720000000 1.0
C      1  0.5543290000000  0.5052830000000  0.5418940000000 1.0
C      1  0.4350360000000  0.5074870000000  0.4558300000000 1.0
C      1  0.4289440000000  0.4937130000000  0.5447460000000 1.0
C      1  0.5277650000000  0.5274330000000  0.5670870000000 1.0
C      1  0.5268670000000  0.4694330000000  0.4263020000000 1.0
C      1  0.4724870000000  0.4683060000000  0.5695640000000 1.0
C      1  0.4731830000000  0.5291510000000  0.4326630000000 1.0
C      1  0.4421610000000  0.4747640000000  0.4952810000000 1.0
C      1  0.4376970000000  0.5277940000000  0.4946550000000 1.0
C      1  0.5631850000000  0.5313460000000  0.4990320000000 1.0
C      1  0.5586190000000  0.4763290000000  0.5059310000000 1.0
C      1  0.4140820000000  0.4727640000000  0.5144740000000 1.0
C      1  0.4085130000000  0.5273720000000  0.4777390000000 1.0
C      1  0.5833810000000  0.5274630000000  0.5262620000000 1.0
C      1  0.5851660000000  0.4744040000000  0.4847770000000 1.0
C      1  0.4601590000000  0.5456380000000  0.5050170000000 1.0
C      1  0.4626930000000  0.4488620000000  0.4997220000000 1.0
C      1  0.5387210000000  0.4526660000000  0.5094980000000 1.0
C      1  0.5401710000000  0.5488550000000  0.4892030000000 1.0
C      1  0.4225280000000  0.4962620000000  0.4266950000000 1.0
C      1  0.4312340000000  0.5026200000000  0.5742750000000 1.0
C      1  0.5632370000000  0.5082670000000  0.4296500000000 1.0
C      1  0.5733960000000  0.4922110000000  0.5670110000000 1.0
C      1  0.5125000000000  0.5663820000000  0.4470230000000 1.0
C      1  0.5059660000000  0.4292310000000  0.5520250000000 1.0
C      1  0.4885010000000  0.4330230000000  0.4529740000000 1.0
C      1  0.4846800000000  0.5660000000000  0.5478970000000 1.0
C      1  0.5438970000000  0.5321960000000  0.5252570000000 1.0
C      1  0.5463040000000  0.4735200000000  0.4759290000000 1.0
C      1  0.4518730000000  0.4762190000000  0.5266980000000 1.0
C      1  0.4596180000000  0.5263470000000  0.4700460000000 1.0
C      1  0.4895240000000  0.5445080000000  0.4889860000000 1.0
C      1  0.4900840000000  0.4585640000000  0.5129340000000 1.0
C      1  0.5114850000000  0.4583040000000  0.4954510000000 1.0
C      1  0.5113840000000  0.5453820000000  0.5061270000000 1.0
C      1  0.5205390000000  0.4271140000000  0.4600980000000 1.0
C      1  0.5120560000000  0.5771170000000  0.5370710000000 1.0
C      1  0.4861680000000  0.5758310000000  0.4608040000000 1.0
C      1  0.4794450000000  0.4268200000000  0.5347260000000 1.0
C      1  0.5468310000000  0.5058060000000  0.5810430000000 1.0
C      1  0.5419670000000  0.4933880000000  0.4112050000000 1.0
C      1  0.4547490000000  0.4867000000000  0.5891320000000 1.0
C      1  0.4507130000000  0.5117260000000  0.4190170000000 1.0
C      1  0.5322880000000  0.4825810000000  0.5351250000000 1.0
C      1  0.5368950000000  0.5110250000000  0.4596000000000 1.0
C      1  0.4568090000000  0.5133460000000  0.5443180000000 1.0
C      1  0.4605340000000  0.4859950000000  0.4637000000000 1.0
C      1  0.5714860000000  0.4609470000000  0.4566010000000 1.0
C      1  0.5634220000000  0.5371490000000  0.5521080000000 1.0
C      1  0.4320630000000  0.5416610000000  0.4576180000000 1.0
C      1  0.4269110000000  0.4595350000000  0.5430650000000 1.0
C      1  0.4825610000000  0.5000520000000  0.4856800000000 1.0
C      1  0.4778780000000  0.5032200000000  0.5192950000000 1.0
C      1  0.5163500000000  0.4964650000000  0.4818360000000 1.0
C      1  0.5108360000000  0.4951880000000  0.5149520000000 1.0
C      1  0.4632640000000  0.5550100000000  0.4520370000000 1.0
C      1  0.4594180000000  0.4491320000000  0.5459800000000 1.0
C      1  0.5390720000000  0.4511000000000  0.4512580000000 1.0
C      1  0.5343390000000  0.5552760000000  0.5483810000000 1.0
C      1  0.4194740000000  0.5000260000000  0.4948610000000 1.0
C      1  0.5795300000000  0.5021800000000  0.5037670000000 1.0
END
