TITL C-2782229-3092-408 -0.00325796440638779 125000 -898.682125849618 0 0 155 (C1) n - 1
REM
REM in /home/nfs/bkarasulu/CARBON/AIRSS/Generating-Clusters/REBO/Higher-Symm/SD-CG/HFTN-CG
REM
REM
REM
REM
REM
REM ./C.cell (12c818d87b63d06a65506943cc24bca4)
REM
REM compiler GCC version 9.2.1 20190827 (Red Hat 9.2.1-1)
REM options -cpp -mtune=generic -march=x86-64 -g -O0 -fpre-include=/usr/include/finclude/math-vector-fortran.h
REM seed -506961826 36606428 -485768633 562150850 301109029 368476729 1226361986 62143481 -307429183 -756847779 -1535346651 355806634 -1122061710 -1784057949 -205315408 -1400972251 699889491 97913451 -111254655 -1985113704 -1068802131 -145419032 750749548 1098490947 -540006702 -1364151929 -1295776133 -1228422976 -1321527252 1666409168 1935371286 -1487998685 577757603
REM
CELL 1.54180   50.00000   50.00000   50.00000   90.00000   90.00000   90.00000
LATT -1
SFAC C  
C      1  0.3986770000000  0.4871580000000  0.4980700000000 1.0
C      1  0.6031830000000  0.5203690000000  0.5055870000000 1.0
C      1  0.5160290000000  0.5048570000000  0.5238230000000 1.0
C      1  0.4797110000000  0.4859370000000  0.4633850000000 1.0
C      1  0.4528470000000  0.5677330000000  0.5461860000000 1.0
C      1  0.5522450000000  0.4330820000000  0.4592750000000 1.0
C      1  0.5331090000000  0.6026650000000  0.4809570000000 1.0
C      1  0.4613080000000  0.4054230000000  0.5128640000000 1.0
C      1  0.5047920000000  0.4404110000000  0.4983350000000 1.0
C      1  0.5070210000000  0.5619390000000  0.5130620000000 1.0
C      1  0.5125940000000  0.4838720000000  0.4574220000000 1.0
C      1  0.4862430000000  0.5126240000000  0.5384380000000 1.0
C      1  0.4999980000000  0.4456720000000  0.4126750000000 1.0
C      1  0.4985480000000  0.5432870000000  0.5867930000000 1.0
C      1  0.4463130000000  0.4811720000000  0.5682210000000 1.0
C      1  0.5657330000000  0.5239250000000  0.4289290000000 1.0
C      1  0.5205160000000  0.5836300000000  0.5579420000000 1.0
C      1  0.4755180000000  0.4186490000000  0.4658370000000 1.0
C      1  0.3904210000000  0.5003060000000  0.4740510000000 1.0
C      1  0.6145210000000  0.5073170000000  0.5283640000000 1.0
C      1  0.4351340000000  0.4317380000000  0.5618360000000 1.0
C      1  0.5598760000000  0.5681450000000  0.4392110000000 1.0
C      1  0.5992740000000  0.5486550000000  0.5073170000000 1.0
C      1  0.3957370000000  0.4588380000000  0.4950040000000 1.0
C      1  0.5176950000000  0.4713940000000  0.5560790000000 1.0
C      1  0.4927260000000  0.5302050000000  0.4458560000000 1.0
C      1  0.4449070000000  0.5785420000000  0.4890200000000 1.0
C      1  0.5484880000000  0.4258990000000  0.5137970000000 1.0
C      1  0.5195410000000  0.5210400000000  0.5994710000000 1.0
C      1  0.4810000000000  0.4700010000000  0.3969970000000 1.0
C      1  0.5269790000000  0.5604750000000  0.4603760000000 1.0
C      1  0.4733140000000  0.4345690000000  0.5506820000000 1.0
C      1  0.5037560000000  0.3815750000000  0.5095780000000 1.0
C      1  0.4847600000000  0.6157890000000  0.4686140000000 1.0
C      1  0.4748630000000  0.4271920000000  0.5814680000000 1.0
C      1  0.5149710000000  0.5615710000000  0.4310390000000 1.0
C      1  0.4803260000000  0.5324870000000  0.5653940000000 1.0
C      1  0.5215910000000  0.4618990000000  0.4336210000000 1.0
C      1  0.4530200000000  0.5610930000000  0.4606520000000 1.0
C      1  0.5527450000000  0.4406540000000  0.5442720000000 1.0
C      1  0.5413790000000  0.5966450000000  0.5076840000000 1.0
C      1  0.4523080000000  0.4124360000000  0.4865670000000 1.0
C      1  0.5578630000000  0.5463880000000  0.5581700000000 1.0
C      1  0.4321570000000  0.4472800000000  0.4264140000000 1.0
C      1  0.5407200000000  0.4072690000000  0.4589060000000 1.0
C      1  0.4709410000000  0.5892920000000  0.5456080000000 1.0
C      1  0.4160610000000  0.4370230000000  0.4546900000000 1.0
C      1  0.5701490000000  0.5709160000000  0.5406050000000 1.0
C      1  0.5230040000000  0.5024870000000  0.4014710000000 1.0
C      1  0.4889450000000  0.4935700000000  0.5900350000000 1.0
C      1  0.5649110000000  0.5814100000000  0.5103640000000 1.0
C      1  0.4277970000000  0.4262090000000  0.4847470000000 1.0
C      1  0.5860190000000  0.4353390000000  0.5083640000000 1.0
C      1  0.4116830000000  0.5721500000000  0.4936710000000 1.0
C      1  0.5236260000000  0.4013820000000  0.4810920000000 1.0
C      1  0.4859590000000  0.5949670000000  0.5220220000000 1.0
C      1  0.5959630000000  0.4720550000000  0.5192010000000 1.0
C      1  0.4113690000000  0.5319120000000  0.4864690000000 1.0
C      1  0.4938640000000  0.5711150000000  0.4194300000000 1.0
C      1  0.4848080000000  0.4095290000000  0.5974670000000 1.0
C      1  0.4539260000000  0.4534700000000  0.5800630000000 1.0
C      1  0.5432550000000  0.5456320000000  0.4214290000000 1.0
C      1  0.5372700000000  0.5375700000000  0.5787420000000 1.0
C      1  0.4610490000000  0.4505910000000  0.4167490000000 1.0
C      1  0.5380010000000  0.4017120000000  0.5061670000000 1.0
C      1  0.4706250000000  0.5946730000000  0.4993830000000 1.0
C      1  0.5039400000000  0.5985000000000  0.4776090000000 1.0
C      1  0.4904430000000  0.4036910000000  0.5178090000000 1.0
C      1  0.4306750000000  0.4982310000000  0.4210750000000 1.0
C      1  0.5674330000000  0.4996150000000  0.5738560000000 1.0
C      1  0.5710240000000  0.4782390000000  0.4435030000000 1.0
C      1  0.4282990000000  0.5249140000000  0.5616390000000 1.0
C      1  0.3973280000000  0.5587110000000  0.5125160000000 1.0
C      1  0.6053790000000  0.4444240000000  0.4903830000000 1.0
C      1  0.4813870000000  0.4707030000000  0.4363580000000 1.0
C      1  0.5186860000000  0.5232890000000  0.5589950000000 1.0
C      1  0.4835040000000  0.4634490000000  0.5935230000000 1.0
C      1  0.5175770000000  0.5299900000000  0.4070150000000 1.0
C      1  0.4682470000000  0.5143260000000  0.4599010000000 1.0
C      1  0.5365730000000  0.4820920000000  0.5333750000000 1.0
C      1  0.5664090000000  0.4971930000000  0.4195330000000 1.0
C      1  0.4441410000000  0.5072720000000  0.5826830000000 1.0
C      1  0.5501660000000  0.4536880000000  0.4397310000000 1.0
C      1  0.4544420000000  0.5453720000000  0.5633270000000 1.0
C      1  0.4397790000000  0.4580870000000  0.4639300000000 1.0
C      1  0.5427730000000  0.5538750000000  0.5288080000000 1.0
C      1  0.4672860000000  0.4481870000000  0.4559200000000 1.0
C      1  0.5129280000000  0.5420970000000  0.5371020000000 1.0
C      1  0.4076340000000  0.5073260000000  0.5407750000000 1.0
C      1  0.5946220000000  0.4937790000000  0.4628280000000 1.0
C      1  0.4492600000000  0.4172930000000  0.5358870000000 1.0
C      1  0.5460510000000  0.5865130000000  0.4610750000000 1.0
C      1  0.5611790000000  0.4778640000000  0.4761940000000 1.0
C      1  0.4391190000000  0.5286290000000  0.5305600000000 1.0
C      1  0.4826230000000  0.5505780000000  0.4680880000000 1.0
C      1  0.5208890000000  0.4455500000000  0.5350080000000 1.0
C      1  0.4744080000000  0.5033560000000  0.4006090000000 1.0
C      1  0.5274060000000  0.4933580000000  0.6029310000000 1.0
C      1  0.4585700000000  0.5443800000000  0.4308500000000 1.0
C      1  0.5465010000000  0.4524680000000  0.5759460000000 1.0
C      1  0.4508500000000  0.5148610000000  0.4158250000000 1.0
C      1  0.5515650000000  0.4830510000000  0.5876180000000 1.0
C      1  0.5314200000000  0.4797170000000  0.4832040000000 1.0
C      1  0.4643750000000  0.5171860000000  0.5152060000000 1.0
C      1  0.4697060000000  0.4853690000000  0.5081880000000 1.0
C      1  0.5224740000000  0.5109800000000  0.4850720000000 1.0
C      1  0.6073660000000  0.4737700000000  0.4871860000000 1.0
C      1  0.3963370000000  0.5293670000000  0.5170440000000 1.0
C      1  0.4226850000000  0.4467970000000  0.5338080000000 1.0
C      1  0.5723890000000  0.5542760000000  0.4664950000000 1.0
C      1  0.5242550000000  0.4643190000000  0.5070660000000 1.0
C      1  0.4675330000000  0.5304950000000  0.4875600000000 1.0
C      1  0.5543540000000  0.4459740000000  0.4868090000000 1.0
C      1  0.4405360000000  0.5607440000000  0.5186320000000 1.0
C      1  0.5370080000000  0.5266480000000  0.5096030000000 1.0
C      1  0.4564460000000  0.4764190000000  0.4818530000000 1.0
C      1  0.4982590000000  0.4257810000000  0.5348690000000 1.0
C      1  0.5038180000000  0.5665390000000  0.4821390000000 1.0
C      1  0.5185290000000  0.5168380000000  0.4534690000000 1.0
C      1  0.4653550000000  0.4867150000000  0.5409000000000 1.0
C      1  0.5491790000000  0.4927920000000  0.3979650000000 1.0
C      1  0.4673430000000  0.5113000000000  0.5967220000000 1.0
C      1  0.4257610000000  0.5512070000000  0.4338050000000 1.0
C      1  0.5796020000000  0.4467590000000  0.5724720000000 1.0
C      1  0.4402490000000  0.5407420000000  0.4934800000000 1.0
C      1  0.5639570000000  0.4621800000000  0.5125140000000 1.0
C      1  0.4260520000000  0.4786370000000  0.5430660000000 1.0
C      1  0.5774590000000  0.5228120000000  0.4584740000000 1.0
C      1  0.5998300000000  0.5605300000000  0.5338450000000 1.0
C      1  0.3894780000000  0.4495180000000  0.4680380000000 1.0
C      1  0.5451500000000  0.5340080000000  0.4616030000000 1.0
C      1  0.4539230000000  0.4568910000000  0.5377820000000 1.0
C      1  0.5687060000000  0.4821700000000  0.5379860000000 1.0
C      1  0.4344110000000  0.5187910000000  0.4609320000000 1.0
C      1  0.4401220000000  0.5014690000000  0.4866550000000 1.0
C      1  0.5652780000000  0.5160190000000  0.5172820000000 1.0
C      1  0.4865960000000  0.5320410000000  0.4149520000000 1.0
C      1  0.5164940000000  0.4645640000000  0.5880400000000 1.0
C      1  0.5708050000000  0.5203420000000  0.5492100000000 1.0
C      1  0.4206590000000  0.4747170000000  0.4411180000000 1.0
C      1  0.4192490000000  0.5575700000000  0.4649620000000 1.0
C      1  0.5866010000000  0.4462560000000  0.5406710000000 1.0
C      1  0.4147970000000  0.4406260000000  0.5061120000000 1.0
C      1  0.5800920000000  0.5645690000000  0.4925800000000 1.0
C      1  0.4092120000000  0.5017350000000  0.4541790000000 1.0
C      1  0.5962740000000  0.4999350000000  0.5475090000000 1.0
C      1  0.5052660000000  0.4842080000000  0.4160500000000 1.0
C      1  0.5072760000000  0.4984040000000  0.5689030000000 1.0
C      1  0.5175170000000  0.5895970000000  0.5268010000000 1.0
C      1  0.5009120000000  0.4186920000000  0.4822610000000 1.0
C      1  0.5111470000000  0.5681090000000  0.5782960000000 1.0
C      1  0.4804730000000  0.4274920000000  0.4330340000000 1.0
C      1  0.4251190000000  0.5032370000000  0.5120380000000 1.0
C      1  0.5795630000000  0.5016680000000  0.4923140000000 1.0
C      1  0.4978780000000  0.4935590000000  0.4999090000000 1.0
END
