TITL C-2782225-7408-398 0.000239128343644079 125000 -503.26964316221 0 0 83 (C1) n - 1
REM
REM in /home/nfs/bkarasulu/CARBON/AIRSS/Generating-Clusters/REBO/Higher-Symm/SD-CG/HFTN-CG
REM
REM
REM
REM
REM
REM ./C.cell (12c818d87b63d06a65506943cc24bca4)
REM
REM compiler GCC version 9.2.1 20190827 (Red Hat 9.2.1-1)
REM options -cpp -mtune=generic -march=x86-64 -g -O0 -fpre-include=/usr/include/finclude/math-vector-fortran.h
REM seed 1506623546 -193981803 -1239680024 96120073 689723706 1091104527 -1586601516 -1206915906 -291227385 1228683807 -1314768163 913599172 1591542582 -189172338 1634955325 159070733 25083171 -2035399306 -1307376845 1737667352 -647907960 398165245 -1788705297 -788628476 1404677825 1965126515 69834026 904048723 290725034 1518489623 -401423405 -98076085 192221739
REM
CELL 1.54180   50.00000   50.00000   50.00000   90.00000   90.00000   90.00000
LATT -1
SFAC C  
C      1  0.4634140000000  0.5415150000000  0.5004420000000 1.0
C      1  0.4625300000000  0.5523330000000  0.5312080000000 1.0
C      1  0.4873650000000  0.5592880000000  0.5520850000000 1.0
C      1  0.5211190000000  0.5633410000000  0.5492720000000 1.0
C      1  0.5456550000000  0.5654470000000  0.5256200000000 1.0
C      1  0.5504650000000  0.5648990000000  0.4921620000000 1.0
C      1  0.5205120000000  0.5626750000000  0.4373110000000 1.0
C      1  0.4878190000000  0.5586180000000  0.4286460000000 1.0
C      1  0.4608930000000  0.5567160000000  0.4494770000000 1.0
C      1  0.4718830000000  0.5836630000000  0.5244830000000 1.0
C      1  0.4935500000000  0.5914630000000  0.5430030000000 1.0
C      1  0.5221850000000  0.5953540000000  0.5373650000000 1.0
C      1  0.5366510000000  0.5962110000000  0.5116430000000 1.0
C      1  0.5352070000000  0.5889730000000  0.4812640000000 1.0
C      1  0.5201300000000  0.5857840000000  0.4579520000000 1.0
C      1  0.4901020000000  0.5836950000000  0.4515450000000 1.0
C      1  0.4665280000000  0.5792930000000  0.4699630000000 1.0
C      1  0.4664570000000  0.5724450000000  0.4970100000000 1.0
C      1  0.4821090000000  0.5374650000000  0.5739510000000 1.0
C      1  0.5316860000000  0.5411250000000  0.5689780000000 1.0
C      1  0.5656020000000  0.5421370000000  0.5325900000000 1.0
C      1  0.5638280000000  0.5418550000000  0.4829220000000 1.0
C      1  0.5342300000000  0.5373300000000  0.4379360000000 1.0
C      1  0.4874130000000  0.5276010000000  0.4227790000000 1.0
C      1  0.4487190000000  0.5302820000000  0.4493270000000 1.0
C      1  0.4356530000000  0.5274880000000  0.4960440000000 1.0
C      1  0.4429990000000  0.5314870000000  0.5427240000000 1.0
C      1  0.5402400000000  0.5215850000000  0.5079860000000 1.0
C      1  0.5309750000000  0.5173100000000  0.4818110000000 1.0
C      1  0.5089460000000  0.5088400000000  0.4661260000000 1.0
C      1  0.4852210000000  0.4967970000000  0.4756220000000 1.0
C      1  0.4718090000000  0.5105610000000  0.4969150000000 1.0
C      1  0.4702230000000  0.4966520000000  0.5214010000000 1.0
C      1  0.4797440000000  0.5110950000000  0.5432810000000 1.0
C      1  0.5060460000000  0.5181620000000  0.5484110000000 1.0
C      1  0.5301490000000  0.5212320000000  0.5343480000000 1.0
C      1  0.5376060000000  0.4281780000000  0.4773050000000 1.0
C      1  0.5251680000000  0.4501780000000  0.4629890000000 1.0
C      1  0.4960300000000  0.4474570000000  0.4600200000000 1.0
C      1  0.4796210000000  0.4685750000000  0.4718600000000 1.0
C      1  0.4612950000000  0.4583400000000  0.4910320000000 1.0
C      1  0.4688210000000  0.4666400000000  0.5211100000000 1.0
C      1  0.4961570000000  0.4510700000000  0.5344060000000 1.0
C      1  0.5235440000000  0.4334420000000  0.5327920000000 1.0
C      1  0.5408520000000  0.4263000000000  0.5084930000000 1.0
C      1  0.4291170000000  0.4876420000000  0.5233360000000 1.0
C      1  0.4585980000000  0.4867780000000  0.5668160000000 1.0
C      1  0.5099910000000  0.4909530000000  0.5781800000000 1.0
C      1  0.5571470000000  0.4935890000000  0.5561240000000 1.0
C      1  0.5773710000000  0.4943970000000  0.5085190000000 1.0
C      1  0.5547680000000  0.4918330000000  0.4622280000000 1.0
C      1  0.5147200000000  0.4854000000000  0.4342700000000 1.0
C      1  0.4641490000000  0.4850800000000  0.4328320000000 1.0
C      1  0.4312970000000  0.4872780000000  0.4708940000000 1.0
C      1  0.5534830000000  0.5248700000000  0.4588280000000 1.0
C      1  0.5125440000000  0.5158380000000  0.4342110000000 1.0
C      1  0.4637010000000  0.5138360000000  0.4307350000000 1.0
C      1  0.4341310000000  0.5161840000000  0.4702780000000 1.0
C      1  0.4298950000000  0.5165580000000  0.5222600000000 1.0
C      1  0.4573310000000  0.5184740000000  0.5672650000000 1.0
C      1  0.5091480000000  0.5229010000000  0.5813700000000 1.0
C      1  0.5553900000000  0.5248670000000  0.5563930000000 1.0
C      1  0.5735290000000  0.5249130000000  0.5076040000000 1.0
C      1  0.5278720000000  0.3996730000000  0.4682880000000 1.0
C      1  0.5048990000000  0.3999680000000  0.4517730000000 1.0
C      1  0.4855760000000  0.4206340000000  0.4557110000000 1.0
C      1  0.4607380000000  0.4145200000000  0.4683920000000 1.0
C      1  0.4533110000000  0.4289610000000  0.4914120000000 1.0
C      1  0.4633910000000  0.4327300000000  0.5210490000000 1.0
C      1  0.4872990000000  0.4180750000000  0.5312500000000 1.0
C      1  0.5130600000000  0.4026060000000  0.5242540000000 1.0
C      1  0.5307100000000  0.3955780000000  0.4991060000000 1.0
C      1  0.4897440000000  0.4730920000000  0.4283070000000 1.0
C      1  0.4435100000000  0.4739190000000  0.4489590000000 1.0
C      1  0.4261060000000  0.4763370000000  0.4970540000000 1.0
C      1  0.4403110000000  0.4764070000000  0.5473620000000 1.0
C      1  0.4845230000000  0.4784140000000  0.5753870000000 1.0
C      1  0.5354590000000  0.4815300000000  0.5698820000000 1.0
C      1  0.5722620000000  0.4835360000000  0.5342710000000 1.0
C      1  0.5716180000000  0.4828540000000  0.4833360000000 1.0
C      1  0.5341460000000  0.4750170000000  0.4520900000000 1.0
C      1  0.5062030000000  0.4798270000000  0.5259170000000 1.0
C      1  0.5080170000000  0.4982880000000  0.5084510000000 1.0
END
