TITL C-2782231-7322-913 0.0016989331932536 125000 -437.925728430289 0 0 76 (C1) n - 1
REM
REM in /home/nfs/bkarasulu/CARBON/AIRSS/Generating-Clusters/REBO/Higher-Symm/SD-CG/HFTN-CG
REM
REM
REM
REM
REM
REM ./C.cell (12c818d87b63d06a65506943cc24bca4)
REM
REM compiler GCC version 9.2.1 20190827 (Red Hat 9.2.1-1)
REM options -cpp -mtune=generic -march=x86-64 -g -O0 -fpre-include=/usr/include/finclude/math-vector-fortran.h
REM seed 551712527 293733208 642506411 676728440 736725253 -923701889 424826851 -1285354171 -503205830 1145821204 -856661374 -1665100741 -310154484 683321117 -1100037041 1374957765 2125953060 -1548500987 930516668 -1049995953 2023122902 275651073 1678757689 564392018 -1969555429 641377381 1750609802 -1568564167 1025704067 1141842320 -1212803726 -73578078 -1060620882
REM
CELL 1.54180   50.00000   50.00000   50.00000   90.00000   90.00000   90.00000
LATT -1
SFAC C  
C      1  0.5045230000000  0.3943630000000  0.4597120000000 1.0
C      1  0.4578140000000  0.4086150000000  0.5047750000000 1.0
C      1  0.5210740000000  0.3951130000000  0.5251940000000 1.0
C      1  0.5165470000000  0.5875640000000  0.4870790000000 1.0
C      1  0.4678750000000  0.5795170000000  0.4872170000000 1.0
C      1  0.4910990000000  0.6049550000000  0.5289390000000 1.0
C      1  0.4663420000000  0.5294950000000  0.5304570000000 1.0
C      1  0.5783740000000  0.5153910000000  0.5146240000000 1.0
C      1  0.5077510000000  0.5186170000000  0.4209340000000 1.0
C      1  0.4694540000000  0.5159480000000  0.4320850000000 1.0
C      1  0.4236410000000  0.5902400000000  0.5851250000000 1.0
C      1  0.5745070000000  0.5399410000000  0.5249830000000 1.0
C      1  0.5044310000000  0.4875100000000  0.4648600000000 1.0
C      1  0.5000330000000  0.4913280000000  0.5144180000000 1.0
C      1  0.5442280000000  0.4793960000000  0.4944150000000 1.0
C      1  0.4636700000000  0.4653820000000  0.5676280000000 1.0
C      1  0.5948950000000  0.4362790000000  0.4800770000000 1.0
C      1  0.4614420000000  0.4598330000000  0.4185320000000 1.0
C      1  0.5518830000000  0.5495710000000  0.4492120000000 1.0
C      1  0.4095990000000  0.5309640000000  0.5338890000000 1.0
C      1  0.5072520000000  0.5572350000000  0.5947060000000 1.0
C      1  0.4623690000000  0.4609640000000  0.4485780000000 1.0
C      1  0.4901960000000  0.4590800000000  0.5548800000000 1.0
C      1  0.5659090000000  0.4380010000000  0.4726130000000 1.0
C      1  0.5230750000000  0.4349340000000  0.4966460000000 1.0
C      1  0.4974630000000  0.4400580000000  0.4763520000000 1.0
C      1  0.4935890000000  0.4426800000000  0.5088110000000 1.0
C      1  0.4790970000000  0.4181460000000  0.5210580000000 1.0
C      1  0.5293130000000  0.4050060000000  0.4996850000000 1.0
C      1  0.4849080000000  0.4139800000000  0.4657680000000 1.0
C      1  0.5061970000000  0.5049310000000  0.4432860000000 1.0
C      1  0.4865680000000  0.5139010000000  0.5236250000000 1.0
C      1  0.5657900000000  0.4949940000000  0.5026600000000 1.0
C      1  0.5468460000000  0.4516610000000  0.4913110000000 1.0
C      1  0.4895580000000  0.4641250000000  0.4611280000000 1.0
C      1  0.4933100000000  0.4667300000000  0.5259990000000 1.0
C      1  0.4949420000000  0.5496180000000  0.4591890000000 1.0
C      1  0.4440080000000  0.5730660000000  0.5344720000000 1.0
C      1  0.5309080000000  0.5696650000000  0.5430120000000 1.0
C      1  0.5247470000000  0.5315750000000  0.5851950000000 1.0
C      1  0.5430630000000  0.5199170000000  0.4396610000000 1.0
C      1  0.4213530000000  0.5292490000000  0.5048360000000 1.0
C      1  0.5003980000000  0.4094890000000  0.5397030000000 1.0
C      1  0.5309200000000  0.3975920000000  0.4710870000000 1.0
C      1  0.4577420000000  0.4163290000000  0.4768430000000 1.0
C      1  0.4945220000000  0.6350890000000  0.5285490000000 1.0
C      1  0.5246070000000  0.6092640000000  0.4715770000000 1.0
C      1  0.4454380000000  0.5674420000000  0.4755410000000 1.0
C      1  0.4606550000000  0.4588730000000  0.3930430000000 1.0
C      1  0.4411780000000  0.4707250000000  0.5784370000000 1.0
C      1  0.6195680000000  0.4348140000000  0.4864300000000 1.0
C      1  0.4647340000000  0.5903580000000  0.5142430000000 1.0
C      1  0.5150330000000  0.5898900000000  0.5209750000000 1.0
C      1  0.4927760000000  0.5721370000000  0.4767010000000 1.0
C      1  0.5396830000000  0.5725910000000  0.5046120000000 1.0
C      1  0.4467940000000  0.5406880000000  0.4664100000000 1.0
C      1  0.4661200000000  0.5953030000000  0.5480130000000 1.0
C      1  0.5497670000000  0.4134900000000  0.4565000000000 1.0
C      1  0.4462980000000  0.4412380000000  0.4703680000000 1.0
C      1  0.5075280000000  0.4305850000000  0.5570550000000 1.0
C      1  0.4294490000000  0.5219010000000  0.4793650000000 1.0
C      1  0.5293900000000  0.5047930000000  0.5881080000000 1.0
C      1  0.5475770000000  0.4938120000000  0.4326790000000 1.0
C      1  0.4263320000000  0.4954720000000  0.4702160000000 1.0
C      1  0.5272570000000  0.4779690000000  0.5864660000000 1.0
C      1  0.5514920000000  0.4671460000000  0.4315010000000 1.0
C      1  0.5546870000000  0.5589340000000  0.5263860000000 1.0
C      1  0.4709990000000  0.5346250000000  0.4518530000000 1.0
C      1  0.4385350000000  0.5874660000000  0.5644870000000 1.0
C      1  0.4341800000000  0.4700410000000  0.4638300000000 1.0
C      1  0.5158210000000  0.4553350000000  0.5757530000000 1.0
C      1  0.5557720000000  0.4417430000000  0.4413790000000 1.0
C      1  0.5204630000000  0.5414400000000  0.4512070000000 1.0
C      1  0.4401750000000  0.5450130000000  0.5283520000000 1.0
C      1  0.5237700000000  0.5589210000000  0.5668950000000 1.0
C      1  0.5173520000000  0.4904400000000  0.4909190000000 1.0
END
