TITL C-2782232-2968-1033 -0.00392091465419331 125000 -480.939266114019 0 0 78 (Th) n - 1
REM
REM in /home/nfs/bkarasulu/CARBON/AIRSS/Generating-Clusters/REBO/Higher-Symm/SD-CG/HFTN-CG
REM
REM
REM
REM
REM
REM ./C.cell (12c818d87b63d06a65506943cc24bca4)
REM
REM compiler GCC version 9.2.1 20190827 (Red Hat 9.2.1-1)
REM options -cpp -mtune=generic -march=x86-64 -g -O0 -fpre-include=/usr/include/finclude/math-vector-fortran.h
REM seed 1483987023 -1565636410 970407070 -214892886 469550942 1201684125 490865787 -1992580279 -1290601057 -1686749386 -809648741 310123796 -1442096324 -1571046942 686160151 1575092177 878392654 -1724098199 -441367419 1449161042 -1515243176 1560162972 -903595585 1350588301 782822690 -1625819081 -1230828056 -1615003149 -1647463307 -2091774347 668883043 1425573697 -1337182972
REM
CELL 1.54180   50.00000   50.00000   50.00000   90.00000   90.00000   90.00000
LATT -1
SFAC C  
C      1  0.4305730000000  0.5132000000000  0.5499720000000 1.0
C      1  0.5495290000000  0.4301750000000  0.5139940000000 1.0
C      1  0.5135700000000  0.5491490000000  0.4309870000000 1.0
C      1  0.5688610000000  0.5131810000000  0.4503110000000 1.0
C      1  0.4305550000000  0.4854810000000  0.4503320000000 1.0
C      1  0.5688730000000  0.4854660000000  0.5499520000000 1.0
C      1  0.4498850000000  0.4301860000000  0.4862920000000 1.0
C      1  0.5495420000000  0.5684770000000  0.4862740000000 1.0
C      1  0.4499060000000  0.5684900000000  0.5140060000000 1.0
C      1  0.4858730000000  0.5491560000000  0.5692940000000 1.0
C      1  0.5135780000000  0.4495120000000  0.5692920000000 1.0
C      1  0.4858400000000  0.4495120000000  0.4309930000000 1.0
C      1  0.4305700000000  0.4854830000000  0.5499730000000 1.0
C      1  0.5495460000000  0.5684780000000  0.5139910000000 1.0
C      1  0.5135580000000  0.4495080000000  0.4309890000000 1.0
C      1  0.5688580000000  0.4854640000000  0.4503110000000 1.0
C      1  0.4305580000000  0.5131980000000  0.4503310000000 1.0
C      1  0.5688760000000  0.5131830000000  0.5499510000000 1.0
C      1  0.4499010000000  0.5684890000000  0.4862890000000 1.0
C      1  0.5495250000000  0.4301740000000  0.4862770000000 1.0
C      1  0.4498890000000  0.4301870000000  0.5140090000000 1.0
C      1  0.4858610000000  0.4495150000000  0.5692960000000 1.0
C      1  0.5135900000000  0.5491520000000  0.5692900000000 1.0
C      1  0.4858530000000  0.5491530000000  0.4309910000000 1.0
C      1  0.5238300000000  0.4247080000000  0.4759820000000 1.0
C      1  0.4755490000000  0.5234600000000  0.4255240000000 1.0
C      1  0.4250950000000  0.4751840000000  0.5242800000000 1.0
C      1  0.4755830000000  0.4247150000000  0.5243050000000 1.0
C      1  0.5238550000000  0.5739510000000  0.5242940000000 1.0
C      1  0.4755940000000  0.5739550000000  0.4759860000000 1.0
C      1  0.5238870000000  0.5234580000000  0.5747580000000 1.0
C      1  0.4755660000000  0.4752100000000  0.5747670000000 1.0
C      1  0.5238590000000  0.4752000000000  0.4255180000000 1.0
C      1  0.5743300000000  0.4751650000000  0.4760040000000 1.0
C      1  0.4250940000000  0.5234990000000  0.4760250000000 1.0
C      1  0.5743430000000  0.5234810000000  0.5242570000000 1.0
C      1  0.5238480000000  0.5739490000000  0.4759780000000 1.0
C      1  0.4755430000000  0.4752060000000  0.4255250000000 1.0
C      1  0.4251010000000  0.5235000000000  0.5242790000000 1.0
C      1  0.4756010000000  0.5739560000000  0.5243010000000 1.0
C      1  0.5238370000000  0.4247090000000  0.5242980000000 1.0
C      1  0.4755760000000  0.4247140000000  0.4759890000000 1.0
C      1  0.5238820000000  0.4752040000000  0.5747590000000 1.0
C      1  0.4755720000000  0.5234640000000  0.5747660000000 1.0
C      1  0.5238650000000  0.5234540000000  0.4255170000000 1.0
C      1  0.5743360000000  0.5234800000000  0.4760030000000 1.0
C      1  0.4250880000000  0.4751830000000  0.4760260000000 1.0
C      1  0.5743370000000  0.4751660000000  0.5242580000000 1.0
C      1  0.5696250000000  0.5511440000000  0.5233340000000 1.0
C      1  0.5229350000000  0.5692310000000  0.5519570000000 1.0
C      1  0.5515490000000  0.5225310000000  0.5700330000000 1.0
C      1  0.4298180000000  0.5511600000000  0.4769470000000 1.0
C      1  0.5696060000000  0.4475030000000  0.4769290000000 1.0
C      1  0.4298120000000  0.4475210000000  0.5233570000000 1.0
C      1  0.4765130000000  0.5692340000000  0.4483230000000 1.0
C      1  0.5229030000000  0.4294280000000  0.4483190000000 1.0
C      1  0.4765110000000  0.4294360000000  0.5519670000000 1.0
C      1  0.4478870000000  0.5225400000000  0.4302490000000 1.0
C      1  0.5515230000000  0.4761200000000  0.4302340000000 1.0
C      1  0.4479030000000  0.4761360000000  0.5700500000000 1.0
C      1  0.5696130000000  0.4475040000000  0.5233360000000 1.0
C      1  0.5229180000000  0.4294300000000  0.5519600000000 1.0
C      1  0.5515430000000  0.4761240000000  0.5700350000000 1.0
C      1  0.4298050000000  0.4475200000000  0.4769500000000 1.0
C      1  0.5696180000000  0.5511430000000  0.4769260000000 1.0
C      1  0.4298250000000  0.5511620000000  0.5233550000000 1.0
C      1  0.4764950000000  0.4294340000000  0.4483260000000 1.0
C      1  0.5229200000000  0.5692280000000  0.4483160000000 1.0
C      1  0.4765280000000  0.5692360000000  0.5519640000000 1.0
C      1  0.4478820000000  0.4761330000000  0.4302500000000 1.0
C      1  0.5515280000000  0.5225280000000  0.4302330000000 1.0
C      1  0.4479080000000  0.5225440000000  0.5700490000000 1.0
C      1  0.4997040000000  0.4993300000000  0.4233690000000 1.0
C      1  0.4229430000000  0.4993410000000  0.5001530000000 1.0
C      1  0.4997060000000  0.4225590000000  0.5001430000000 1.0
C      1  0.4997270000000  0.4993340000000  0.5769150000000 1.0
C      1  0.5764880000000  0.4993230000000  0.5001300000000 1.0
C      1  0.4997250000000  0.5761050000000  0.5001400000000 1.0
END
