TITL C-2782225-7408-312 0.00305284537667096 125000 -653.031152348341 0 0 113 (C1) n - 1
REM
REM in /home/nfs/bkarasulu/CARBON/AIRSS/Generating-Clusters/REBO/Higher-Symm/SD-CG/HFTN-CG
REM
REM
REM
REM
REM
REM ./C.cell (12c818d87b63d06a65506943cc24bca4)
REM
REM compiler GCC version 9.2.1 20190827 (Red Hat 9.2.1-1)
REM options -cpp -mtune=generic -march=x86-64 -g -O0 -fpre-include=/usr/include/finclude/math-vector-fortran.h
REM seed 806254594 -1112476030 1015468287 566508007 -1360785100 52567315 -1958127989 626869102 -681993384 -1830998548 -792879234 -536760428 -911286752 -1834855577 2121128145 1908623172 1726123027 480561628 1849166802 623803695 883122910 -1842267948 1135796221 -478504160 -1318791086 1200968388 786617240 1902353596 -1079384786 -1543821983 1899947540 -1275684153 -703849055
REM
CELL 1.54180   50.00000   50.00000   50.00000   90.00000   90.00000   90.00000
LATT -1
SFAC C  
C      1  0.5199180000000  0.4737100000000  0.5499420000000 1.0
C      1  0.5261400000000  0.5392920000000  0.5434180000000 1.0
C      1  0.4525840000000  0.4991480000000  0.5440880000000 1.0
C      1  0.4352230000000  0.5332860000000  0.5611450000000 1.0
C      1  0.4920120000000  0.4208100000000  0.5628490000000 1.0
C      1  0.5810540000000  0.5384330000000  0.5558420000000 1.0
C      1  0.4177910000000  0.5296640000000  0.4624390000000 1.0
C      1  0.5137460000000  0.4161340000000  0.4606040000000 1.0
C      1  0.5676430000000  0.5597520000000  0.4507540000000 1.0
C      1  0.5823410000000  0.4666700000000  0.5492820000000 1.0
C      1  0.4831860000000  0.5800780000000  0.5475550000000 1.0
C      1  0.4325940000000  0.4481890000000  0.5428160000000 1.0
C      1  0.4905560000000  0.5734000000000  0.4506380000000 1.0
C      1  0.4412020000000  0.4560940000000  0.4534900000000 1.0
C      1  0.5667960000000  0.4731970000000  0.4548000000000 1.0
C      1  0.5271650000000  0.4579410000000  0.5243020000000 1.0
C      1  0.5272850000000  0.5523640000000  0.5165790000000 1.0
C      1  0.4418970000000  0.5012980000000  0.5179260000000 1.0
C      1  0.5599000000000  0.4479360000000  0.4390280000000 1.0
C      1  0.5147300000000  0.5825660000000  0.4348250000000 1.0
C      1  0.4214090000000  0.4743420000000  0.4385640000000 1.0
C      1  0.5115930000000  0.4713130000000  0.5889340000000 1.0
C      1  0.5034530000000  0.5210510000000  0.5803790000000 1.0
C      1  0.4654650000000  0.4880290000000  0.5880140000000 1.0
C      1  0.5145460000000  0.5255970000000  0.4499950000000 1.0
C      1  0.4733800000000  0.4998270000000  0.4495850000000 1.0
C      1  0.5131660000000  0.4786290000000  0.4542200000000 1.0
C      1  0.5650310000000  0.4569120000000  0.5682970000000 1.0
C      1  0.5005790000000  0.5717800000000  0.5674910000000 1.0
C      1  0.4258950000000  0.4655540000000  0.5634310000000 1.0
C      1  0.4094090000000  0.4681570000000  0.4989140000000 1.0
C      1  0.5691680000000  0.4358890000000  0.4985000000000 1.0
C      1  0.5164700000000  0.5952160000000  0.4981290000000 1.0
C      1  0.4786880000000  0.4481780000000  0.5602790000000 1.0
C      1  0.5669410000000  0.5129800000000  0.5510190000000 1.0
C      1  0.4627790000000  0.5379130000000  0.5540290000000 1.0
C      1  0.5808320000000  0.4911460000000  0.5356850000000 1.0
C      1  0.4678880000000  0.5597390000000  0.5356620000000 1.0
C      1  0.4588300000000  0.4464110000000  0.5355810000000 1.0
C      1  0.4824600000000  0.4105570000000  0.4714220000000 1.0
C      1  0.5757630000000  0.5303020000000  0.4653110000000 1.0
C      1  0.4297640000000  0.5578790000000  0.4764030000000 1.0
C      1  0.5395080000000  0.4623550000000  0.4960030000000 1.0
C      1  0.5155030000000  0.5562750000000  0.4897470000000 1.0
C      1  0.4446240000000  0.4858110000000  0.4927220000000 1.0
C      1  0.4953960000000  0.5434450000000  0.4663490000000 1.0
C      1  0.4653650000000  0.4752680000000  0.4680360000000 1.0
C      1  0.5391090000000  0.4850170000000  0.4707770000000 1.0
C      1  0.4783230000000  0.5136730000000  0.5922460000000 1.0
C      1  0.4837250000000  0.4658680000000  0.5859400000000 1.0
C      1  0.5194780000000  0.4980990000000  0.5742200000000 1.0
C      1  0.5522260000000  0.4190650000000  0.5055110000000 1.0
C      1  0.5400170000000  0.5896010000000  0.5048200000000 1.0
C      1  0.4006520000000  0.4904390000000  0.5061490000000 1.0
C      1  0.4890700000000  0.4058810000000  0.5858380000000 1.0
C      1  0.5979360000000  0.5435950000000  0.5762570000000 1.0
C      1  0.4261890000000  0.5335720000000  0.5866910000000 1.0
C      1  0.4654790000000  0.5532200000000  0.4424240000000 1.0
C      1  0.4704280000000  0.4431250000000  0.4454300000000 1.0
C      1  0.5646040000000  0.5050880000000  0.4477380000000 1.0
C      1  0.4830740000000  0.4594940000000  0.4247690000000 1.0
C      1  0.5430660000000  0.5050780000000  0.4246370000000 1.0
C      1  0.4743170000000  0.5338490000000  0.4218040000000 1.0
C      1  0.5318530000000  0.4792270000000  0.4189050000000 1.0
C      1  0.5022510000000  0.5360700000000  0.4134690000000 1.0
C      1  0.4673690000000  0.4818550000000  0.4144460000000 1.0
C      1  0.5365850000000  0.5179960000000  0.4738970000000 1.0
C      1  0.4704080000000  0.5242610000000  0.4708140000000 1.0
C      1  0.4936130000000  0.4617210000000  0.4755160000000 1.0
C      1  0.5386750000000  0.5716150000000  0.4414470000000 1.0
C      1  0.4204980000000  0.5005800000000  0.4465060000000 1.0
C      1  0.5383330000000  0.4336830000000  0.4477290000000 1.0
C      1  0.4767660000000  0.5081950000000  0.4997440000000 1.0
C      1  0.5043530000000  0.4797000000000  0.5027780000000 1.0
C      1  0.5154240000000  0.5179510000000  0.5008360000000 1.0
C      1  0.5384420000000  0.4618320000000  0.5748230000000 1.0
C      1  0.5107420000000  0.5451920000000  0.5666070000000 1.0
C      1  0.4442300000000  0.4868960000000  0.5680020000000 1.0
C      1  0.5734860000000  0.5015210000000  0.4818330000000 1.0
C      1  0.4615010000000  0.5626890000000  0.4753260000000 1.0
C      1  0.4643480000000  0.4356050000000  0.4786080000000 1.0
C      1  0.5394400000000  0.5506040000000  0.4679470000000 1.0
C      1  0.4415070000000  0.5087300000000  0.4709520000000 1.0
C      1  0.5218690000000  0.4454970000000  0.4744870000000 1.0
C      1  0.5091620000000  0.3965160000000  0.4865200000000 1.0
C      1  0.5753840000000  0.5592460000000  0.4831990000000 1.0
C      1  0.4042930000000  0.5404730000000  0.4902640000000 1.0
C      1  0.5556130000000  0.5368620000000  0.5149810000000 1.0
C      1  0.4378180000000  0.5318660000000  0.5102110000000 1.0
C      1  0.5052320000000  0.4367310000000  0.5170650000000 1.0
C      1  0.5306890000000  0.4954440000000  0.5181650000000 1.0
C      1  0.4897950000000  0.5309020000000  0.5188280000000 1.0
C      1  0.4758480000000  0.4795650000000  0.5181500000000 1.0
C      1  0.4763570000000  0.4469500000000  0.5083600000000 1.0
C      1  0.5622840000000  0.5063070000000  0.5115440000000 1.0
C      1  0.4633570000000  0.5483830000000  0.5058380000000 1.0
C      1  0.5394760000000  0.5139010000000  0.5434620000000 1.0
C      1  0.4816220000000  0.5125820000000  0.5461870000000 1.0
C      1  0.4877770000000  0.4791700000000  0.5485140000000 1.0
C      1  0.4904710000000  0.5787780000000  0.4839160000000 1.0
C      1  0.4367220000000  0.4540710000000  0.4861560000000 1.0
C      1  0.5711940000000  0.4679330000000  0.4872510000000 1.0
C      1  0.5282790000000  0.5265870000000  0.4126560000000 1.0
C      1  0.4623940000000  0.5090830000000  0.4124710000000 1.0
C      1  0.5109160000000  0.4615070000000  0.4182620000000 1.0
C      1  0.5739520000000  0.5545540000000  0.5341510000000 1.0
C      1  0.4201940000000  0.5275440000000  0.5386170000000 1.0
C      1  0.5059960000000  0.4136010000000  0.5400980000000 1.0
C      1  0.5222500000000  0.4091820000000  0.5105430000000 1.0
C      1  0.5644030000000  0.5719880000000  0.5079080000000 1.0
C      1  0.4029750000000  0.5198150000000  0.5124720000000 1.0
C      1  0.5006980000000  0.5025330000000  0.4377890000000 1.0
C      1  0.5013550000000  0.5003120000000  0.4775110000000 1.0
END
