TITL C-2782231-7322-898 -0.00420197379591363 125000 -478.447107878575 0 0 88 (C1) n - 1
REM
REM in /home/nfs/bkarasulu/CARBON/AIRSS/Generating-Clusters/REBO/Higher-Symm/SD-CG/HFTN-CG
REM
REM
REM
REM
REM
REM ./C.cell (12c818d87b63d06a65506943cc24bca4)
REM
REM compiler GCC version 9.2.1 20190827 (Red Hat 9.2.1-1)
REM options -cpp -mtune=generic -march=x86-64 -g -O0 -fpre-include=/usr/include/finclude/math-vector-fortran.h
REM seed -702112122 -512331503 63399288 348118959 -789331987 -1429498384 -1334206906 -1372550880 315396275 -787685869 -441062123 -138282084 -529528752 -1261490096 1110872909 -1975051215 -1380966463 1005009200 1249590846 1683413122 473736998 1300561664 -505769720 -1035807174 1543880491 937666154 1116278044 1153961302 58417855 1855051349 1941316634 2060560340 993806205
REM
CELL 1.54180   50.00000   50.00000   50.00000   90.00000   90.00000   90.00000
LATT -1
SFAC C  
C      1  0.4412980000000  0.5645930000000  0.4712790000000 1.0
C      1  0.5636400000000  0.4688150000000  0.4440380000000 1.0
C      1  0.4810750000000  0.4926950000000  0.5567960000000 1.0
C      1  0.5298760000000  0.5416560000000  0.5157160000000 1.0
C      1  0.5237320000000  0.4565530000000  0.4862110000000 1.0
C      1  0.4774660000000  0.4437180000000  0.5262980000000 1.0
C      1  0.4517140000000  0.4744770000000  0.5208150000000 1.0
C      1  0.4468870000000  0.5320050000000  0.4799840000000 1.0
C      1  0.5513150000000  0.5072040000000  0.5267970000000 1.0
C      1  0.5275220000000  0.4716200000000  0.4493870000000 1.0
C      1  0.5182500000000  0.5244110000000  0.5403930000000 1.0
C      1  0.4830230000000  0.5282030000000  0.4635230000000 1.0
C      1  0.4713760000000  0.5655460000000  0.5353180000000 1.0
C      1  0.5641910000000  0.5440270000000  0.4670970000000 1.0
C      1  0.5612970000000  0.4644950000000  0.5645630000000 1.0
C      1  0.5243720000000  0.5722620000000  0.4788500000000 1.0
C      1  0.5329510000000  0.4341710000000  0.5336630000000 1.0
C      1  0.4817740000000  0.4466280000000  0.4459970000000 1.0
C      1  0.4265620000000  0.5446760000000  0.5285190000000 1.0
C      1  0.4424730000000  0.4639040000000  0.4691900000000 1.0
C      1  0.5805340000000  0.4511650000000  0.5192740000000 1.0
C      1  0.4589520000000  0.4892360000000  0.4321130000000 1.0
C      1  0.4589410000000  0.5256560000000  0.5608360000000 1.0
C      1  0.5388050000000  0.5370690000000  0.4370450000000 1.0
C      1  0.4792250000000  0.4918390000000  0.5899730000000 1.0
C      1  0.4410080000000  0.5975780000000  0.4680680000000 1.0
C      1  0.5821460000000  0.4430990000000  0.4361630000000 1.0
C      1  0.5098920000000  0.4620630000000  0.4221590000000 1.0
C      1  0.4909650000000  0.5278110000000  0.5770790000000 1.0
C      1  0.5021310000000  0.5478610000000  0.4414720000000 1.0
C      1  0.5395610000000  0.5816000000000  0.5007010000000 1.0
C      1  0.5341630000000  0.4186020000000  0.5104490000000 1.0
C      1  0.4591000000000  0.4207520000000  0.5444570000000 1.0
C      1  0.4178680000000  0.4782550000000  0.5288630000000 1.0
C      1  0.4183410000000  0.4903720000000  0.4684210000000 1.0
C      1  0.5782550000000  0.5045790000000  0.5481620000000 1.0
C      1  0.4815200000000  0.5124920000000  0.5306480000000 1.0
C      1  0.5196970000000  0.5221750000000  0.4826530000000 1.0
C      1  0.5332220000000  0.4716790000000  0.5199780000000 1.0
C      1  0.5198680000000  0.4919980000000  0.4694190000000 1.0
C      1  0.5090630000000  0.4938240000000  0.5285980000000 1.0
C      1  0.4860620000000  0.5002240000000  0.4722330000000 1.0
C      1  0.4990690000000  0.5300250000000  0.5059390000000 1.0
C      1  0.4917720000000  0.4681670000000  0.4847390000000 1.0
C      1  0.5005140000000  0.4633200000000  0.5157850000000 1.0
C      1  0.4691410000000  0.4888980000000  0.5008160000000 1.0
C      1  0.4653230000000  0.5231990000000  0.5015880000000 1.0
C      1  0.5363470000000  0.4972410000000  0.4988530000000 1.0
C      1  0.5400280000000  0.5082010000000  0.5593130000000 1.0
C      1  0.5202950000000  0.5584810000000  0.5429450000000 1.0
C      1  0.5616120000000  0.5378760000000  0.5150000000000 1.0
C      1  0.4539370000000  0.5344430000000  0.4467820000000 1.0
C      1  0.4491750000000  0.4753200000000  0.5531260000000 1.0
C      1  0.5487320000000  0.4879240000000  0.4241480000000 1.0
C      1  0.4749560000000  0.5587590000000  0.4711940000000 1.0
C      1  0.4867290000000  0.4617250000000  0.5538840000000 1.0
C      1  0.5263550000000  0.4365520000000  0.4592460000000 1.0
C      1  0.4160590000000  0.5448320000000  0.4822880000000 1.0
C      1  0.4473450000000  0.4417100000000  0.5127670000000 1.0
C      1  0.5549550000000  0.4589310000000  0.4755240000000 1.0
C      1  0.5799550000000  0.4547510000000  0.4946940000000 1.0
C      1  0.4426980000000  0.5042150000000  0.5653920000000 1.0
C      1  0.4990120000000  0.5810880000000  0.4747940000000 1.0
C      1  0.4420010000000  0.4403620000000  0.4829530000000 1.0
C      1  0.4089770000000  0.5488500000000  0.5114300000000 1.0
C      1  0.5761750000000  0.5429630000000  0.4890500000000 1.0
C      1  0.5478480000000  0.5171300000000  0.4251860000000 1.0
C      1  0.5546180000000  0.4862440000000  0.5746320000000 1.0
C      1  0.4464250000000  0.5106410000000  0.4295270000000 1.0
C      1  0.4933760000000  0.5719670000000  0.5445740000000 1.0
C      1  0.5006550000000  0.4305920000000  0.4450300000000 1.0
C      1  0.5111850000000  0.4415450000000  0.5475860000000 1.0
C      1  0.5735380000000  0.4342950000000  0.4611960000000 1.0
C      1  0.4594540000000  0.4732160000000  0.5841490000000 1.0
C      1  0.4697770000000  0.5924350000000  0.4706510000000 1.0
C      1  0.4205620000000  0.4507570000000  0.5284040000000 1.0
C      1  0.4117390000000  0.5152390000000  0.4708930000000 1.0
C      1  0.5808310000000  0.5306990000000  0.5398060000000 1.0
C      1  0.5281390000000  0.4741860000000  0.4064190000000 1.0
C      1  0.5157180000000  0.5200720000000  0.5797950000000 1.0
C      1  0.4767220000000  0.5518760000000  0.4319380000000 1.0
C      1  0.5416010000000  0.5778790000000  0.5276850000000 1.0
C      1  0.5350310000000  0.4183250000000  0.4834900000000 1.0
C      1  0.4645390000000  0.4396680000000  0.5638350000000 1.0
C      1  0.5557880000000  0.4551140000000  0.5362170000000 1.0
C      1  0.4558190000000  0.5399780000000  0.5341030000000 1.0
C      1  0.5322210000000  0.5452640000000  0.4675550000000 1.0
C      1  0.4680620000000  0.4718660000000  0.4553660000000 1.0
END
