TITL C-2782235-7892-68 -0.00463546330361886 125000 -325.869458912609 0 0 59 (C1) n - 1
REM
REM in /home/nfs/bkarasulu/CARBON/AIRSS/Generating-Clusters/REBO/Higher-Symm/SD-CG/HFTN-CG
REM
REM
REM
REM
REM
REM ./C.cell (12c818d87b63d06a65506943cc24bca4)
REM
REM compiler GCC version 9.2.1 20190827 (Red Hat 9.2.1-1)
REM options -cpp -mtune=generic -march=x86-64 -g -O0 -fpre-include=/usr/include/finclude/math-vector-fortran.h
REM seed -1646411644 -1905939440 1471112311 -420919334 1552949889 811937415 -1753489165 -1982934496 -1848552727 2129636230 1439233374 1086272033 604367060 1145619724 1442725439 406188124 -1618162120 398606009 -2138923880 510411541 1844713506 -2119620386 -120974096 1767490427 1085129344 -250943949 864447255 174370840 -1676536777 -2086564948 -1673107885 -1565263077 -1492160460
REM
CELL 1.54180   50.00000   50.00000   50.00000   90.00000   90.00000   90.00000
LATT -1
SFAC C  
C      1  0.4699860000000  0.5296190000000  0.5295710000000 1.0
C      1  0.5191620000000  0.5338470000000  0.5434080000000 1.0
C      1  0.5426610000000  0.5305310000000  0.4988750000000 1.0
C      1  0.5124410000000  0.5323580000000  0.4559080000000 1.0
C      1  0.4634790000000  0.5281640000000  0.4758230000000 1.0
C      1  0.4767580000000  0.4321260000000  0.5070950000000 1.0
C      1  0.4992620000000  0.4326870000000  0.5237080000000 1.0
C      1  0.5262320000000  0.4257130000000  0.5081680000000 1.0
C      1  0.5183790000000  0.4257370000000  0.4749320000000 1.0
C      1  0.4843010000000  0.4255200000000  0.4766290000000 1.0
C      1  0.4433520000000  0.5010370000000  0.5220930000000 1.0
C      1  0.5053100000000  0.5020880000000  0.5632080000000 1.0
C      1  0.5559370000000  0.4980970000000  0.5180470000000 1.0
C      1  0.5325320000000  0.4980600000000  0.4530300000000 1.0
C      1  0.4636780000000  0.4995700000000  0.4479800000000 1.0
C      1  0.4890770000000  0.5700080000000  0.4788850000000 1.0
C      1  0.4738570000000  0.5685190000000  0.5039160000000 1.0
C      1  0.4905400000000  0.5739680000000  0.5296400000000 1.0
C      1  0.5219720000000  0.5752380000000  0.5162840000000 1.0
C      1  0.5189080000000  0.5745970000000  0.4823780000000 1.0
C      1  0.5421550000000  0.5493400000000  0.5252430000000 1.0
C      1  0.5337810000000  0.5485020000000  0.4720780000000 1.0
C      1  0.4826900000000  0.5458750000000  0.4596930000000 1.0
C      1  0.4560780000000  0.5412380000000  0.5052670000000 1.0
C      1  0.4915650000000  0.5462770000000  0.5471530000000 1.0
C      1  0.4308100000000  0.5198030000000  0.4964660000000 1.0
C      1  0.4781040000000  0.5224470000000  0.5677080000000 1.0
C      1  0.5565040000000  0.5220530000000  0.5396170000000 1.0
C      1  0.5520860000000  0.5214400000000  0.4624260000000 1.0
C      1  0.4812960000000  0.5238510000000  0.4336940000000 1.0
C      1  0.4405570000000  0.4685090000000  0.5132200000000 1.0
C      1  0.4946980000000  0.4698670000000  0.5608350000000 1.0
C      1  0.5542980000000  0.4661830000000  0.5283960000000 1.0
C      1  0.5429760000000  0.4665580000000  0.4554770000000 1.0
C      1  0.4718680000000  0.4667180000000  0.4441570000000 1.0
C      1  0.4845920000000  0.4994200000000  0.5360180000000 1.0
C      1  0.5231730000000  0.5044120000000  0.5268190000000 1.0
C      1  0.5272780000000  0.5022270000000  0.4871120000000 1.0
C      1  0.4940600000000  0.5049820000000  0.4647050000000 1.0
C      1  0.4650530000000  0.4997810000000  0.4951360000000 1.0
C      1  0.5121700000000  0.5099640000000  0.4299170000000 1.0
C      1  0.4391640000000  0.5088940000000  0.4648250000000 1.0
C      1  0.4499180000000  0.5123890000000  0.5504970000000 1.0
C      1  0.5356450000000  0.5118730000000  0.5638800000000 1.0
C      1  0.5666300000000  0.5079930000000  0.4894380000000 1.0
C      1  0.4983020000000  0.4811540000000  0.4419280000000 1.0
C      1  0.4335220000000  0.4862200000000  0.4869730000000 1.0
C      1  0.4680620000000  0.4892090000000  0.5651480000000 1.0
C      1  0.5363140000000  0.4815500000000  0.5483040000000 1.0
C      1  0.5513590000000  0.4787440000000  0.4821640000000 1.0
C      1  0.5497180000000  0.4420020000000  0.5180030000000 1.0
C      1  0.5337720000000  0.4415050000000  0.4549610000000 1.0
C      1  0.4705650000000  0.4424290000000  0.4554270000000 1.0
C      1  0.4533770000000  0.4454960000000  0.5137430000000 1.0
C      1  0.4993780000000  0.4478290000000  0.5471450000000 1.0
C      1  0.4976160000000  0.5273990000000  0.4960620000000 1.0
C      1  0.5027190000000  0.4040910000000  0.4959690000000 1.0
C      1  0.4978920000000  0.4957700000000  0.5046920000000 1.0
C      1  0.5068950000000  0.5462510000000  0.5072600000000 1.0
END
