TITL C-2782225-7408-582 0.00436622029915374 125000 -1057.95402785322 0 0 178 (C1) n - 1
REM
REM in /home/nfs/bkarasulu/CARBON/AIRSS/Generating-Clusters/REBO/Higher-Symm/SD-CG/HFTN-CG
REM
REM
REM
REM
REM
REM ./C.cell (12c818d87b63d06a65506943cc24bca4)
REM
REM compiler GCC version 9.2.1 20190827 (Red Hat 9.2.1-1)
REM options -cpp -mtune=generic -march=x86-64 -g -O0 -fpre-include=/usr/include/finclude/math-vector-fortran.h
REM seed 180240031 186622794 986653152 2018649128 -1740530795 -1424121579 339515998 488227554 -421091922 2025907016 1933848156 1961159937 2053982473 328034311 1489756832 282235766 -1172060116 -1096141724 2111954191 -1922993893 -923762369 2059353978 1376296058 -1295193336 171757178 1811442138 1134326078 1094662070 1996399938 -1260161974 1023534455 -436823055 -1076346718
REM
CELL 1.54180   50.00000   50.00000   50.00000   90.00000   90.00000   90.00000
LATT -1
SFAC C  
C      1  0.4797020000000  0.4024300000000  0.4468600000000 1.0
C      1  0.5123170000000  0.4090880000000  0.4423110000000 1.0
C      1  0.5531430000000  0.5250140000000  0.4750260000000 1.0
C      1  0.4472120000000  0.5236930000000  0.4791950000000 1.0
C      1  0.5813210000000  0.4755770000000  0.4154430000000 1.0
C      1  0.4233250000000  0.4717610000000  0.4234620000000 1.0
C      1  0.4846000000000  0.4731390000000  0.5399050000000 1.0
C      1  0.5156420000000  0.4623200000000  0.5405770000000 1.0
C      1  0.5733740000000  0.5723710000000  0.5476020000000 1.0
C      1  0.4269440000000  0.5671940000000  0.5444900000000 1.0
C      1  0.5616520000000  0.4243910000000  0.4389990000000 1.0
C      1  0.4340310000000  0.4185900000000  0.4439810000000 1.0
C      1  0.5359860000000  0.6041420000000  0.5159910000000 1.0
C      1  0.4677960000000  0.5978720000000  0.5142330000000 1.0
C      1  0.4620270000000  0.4040020000000  0.5391370000000 1.0
C      1  0.5332750000000  0.4067910000000  0.5381320000000 1.0
C      1  0.5857270000000  0.4545020000000  0.5406260000000 1.0
C      1  0.4073830000000  0.4466520000000  0.5476900000000 1.0
C      1  0.4875660000000  0.5629060000000  0.5061940000000 1.0
C      1  0.5197120000000  0.5711110000000  0.5007260000000 1.0
C      1  0.4854500000000  0.5995410000000  0.5423350000000 1.0
C      1  0.5149360000000  0.6042400000000  0.5421680000000 1.0
C      1  0.4726730000000  0.4835050000000  0.4545590000000 1.0
C      1  0.5240320000000  0.4881630000000  0.4503480000000 1.0
C      1  0.5523900000000  0.5180190000000  0.5072070000000 1.0
C      1  0.4346440000000  0.5181610000000  0.5075230000000 1.0
C      1  0.5614090000000  0.5675700000000  0.4636060000000 1.0
C      1  0.4465030000000  0.5680880000000  0.4630740000000 1.0
C      1  0.4583820000000  0.5028400000000  0.4095630000000 1.0
C      1  0.5454020000000  0.5099140000000  0.4220340000000 1.0
C      1  0.5907500000000  0.5547880000000  0.5358060000000 1.0
C      1  0.4090750000000  0.5503910000000  0.5320650000000 1.0
C      1  0.5838770000000  0.5143150000000  0.5012290000000 1.0
C      1  0.4046630000000  0.5102190000000  0.5045750000000 1.0
C      1  0.5361990000000  0.5509750000000  0.5974370000000 1.0
C      1  0.4648080000000  0.5487200000000  0.5970070000000 1.0
C      1  0.5854130000000  0.4668420000000  0.4419870000000 1.0
C      1  0.4197130000000  0.4637540000000  0.4503160000000 1.0
C      1  0.4365360000000  0.4342430000000  0.5441330000000 1.0
C      1  0.5589440000000  0.4367660000000  0.5425400000000 1.0
C      1  0.5917710000000  0.4501610000000  0.4940910000000 1.0
C      1  0.4056940000000  0.4481380000000  0.5018380000000 1.0
C      1  0.5371650000000  0.5874180000000  0.4621640000000 1.0
C      1  0.4732490000000  0.5837900000000  0.4628930000000 1.0
C      1  0.5809550000000  0.5419060000000  0.4520380000000 1.0
C      1  0.4253680000000  0.5434660000000  0.4522270000000 1.0
C      1  0.5232840000000  0.4731700000000  0.4778430000000 1.0
C      1  0.4665770000000  0.4708960000000  0.4838450000000 1.0
C      1  0.5310830000000  0.4993060000000  0.5213450000000 1.0
C      1  0.4572620000000  0.5003960000000  0.5221100000000 1.0
C      1  0.5729740000000  0.4718700000000  0.4894430000000 1.0
C      1  0.4272200000000  0.4701800000000  0.5020920000000 1.0
C      1  0.5788090000000  0.5045230000000  0.4164210000000 1.0
C      1  0.4285740000000  0.4995200000000  0.4200790000000 1.0
C      1  0.5452750000000  0.4138950000000  0.4871020000000 1.0
C      1  0.4538920000000  0.4154110000000  0.4897630000000 1.0
C      1  0.4631460000000  0.4720940000000  0.3992860000000 1.0
C      1  0.5385810000000  0.4846740000000  0.4001780000000 1.0
C      1  0.4489810000000  0.4299710000000  0.4211080000000 1.0
C      1  0.5480670000000  0.4372200000000  0.4161660000000 1.0
C      1  0.4822810000000  0.4242990000000  0.4207740000000 1.0
C      1  0.5156620000000  0.4291620000000  0.4150320000000 1.0
C      1  0.4569170000000  0.5401500000000  0.5177470000000 1.0
C      1  0.5473810000000  0.5470890000000  0.5194210000000 1.0
C      1  0.4301540000000  0.4868920000000  0.5318350000000 1.0
C      1  0.5548460000000  0.4909270000000  0.5422470000000 1.0
C      1  0.6072020000000  0.4476990000000  0.4693320000000 1.0
C      1  0.3930100000000  0.4489940000000  0.4759130000000 1.0
C      1  0.4130110000000  0.5165980000000  0.4393060000000 1.0
C      1  0.5951230000000  0.5174210000000  0.4358590000000 1.0
C      1  0.4877310000000  0.5917480000000  0.4887710000000 1.0
C      1  0.5211490000000  0.5991880000000  0.4868930000000 1.0
C      1  0.5430330000000  0.4652970000000  0.5846140000000 1.0
C      1  0.4576120000000  0.4700720000000  0.5789960000000 1.0
C      1  0.5146790000000  0.5554900000000  0.5620300000000 1.0
C      1  0.4833620000000  0.5476700000000  0.5616390000000 1.0
C      1  0.4861830000000  0.5307620000000  0.6096100000000 1.0
C      1  0.5169090000000  0.5301330000000  0.6126390000000 1.0
C      1  0.5194650000000  0.5767940000000  0.4425920000000 1.0
C      1  0.4907200000000  0.5712920000000  0.4444780000000 1.0
C      1  0.4063690000000  0.5294720000000  0.4764320000000 1.0
C      1  0.5928240000000  0.5199790000000  0.4752590000000 1.0
C      1  0.4845970000000  0.3886210000000  0.5336290000000 1.0
C      1  0.5115320000000  0.3901220000000  0.5334160000000 1.0
C      1  0.4848250000000  0.4321990000000  0.4598880000000 1.0
C      1  0.5158380000000  0.4389310000000  0.4557660000000 1.0
C      1  0.4837750000000  0.4581260000000  0.4420030000000 1.0
C      1  0.5159210000000  0.4628430000000  0.4364960000000 1.0
C      1  0.5608110000000  0.5185350000000  0.5542920000000 1.0
C      1  0.4338280000000  0.5149700000000  0.5506550000000 1.0
C      1  0.4411450000000  0.4137510000000  0.5170960000000 1.0
C      1  0.5559730000000  0.4150050000000  0.5163540000000 1.0
C      1  0.4850050000000  0.5393400000000  0.4415920000000 1.0
C      1  0.5187950000000  0.5434890000000  0.4393660000000 1.0
C      1  0.4931360000000  0.5175610000000  0.3966910000000 1.0
C      1  0.5178540000000  0.5192990000000  0.3944520000000 1.0
C      1  0.4540650000000  0.5381870000000  0.5490760000000 1.0
C      1  0.5439150000000  0.5435700000000  0.5506680000000 1.0
C      1  0.4800970000000  0.4440530000000  0.5765650000000 1.0
C      1  0.5138650000000  0.4464370000000  0.5801340000000 1.0
C      1  0.5161830000000  0.4945870000000  0.5514570000000 1.0
C      1  0.4862210000000  0.5044850000000  0.5489950000000 1.0
C      1  0.4537460000000  0.5489740000000  0.4357520000000 1.0
C      1  0.5516340000000  0.5484850000000  0.4376640000000 1.0
C      1  0.5226540000000  0.5000970000000  0.6175440000000 1.0
C      1  0.4911150000000  0.5001060000000  0.6095790000000 1.0
C      1  0.4026340000000  0.4723290000000  0.5396390000000 1.0
C      1  0.5831980000000  0.4809490000000  0.5350010000000 1.0
C      1  0.4870350000000  0.4563700000000  0.4097180000000 1.0
C      1  0.5183890000000  0.4615460000000  0.4043940000000 1.0
C      1  0.5914940000000  0.5554880000000  0.5082520000000 1.0
C      1  0.4104180000000  0.5496300000000  0.5035500000000 1.0
C      1  0.4792410000000  0.4919320000000  0.5051660000000 1.0
C      1  0.5107530000000  0.4927660000000  0.5006170000000 1.0
C      1  0.5645800000000  0.5525890000000  0.4916010000000 1.0
C      1  0.4407470000000  0.5539410000000  0.4911210000000 1.0
C      1  0.5863460000000  0.4370470000000  0.4476570000000 1.0
C      1  0.4125600000000  0.4348370000000  0.4548730000000 1.0
C      1  0.4475900000000  0.5883080000000  0.5392440000000 1.0
C      1  0.5530380000000  0.5935760000000  0.5413410000000 1.0
C      1  0.5738410000000  0.4836510000000  0.4623140000000 1.0
C      1  0.4294920000000  0.4794920000000  0.4716170000000 1.0
C      1  0.4890920000000  0.4538990000000  0.5120880000000 1.0
C      1  0.5206770000000  0.4522570000000  0.5115250000000 1.0
C      1  0.5311450000000  0.5022020000000  0.5754600000000 1.0
C      1  0.4675780000000  0.5080340000000  0.5714520000000 1.0
C      1  0.4112980000000  0.4247220000000  0.5146290000000 1.0
C      1  0.5848640000000  0.4283230000000  0.5107370000000 1.0
C      1  0.4883920000000  0.5317680000000  0.4946760000000 1.0
C      1  0.5213310000000  0.5398220000000  0.4900290000000 1.0
C      1  0.4516850000000  0.4045390000000  0.4623520000000 1.0
C      1  0.5432450000000  0.4098940000000  0.4564430000000 1.0
C      1  0.4660020000000  0.5354870000000  0.4070170000000 1.0
C      1  0.5415790000000  0.5403400000000  0.4068630000000 1.0
C      1  0.4732940000000  0.4386330000000  0.4871160000000 1.0
C      1  0.5291220000000  0.4396820000000  0.4826100000000 1.0
C      1  0.4482280000000  0.5637820000000  0.5708900000000 1.0
C      1  0.5510460000000  0.5684590000000  0.5722880000000 1.0
C      1  0.3859050000000  0.4762680000000  0.4675910000000 1.0
C      1  0.6193480000000  0.4734320000000  0.4620000000000 1.0
C      1  0.4445280000000  0.5274230000000  0.5870400000000 1.0
C      1  0.5508700000000  0.5239670000000  0.5925130000000 1.0
C      1  0.5476130000000  0.4698310000000  0.5002360000000 1.0
C      1  0.4557990000000  0.4611510000000  0.5151100000000 1.0
C      1  0.4566140000000  0.4602990000000  0.5485860000000 1.0
C      1  0.5437890000000  0.4644340000000  0.5536880000000 1.0
C      1  0.4845480000000  0.5720820000000  0.5851330000000 1.0
C      1  0.5158630000000  0.5764570000000  0.5887860000000 1.0
C      1  0.5177910000000  0.4712580000000  0.6035530000000 1.0
C      1  0.4854520000000  0.4713650000000  0.5961280000000 1.0
C      1  0.4393390000000  0.5042140000000  0.4622160000000 1.0
C      1  0.5587840000000  0.5070650000000  0.4538460000000 1.0
C      1  0.3942240000000  0.5013230000000  0.4615510000000 1.0
C      1  0.6100460000000  0.4999340000000  0.4575730000000 1.0
C      1  0.5325710000000  0.5965450000000  0.5685120000000 1.0
C      1  0.4665780000000  0.5922060000000  0.5673010000000 1.0
C      1  0.4806200000000  0.5669570000000  0.5353280000000 1.0
C      1  0.5201420000000  0.5721050000000  0.5339100000000 1.0
C      1  0.4391730000000  0.4938560000000  0.5841430000000 1.0
C      1  0.5614340000000  0.4918280000000  0.5878870000000 1.0
C      1  0.5822170000000  0.5178200000000  0.5799730000000 1.0
C      1  0.4137300000000  0.5158120000000  0.5782630000000 1.0
C      1  0.5583180000000  0.4618090000000  0.4041340000000 1.0
C      1  0.4412320000000  0.4550220000000  0.4087120000000 1.0
C      1  0.5315630000000  0.4273410000000  0.5608680000000 1.0
C      1  0.4635610000000  0.4235360000000  0.5620990000000 1.0
C      1  0.4903000000000  0.5573030000000  0.3989820000000 1.0
C      1  0.5150810000000  0.5588470000000  0.3991850000000 1.0
C      1  0.5126900000000  0.5121830000000  0.4334040000000 1.0
C      1  0.4797820000000  0.5077700000000  0.4339480000000 1.0
C      1  0.3926610000000  0.5002070000000  0.5294440000000 1.0
C      1  0.5960610000000  0.5049830000000  0.5258770000000 1.0
C      1  0.5155030000000  0.5119550000000  0.4731850000000 1.0
C      1  0.4829080000000  0.5062680000000  0.4753660000000 1.0
C      1  0.5927650000000  0.5270400000000  0.5488030000000 1.0
C      1  0.4011680000000  0.5241940000000  0.5481730000000 1.0
C      1  0.4863740000000  0.5265700000000  0.5280690000000 1.0
C      1  0.5145080000000  0.5395400000000  0.5239270000000 1.0
END
