TITL C-2782238-9940-836 0.0016985633360736 125000 -1003.44530066755 0 0 170 (C1) n - 1
REM
REM in /home/nfs/bkarasulu/CARBON/AIRSS/Generating-Clusters/REBO/Higher-Symm/SD-CG/HFTN-CG
REM
REM
REM
REM
REM
REM ./C.cell (12c818d87b63d06a65506943cc24bca4)
REM
REM compiler GCC version 9.2.1 20190827 (Red Hat 9.2.1-1)
REM options -cpp -mtune=generic -march=x86-64 -g -O0 -fpre-include=/usr/include/finclude/math-vector-fortran.h
REM seed -1454818819 -795939884 2109962031 -631352612 944368486 476869286 -1456285461 -2015201728 1424606967 1262911311 -509995474 -275596819 -1883773234 -409800689 1074412841 2062692066 1490307316 -747017775 655112152 -1156727472 575514484 1369496944 -1193059112 -1826059553 -379955009 168463122 2129254808 290807078 -156822794 407454440 -602613523 967002330 -1165109366
REM
CELL 1.54180   50.00000   50.00000   50.00000   90.00000   90.00000   90.00000
LATT -1
SFAC C  
C      1  0.4802800000000  0.5700570000000  0.4215020000000 1.0
C      1  0.5641480000000  0.4820200000000  0.4254910000000 1.0
C      1  0.4515190000000  0.4480340000000  0.4217610000000 1.0
C      1  0.4798530000000  0.4322400000000  0.5761540000000 1.0
C      1  0.5646420000000  0.5156840000000  0.5746330000000 1.0
C      1  0.4525570000000  0.5527500000000  0.5775780000000 1.0
C      1  0.5290380000000  0.5157270000000  0.4636070000000 1.0
C      1  0.4952100000000  0.4690980000000  0.4640840000000 1.0
C      1  0.4761480000000  0.5182030000000  0.4673600000000 1.0
C      1  0.5319390000000  0.4884730000000  0.5328810000000 1.0
C      1  0.4912320000000  0.5352330000000  0.5331290000000 1.0
C      1  0.4750730000000  0.4761120000000  0.5328060000000 1.0
C      1  0.4282940000000  0.5764060000000  0.4540900000000 1.0
C      1  0.6016540000000  0.5222200000000  0.4547010000000 1.0
C      1  0.4710920000000  0.4012140000000  0.4546120000000 1.0
C      1  0.4312360000000  0.4235860000000  0.5433340000000 1.0
C      1  0.6008460000000  0.4763010000000  0.5439810000000 1.0
C      1  0.4690730000000  0.5988710000000  0.5434510000000 1.0
C      1  0.5523760000000  0.5168630000000  0.5070560000000 1.0
C      1  0.4902480000000  0.4445910000000  0.5078470000000 1.0
C      1  0.4563740000000  0.5418990000000  0.5090670000000 1.0
C      1  0.5544170000000  0.4797810000000  0.4905380000000 1.0
C      1  0.4889790000000  0.5588500000000  0.4937020000000 1.0
C      1  0.4561070000000  0.4609610000000  0.4915470000000 1.0
C      1  0.5253740000000  0.5375740000000  0.5943480000000 1.0
C      1  0.5197030000000  0.4571130000000  0.5938750000000 1.0
C      1  0.4535480000000  0.5042120000000  0.5935610000000 1.0
C      1  0.5243860000000  0.4611100000000  0.4080310000000 1.0
C      1  0.5177440000000  0.5413540000000  0.4025070000000 1.0
C      1  0.4526000000000  0.4959870000000  0.4049080000000 1.0
C      1  0.5706290000000  0.4575840000000  0.4374740000000 1.0
C      1  0.4259950000000  0.4450540000000  0.4312430000000 1.0
C      1  0.4929460000000  0.5925500000000  0.4309830000000 1.0
C      1  0.5673590000000  0.5395370000000  0.5601590000000 1.0
C      1  0.4272940000000  0.5542300000000  0.5671110000000 1.0
C      1  0.4912680000000  0.4092790000000  0.5667440000000 1.0
C      1  0.5744060000000  0.5399920000000  0.4607550000000 1.0
C      1  0.4997560000000  0.4155030000000  0.4624540000000 1.0
C      1  0.4298710000000  0.5438610000000  0.4614390000000 1.0
C      1  0.5746230000000  0.4571590000000  0.5376040000000 1.0
C      1  0.5004950000000  0.5888790000000  0.5405210000000 1.0
C      1  0.4260240000000  0.4558500000000  0.5376940000000 1.0
C      1  0.4476140000000  0.4921230000000  0.5218430000000 1.0
C      1  0.5178180000000  0.5443250000000  0.5173060000000 1.0
C      1  0.5287430000000  0.4594530000000  0.5175680000000 1.0
C      1  0.4505110000000  0.5012990000000  0.4780930000000 1.0
C      1  0.5194460000000  0.4591030000000  0.4843050000000 1.0
C      1  0.5230890000000  0.5370810000000  0.4854180000000 1.0
C      1  0.4159650000000  0.5721180000000  0.4857440000000 1.0
C      1  0.6053500000000  0.5365500000000  0.4856700000000 1.0
C      1  0.4806350000000  0.3891130000000  0.4853600000000 1.0
C      1  0.4158000000000  0.4263570000000  0.5128610000000 1.0
C      1  0.6058820000000  0.4617710000000  0.5132560000000 1.0
C      1  0.4805930000000  0.6102080000000  0.5132310000000 1.0
C      1  0.4304510000000  0.4756570000000  0.5011970000000 1.0
C      1  0.5152320000000  0.5729990000000  0.5009200000000 1.0
C      1  0.5553150000000  0.4495970000000  0.4988010000000 1.0
C      1  0.4340230000000  0.5202940000000  0.4970880000000 1.0
C      1  0.5162320000000  0.4276770000000  0.4971900000000 1.0
C      1  0.5527580000000  0.5476870000000  0.4982460000000 1.0
C      1  0.4103670000000  0.4662680000000  0.4769870000000 1.0
C      1  0.5185780000000  0.5946440000000  0.4772270000000 1.0
C      1  0.5743910000000  0.4355550000000  0.4766120000000 1.0
C      1  0.4133900000000  0.5310120000000  0.5217180000000 1.0
C      1  0.5179880000000  0.4054850000000  0.5212470000000 1.0
C      1  0.5709640000000  0.5615340000000  0.5213770000000 1.0
C      1  0.4948990000000  0.4679470000000  0.4070100000000 1.0
C      1  0.4730950000000  0.5218240000000  0.4134120000000 1.0
C      1  0.5232800000000  0.5106450000000  0.4123620000000 1.0
C      1  0.4956830000000  0.5293140000000  0.5853430000000 1.0
C      1  0.4760990000000  0.4808580000000  0.5875800000000 1.0
C      1  0.5265800000000  0.4877800000000  0.5878700000000 1.0
C      1  0.4515120000000  0.5921610000000  0.5178950000000 1.0
C      1  0.6053590000000  0.4958820000000  0.5190910000000 1.0
C      1  0.4459600000000  0.4103170000000  0.5185190000000 1.0
C      1  0.4511810000000  0.4062290000000  0.4791800000000 1.0
C      1  0.6056950000000  0.5025060000000  0.4797460000000 1.0
C      1  0.4447140000000  0.5905110000000  0.4786220000000 1.0
C      1  0.5258920000000  0.4927240000000  0.4864180000000 1.0
C      1  0.4782350000000  0.4834260000000  0.4876280000000 1.0
C      1  0.4911050000000  0.5277160000000  0.4926900000000 1.0
C      1  0.5209770000000  0.5104310000000  0.5148470000000 1.0
C      1  0.4723160000000  0.5136450000000  0.5174060000000 1.0
C      1  0.4989020000000  0.4761830000000  0.5137350000000 1.0
C      1  0.4332060000000  0.5112220000000  0.4219060000000 1.0
C      1  0.5412050000000  0.5566180000000  0.4111060000000 1.0
C      1  0.5290030000000  0.4380510000000  0.4238870000000 1.0
C      1  0.4299720000000  0.4923550000000  0.5814620000000 1.0
C      1  0.5417100000000  0.4427210000000  0.5815060000000 1.0
C      1  0.5266980000000  0.5648760000000  0.5821890000000 1.0
C      1  0.4618890000000  0.4875510000000  0.5584940000000 1.0
C      1  0.5121800000000  0.5381190000000  0.5568000000000 1.0
C      1  0.5284860000000  0.4717430000000  0.5579310000000 1.0
C      1  0.4667330000000  0.5032230000000  0.4415950000000 1.0
C      1  0.4865070000000  0.4782230000000  0.4384120000000 1.0
C      1  0.5311920000000  0.5294220000000  0.4380710000000 1.0
C      1  0.4076790000000  0.5387840000000  0.4848470000000 1.0
C      1  0.5812520000000  0.5608620000000  0.4846250000000 1.0
C      1  0.5141820000000  0.3964830000000  0.4843660000000 1.0
C      1  0.4037310000000  0.4585300000000  0.5137400000000 1.0
C      1  0.5830280000000  0.4362160000000  0.5137800000000 1.0
C      1  0.5142540000000  0.6039190000000  0.5140140000000 1.0
C      1  0.3980830000000  0.5062220000000  0.4870880000000 1.0
C      1  0.5579680000000  0.5855470000000  0.4872730000000 1.0
C      1  0.5471660000000  0.4047120000000  0.4870840000000 1.0
C      1  0.3955010000000  0.4915730000000  0.5112960000000 1.0
C      1  0.5588890000000  0.4122480000000  0.5116850000000 1.0
C      1  0.5468760000000  0.5941260000000  0.5118710000000 1.0
C      1  0.5667990000000  0.6004900000000  0.5576980000000 1.0
C      1  0.5503980000000  0.3934920000000  0.5578750000000 1.0
C      1  0.3820830000000  0.5101770000000  0.5566990000000 1.0
C      1  0.5744690000000  0.3904750000000  0.4470680000000 1.0
C      1  0.5522910000000  0.6097840000000  0.4429000000000 1.0
C      1  0.3847110000000  0.4910750000000  0.4399320000000 1.0
C      1  0.4549600000000  0.5642040000000  0.4381250000000 1.0
C      1  0.5773960000000  0.5078520000000  0.4374020000000 1.0
C      1  0.4722030000000  0.4303210000000  0.4377470000000 1.0
C      1  0.4538260000000  0.4393610000000  0.5609880000000 1.0
C      1  0.5753280000000  0.4899570000000  0.5603200000000 1.0
C      1  0.4720140000000  0.5732890000000  0.5637240000000 1.0
C      1  0.4680620000000  0.6036100000000  0.4837600000000 1.0
C      1  0.6054050000000  0.4763520000000  0.4844070000000 1.0
C      1  0.4286920000000  0.4195790000000  0.4839200000000 1.0
C      1  0.4686780000000  0.3978540000000  0.5139640000000 1.0
C      1  0.6045020000000  0.5221190000000  0.5143800000000 1.0
C      1  0.4293730000000  0.5786010000000  0.5135390000000 1.0
C      1  0.4648100000000  0.5303490000000  0.5885110000000 1.0
C      1  0.5422420000000  0.5140760000000  0.5908200000000 1.0
C      1  0.4913730000000  0.4535680000000  0.5896320000000 1.0
C      1  0.4626150000000  0.4695130000000  0.4075680000000 1.0
C      1  0.5403790000000  0.4845460000000  0.4111210000000 1.0
C      1  0.4899310000000  0.5473860000000  0.4084520000000 1.0
C      1  0.5645970000000  0.4589590000000  0.5693140000000 1.0
C      1  0.4319170000000  0.4639490000000  0.5695200000000 1.0
C      1  0.5033860000000  0.5786350000000  0.5725830000000 1.0
C      1  0.5630590000000  0.5372640000000  0.4291070000000 1.0
C      1  0.4344790000000  0.5387620000000  0.4292720000000 1.0
C      1  0.5057880000000  0.4266930000000  0.4334080000000 1.0
C      1  0.4215600000000  0.5567220000000  0.5354740000000 1.0
C      1  0.5881150000000  0.5393660000000  0.5356060000000 1.0
C      1  0.4914650000000  0.4018110000000  0.5355260000000 1.0
C      1  0.4210250000000  0.4416600000000  0.4625630000000 1.0
C      1  0.5907040000000  0.4587190000000  0.4624370000000 1.0
C      1  0.4918140000000  0.5983280000000  0.4625940000000 1.0
C      1  0.5710990000000  0.5105690000000  0.5331330000000 1.0
C      1  0.4755660000000  0.4311030000000  0.5353890000000 1.0
C      1  0.4548920000000  0.5580190000000  0.5380900000000 1.0
C      1  0.5723300000000  0.4871120000000  0.4643110000000 1.0
C      1  0.4755510000000  0.5691660000000  0.4650120000000 1.0
C      1  0.4544020000000  0.4430720000000  0.4642720000000 1.0
C      1  0.5555800000000  0.5819730000000  0.5401260000000 1.0
C      1  0.5423180000000  0.4121760000000  0.5387170000000 1.0
C      1  0.4024660000000  0.5069440000000  0.5380790000000 1.0
C      1  0.5614230000000  0.4121520000000  0.4589060000000 1.0
C      1  0.5428980000000  0.5885480000000  0.4586970000000 1.0
C      1  0.4044070000000  0.4910320000000  0.4595130000000 1.0
C      1  0.5618930000000  0.4812360000000  0.5222330000000 1.0
C      1  0.4543700000000  0.4527500000000  0.5233250000000 1.0
C      1  0.4837860000000  0.5664290000000  0.5247470000000 1.0
C      1  0.5592500000000  0.5159480000000  0.4748170000000 1.0
C      1  0.4574160000000  0.5437980000000  0.4750660000000 1.0
C      1  0.4855650000000  0.4399590000000  0.4751160000000 1.0
C      1  0.5534510000000  0.4352900000000  0.4378050000000 1.0
C      1  0.4339630000000  0.4962920000000  0.4501820000000 1.0
C      1  0.5371300000000  0.5630610000000  0.4427910000000 1.0
C      1  0.5414950000000  0.5559740000000  0.5553140000000 1.0
C      1  0.4305310000000  0.4979600000000  0.5488780000000 1.0
C      1  0.5357560000000  0.4401810000000  0.5496780000000 1.0
C      1  0.4953120000000  0.4996500000000  0.4140230000000 1.0
C      1  0.4992830000000  0.4998860000000  0.5925150000000 1.0
END
