TITL C-2782225-7408-532 -0.00193754410373426 125000 -811.655104966489 0 0 136 (C1) n - 1
REM
REM in /home/nfs/bkarasulu/CARBON/AIRSS/Generating-Clusters/REBO/Higher-Symm/SD-CG/HFTN-CG
REM
REM
REM
REM
REM
REM ./C.cell (12c818d87b63d06a65506943cc24bca4)
REM
REM compiler GCC version 9.2.1 20190827 (Red Hat 9.2.1-1)
REM options -cpp -mtune=generic -march=x86-64 -g -O0 -fpre-include=/usr/include/finclude/math-vector-fortran.h
REM seed 1444033456 -372263728 -536636350 1149612195 -1524566783 1037539890 -1809792036 -1240038058 364051130 210418186 -2048326395 1974635175 1868450331 -896797951 -995373598 1445995351 -1656860247 -248790580 -321540411 861529490 -1390278156 -749328401 2094163364 -420615163 1468803501 -1242304963 -273115813 597404908 1025928255 1781656586 571327333 -957056677 -1697145981
REM
CELL 1.54180   50.00000   50.00000   50.00000   90.00000   90.00000   90.00000
LATT -1
SFAC C  
C      1  0.5119550000000  0.5016710000000  0.5330650000000 1.0
C      1  0.5121980000000  0.4737500000000  0.5213350000000 1.0
C      1  0.5091900000000  0.4646630000000  0.4891850000000 1.0
C      1  0.5049420000000  0.4854380000000  0.4622560000000 1.0
C      1  0.5039800000000  0.5196920000000  0.4643190000000 1.0
C      1  0.5074990000000  0.5380240000000  0.4928910000000 1.0
C      1  0.5107370000000  0.5290210000000  0.5207050000000 1.0
C      1  0.4719510000000  0.5313720000000  0.5097740000000 1.0
C      1  0.4741100000000  0.5141390000000  0.5327950000000 1.0
C      1  0.4747590000000  0.4851480000000  0.5294560000000 1.0
C      1  0.4735720000000  0.4679450000000  0.5069020000000 1.0
C      1  0.4709310000000  0.4738870000000  0.4798540000000 1.0
C      1  0.4681880000000  0.4995280000000  0.4682000000000 1.0
C      1  0.4685260000000  0.5251840000000  0.4817020000000 1.0
C      1  0.5257900000000  0.5599410000000  0.4810270000000 1.0
C      1  0.5242660000000  0.5519270000000  0.5405140000000 1.0
C      1  0.5234110000000  0.5022520000000  0.5618940000000 1.0
C      1  0.5322030000000  0.4551170000000  0.5381630000000 1.0
C      1  0.5287640000000  0.4396690000000  0.4856450000000 1.0
C      1  0.5286270000000  0.4732470000000  0.4453680000000 1.0
C      1  0.5286350000000  0.5244140000000  0.4447530000000 1.0
C      1  0.4580200000000  0.4193370000000  0.4902400000000 1.0
C      1  0.4588830000000  0.4565410000000  0.4308970000000 1.0
C      1  0.4665810000000  0.5227650000000  0.4219750000000 1.0
C      1  0.4642490000000  0.5744890000000  0.4715220000000 1.0
C      1  0.4575360000000  0.5679970000000  0.5437750000000 1.0
C      1  0.4569650000000  0.5081650000000  0.5841300000000 1.0
C      1  0.4612450000000  0.4415780000000  0.5580400000000 1.0
C      1  0.5155320000000  0.5799510000000  0.5463440000000 1.0
C      1  0.5218500000000  0.5229400000000  0.5872650000000 1.0
C      1  0.5236030000000  0.4421780000000  0.5676490000000 1.0
C      1  0.5186200000000  0.4110000000000  0.4949850000000 1.0
C      1  0.5210150000000  0.4451070000000  0.4312350000000 1.0
C      1  0.5257640000000  0.5134800000000  0.4159350000000 1.0
C      1  0.5165270000000  0.5832430000000  0.4677230000000 1.0
C      1  0.4396240000000  0.5266530000000  0.5702550000000 1.0
C      1  0.4411970000000  0.4640580000000  0.5678470000000 1.0
C      1  0.4400980000000  0.4249850000000  0.5151150000000 1.0
C      1  0.4378570000000  0.4416800000000  0.4495740000000 1.0
C      1  0.4409340000000  0.5027600000000  0.4234860000000 1.0
C      1  0.4456190000000  0.5569850000000  0.4526250000000 1.0
C      1  0.4410220000000  0.5724470000000  0.5169300000000 1.0
C      1  0.4095880000000  0.4837340000000  0.5279980000000 1.0
C      1  0.4085360000000  0.4668450000000  0.5053930000000 1.0
C      1  0.4077890000000  0.4742730000000  0.4779430000000 1.0
C      1  0.4093480000000  0.5002450000000  0.4666680000000 1.0
C      1  0.4110740000000  0.5250700000000  0.4798180000000 1.0
C      1  0.4096740000000  0.5306530000000  0.5074950000000 1.0
C      1  0.4090990000000  0.5120030000000  0.5289910000000 1.0
C      1  0.4809310000000  0.4693360000000  0.5537410000000 1.0
C      1  0.4797750000000  0.4389440000000  0.5110710000000 1.0
C      1  0.4778490000000  0.4519600000000  0.4597750000000 1.0
C      1  0.4832740000000  0.4979770000000  0.4383180000000 1.0
C      1  0.4828710000000  0.5470340000000  0.4632250000000 1.0
C      1  0.4798270000000  0.5598780000000  0.5184920000000 1.0
C      1  0.4842670000000  0.5274490000000  0.5568060000000 1.0
C      1  0.5708490000000  0.5606790000000  0.5087910000000 1.0
C      1  0.5727580000000  0.5337160000000  0.5537410000000 1.0
C      1  0.5680680000000  0.4786190000000  0.5571760000000 1.0
C      1  0.5775370000000  0.4379780000000  0.5210290000000 1.0
C      1  0.5736330000000  0.4449480000000  0.4611140000000 1.0
C      1  0.5775660000000  0.4928030000000  0.4334260000000 1.0
C      1  0.5763050000000  0.5464350000000  0.4503740000000 1.0
C      1  0.4189300000000  0.5014290000000  0.4400380000000 1.0
C      1  0.4231580000000  0.5452610000000  0.4639400000000 1.0
C      1  0.4183270000000  0.5567650000000  0.5139530000000 1.0
C      1  0.4174010000000  0.5218870000000  0.5541170000000 1.0
C      1  0.4198690000000  0.4714730000000  0.5515440000000 1.0
C      1  0.4174640000000  0.4404970000000  0.5107850000000 1.0
C      1  0.4152920000000  0.4537880000000  0.4599860000000 1.0
C      1  0.5051890000000  0.5807490000000  0.5079490000000 1.0
C      1  0.5002720000000  0.5536140000000  0.5722420000000 1.0
C      1  0.5050630000000  0.4798840000000  0.5754750000000 1.0
C      1  0.5036750000000  0.4245900000000  0.5312970000000 1.0
C      1  0.4984610000000  0.4243400000000  0.4628410000000 1.0
C      1  0.5024190000000  0.4810020000000  0.4156020000000 1.0
C      1  0.5099090000000  0.5526460000000  0.4428530000000 1.0
C      1  0.5529090000000  0.5152280000000  0.4587530000000 1.0
C      1  0.5466890000000  0.5421130000000  0.4989090000000 1.0
C      1  0.5492790000000  0.5342580000000  0.5296500000000 1.0
C      1  0.5505800000000  0.5031500000000  0.5414150000000 1.0
C      1  0.5519960000000  0.4761340000000  0.5207630000000 1.0
C      1  0.5508570000000  0.4649040000000  0.4896600000000 1.0
C      1  0.5525260000000  0.4828520000000  0.4628910000000 1.0
C      1  0.4879750000000  0.5207480000000  0.5903900000000 1.0
C      1  0.4922480000000  0.4426100000000  0.5724920000000 1.0
C      1  0.4881710000000  0.4076960000000  0.4991640000000 1.0
C      1  0.4895020000000  0.4417500000000  0.4286210000000 1.0
C      1  0.4944860000000  0.5179690000000  0.4030590000000 1.0
C      1  0.4905560000000  0.5852930000000  0.4550840000000 1.0
C      1  0.4856050000000  0.5859350000000  0.5417670000000 1.0
C      1  0.4552580000000  0.4199040000000  0.5384450000000 1.0
C      1  0.4516520000000  0.4199350000000  0.4609400000000 1.0
C      1  0.4544630000000  0.4799930000000  0.4128830000000 1.0
C      1  0.4613980000000  0.5513720000000  0.4297790000000 1.0
C      1  0.4570440000000  0.5862160000000  0.4980390000000 1.0
C      1  0.4517930000000  0.5523700000000  0.5687860000000 1.0
C      1  0.4556140000000  0.4799470000000  0.5866100000000 1.0
C      1  0.4734440000000  0.5516620000000  0.5867410000000 1.0
C      1  0.4805220000000  0.4671710000000  0.5933890000000 1.0
C      1  0.4787220000000  0.4051210000000  0.5319880000000 1.0
C      1  0.4749120000000  0.4150410000000  0.4451210000000 1.0
C      1  0.4775920000000  0.4886290000000  0.3995990000000 1.0
C      1  0.4844430000000  0.5682000000000  0.4294970000000 1.0
C      1  0.4791830000000  0.5988900000000  0.5108770000000 1.0
C      1  0.5511950000000  0.4620140000000  0.5726090000000 1.0
C      1  0.5524210000000  0.4308730000000  0.5270970000000 1.0
C      1  0.5442570000000  0.4379520000000  0.4553450000000 1.0
C      1  0.5487030000000  0.4907760000000  0.4238730000000 1.0
C      1  0.5591100000000  0.5545540000000  0.4310400000000 1.0
C      1  0.5573880000000  0.5856230000000  0.5132650000000 1.0
C      1  0.5453050000000  0.5399620000000  0.5688670000000 1.0
C      1  0.5851040000000  0.5332350000000  0.5045970000000 1.0
C      1  0.5858650000000  0.5178000000000  0.5296150000000 1.0
C      1  0.5871120000000  0.4890690000000  0.5343650000000 1.0
C      1  0.5842520000000  0.4674320000000  0.5110410000000 1.0
C      1  0.5845720000000  0.4665290000000  0.4794170000000 1.0
C      1  0.5859590000000  0.4937290000000  0.4628080000000 1.0
C      1  0.5824420000000  0.5242660000000  0.4745280000000 1.0
C      1  0.5309760000000  0.5927890000000  0.5037340000000 1.0
C      1  0.5265170000000  0.5618450000000  0.5799180000000 1.0
C      1  0.5322360000000  0.4758460000000  0.5905480000000 1.0
C      1  0.5293000000000  0.4153590000000  0.5386390000000 1.0
C      1  0.5237420000000  0.4136610000000  0.4557860000000 1.0
C      1  0.5276200000000  0.4749720000000  0.4055840000000 1.0
C      1  0.5329920000000  0.5553130000000  0.4200530000000 1.0
C      1  0.5313000000000  0.3912530000000  0.4756940000000 1.0
C      1  0.5338040000000  0.4464940000000  0.4006280000000 1.0
C      1  0.5198700000000  0.5396970000000  0.3962340000000 1.0
C      1  0.5307890000000  0.6084790000000  0.4772800000000 1.0
C      1  0.5309630000000  0.5906970000000  0.5701470000000 1.0
C      1  0.5369430000000  0.4998390000000  0.6036230000000 1.0
C      1  0.5328070000000  0.4097760000000  0.5685260000000 1.0
C      1  0.4948760000000  0.5004610000000  0.4976400000000 1.0
C      1  0.5448290000000  0.5144050000000  0.4885140000000 1.0
C      1  0.5224840000000  0.5011920000000  0.4945230000000 1.0
END
