TITL C-2782232-2968-290 -0.001079686030985 125000 -987.931347053633 0 0 173 (C1) n - 1
REM
REM in /home/nfs/bkarasulu/CARBON/AIRSS/Generating-Clusters/REBO/Higher-Symm/SD-CG/HFTN-CG
REM
REM
REM
REM
REM
REM ./C.cell (12c818d87b63d06a65506943cc24bca4)
REM
REM compiler GCC version 9.2.1 20190827 (Red Hat 9.2.1-1)
REM options -cpp -mtune=generic -march=x86-64 -g -O0 -fpre-include=/usr/include/finclude/math-vector-fortran.h
REM seed -1018489122 -967256907 -700913374 -1136475967 -1578916915 -1283208119 1261630277 -528659657 1973993568 2098715733 27723960 -787824442 24462322 -655968547 1196973522 1064595798 -1560304651 508618434 1522619533 708128541 933512444 1531250286 -1371193945 -1045333240 234303650 1918093494 1892295535 289284584 1263449507 442592189 -1135671394 -1608055417 243445606
REM
CELL 1.54180   50.00000   50.00000   50.00000   90.00000   90.00000   90.00000
LATT -1
SFAC C  
C      1  0.4819160000000  0.5495510000000  0.4910360000000 1.0
C      1  0.5232430000000  0.5461110000000  0.4951580000000 1.0
C      1  0.5100720000000  0.5883530000000  0.5883360000000 1.0
C      1  0.4771590000000  0.5848090000000  0.5804460000000 1.0
C      1  0.4795710000000  0.5520020000000  0.4064550000000 1.0
C      1  0.5122820000000  0.5489970000000  0.4122980000000 1.0
C      1  0.6128410000000  0.4910340000000  0.5199260000000 1.0
C      1  0.3897310000000  0.4919310000000  0.5176730000000 1.0
C      1  0.5750290000000  0.4267090000000  0.4578350000000 1.0
C      1  0.4217260000000  0.4319130000000  0.4565700000000 1.0
C      1  0.5464560000000  0.5696300000000  0.5175280000000 1.0
C      1  0.4585600000000  0.5570160000000  0.5230090000000 1.0
C      1  0.5171640000000  0.4415900000000  0.4932660000000 1.0
C      1  0.4841590000000  0.4333830000000  0.4956660000000 1.0
C      1  0.4872950000000  0.5719860000000  0.5141180000000 1.0
C      1  0.5144390000000  0.5606530000000  0.5213770000000 1.0
C      1  0.5793520000000  0.4660070000000  0.5454620000000 1.0
C      1  0.4132530000000  0.4601550000000  0.5473380000000 1.0
C      1  0.4182110000000  0.4587250000000  0.4362570000000 1.0
C      1  0.5793540000000  0.4533710000000  0.4370370000000 1.0
C      1  0.4193380000000  0.4808830000000  0.5651070000000 1.0
C      1  0.5792380000000  0.4929550000000  0.5641640000000 1.0
C      1  0.5134220000000  0.5433740000000  0.5453170000000 1.0
C      1  0.4859440000000  0.5406890000000  0.5583650000000 1.0
C      1  0.5100820000000  0.3932550000000  0.5098940000000 1.0
C      1  0.4861560000000  0.3811280000000  0.5183930000000 1.0
C      1  0.4490520000000  0.4126570000000  0.4491840000000 1.0
C      1  0.5469300000000  0.4099590000000  0.4475190000000 1.0
C      1  0.4638240000000  0.4657200000000  0.4626900000000 1.0
C      1  0.5440420000000  0.4654770000000  0.4512660000000 1.0
C      1  0.5141860000000  0.4716340000000  0.4387970000000 1.0
C      1  0.4847930000000  0.4793240000000  0.4415470000000 1.0
C      1  0.4891350000000  0.5993440000000  0.5003130000000 1.0
C      1  0.5229550000000  0.6013130000000  0.5055110000000 1.0
C      1  0.4172540000000  0.5073360000000  0.5578950000000 1.0
C      1  0.5854210000000  0.5183180000000  0.5580750000000 1.0
C      1  0.4737430000000  0.5981040000000  0.5497570000000 1.0
C      1  0.5054130000000  0.5987430000000  0.5561100000000 1.0
C      1  0.6033330000000  0.5661850000000  0.5036350000000 1.0
C      1  0.3992590000000  0.5643740000000  0.5089120000000 1.0
C      1  0.4265550000000  0.5609950000000  0.5289870000000 1.0
C      1  0.5784860000000  0.5696380000000  0.5267890000000 1.0
C      1  0.5805860000000  0.5405760000000  0.4504570000000 1.0
C      1  0.4111190000000  0.5457820000000  0.4508760000000 1.0
C      1  0.5489540000000  0.5961570000000  0.4837150000000 1.0
C      1  0.4593580000000  0.5925400000000  0.4838710000000 1.0
C      1  0.5514830000000  0.4746940000000  0.5727360000000 1.0
C      1  0.4455380000000  0.4704120000000  0.5807220000000 1.0
C      1  0.5748880000000  0.4268430000000  0.4922190000000 1.0
C      1  0.4182940000000  0.4250590000000  0.4902150000000 1.0
C      1  0.5948170000000  0.4765160000000  0.4518110000000 1.0
C      1  0.4017950000000  0.4802040000000  0.4509660000000 1.0
C      1  0.4106280000000  0.5131900000000  0.4472380000000 1.0
C      1  0.5866560000000  0.5095050000000  0.4480220000000 1.0
C      1  0.6091750000000  0.4629540000000  0.4744540000000 1.0
C      1  0.3890990000000  0.4660530000000  0.4740860000000 1.0
C      1  0.4737360000000  0.4617450000000  0.5363560000000 1.0
C      1  0.5218430000000  0.4593390000000  0.5324970000000 1.0
C      1  0.5306690000000  0.5945000000000  0.5346230000000 1.0
C      1  0.4545180000000  0.5895620000000  0.5287290000000 1.0
C      1  0.5222810000000  0.5156720000000  0.5335600000000 1.0
C      1  0.4702160000000  0.5176150000000  0.5414840000000 1.0
C      1  0.4508290000000  0.4387160000000  0.4718300000000 1.0
C      1  0.5454080000000  0.4399990000000  0.4650060000000 1.0
C      1  0.4245920000000  0.5273620000000  0.5343300000000 1.0
C      1  0.5856110000000  0.5401670000000  0.5424870000000 1.0
C      1  0.4696630000000  0.5015810000000  0.4249360000000 1.0
C      1  0.5285610000000  0.4991490000000  0.4267620000000 1.0
C      1  0.4869580000000  0.5203020000000  0.5927450000000 1.0
C      1  0.5179040000000  0.5268740000000  0.5970070000000 1.0
C      1  0.5763170000000  0.5077730000000  0.4096210000000 1.0
C      1  0.4326860000000  0.5121570000000  0.4141310000000 1.0
C      1  0.4556070000000  0.5402770000000  0.5741180000000 1.0
C      1  0.5372870000000  0.5500820000000  0.5648970000000 1.0
C      1  0.4124320000000  0.5334790000000  0.5040330000000 1.0
C      1  0.5909030000000  0.5353760000000  0.5108180000000 1.0
C      1  0.5498400000000  0.5051240000000  0.5880420000000 1.0
C      1  0.4559680000000  0.4939900000000  0.5979240000000 1.0
C      1  0.4905140000000  0.5735680000000  0.4676980000000 1.0
C      1  0.5213410000000  0.5692120000000  0.4740870000000 1.0
C      1  0.5217680000000  0.5307450000000  0.4644340000000 1.0
C      1  0.4879850000000  0.5343380000000  0.4612680000000 1.0
C      1  0.6015770000000  0.4663080000000  0.5242720000000 1.0
C      1  0.4001120000000  0.4661670000000  0.5237720000000 1.0
C      1  0.4347120000000  0.5806750000000  0.5017630000000 1.0
C      1  0.5759390000000  0.5849800000000  0.4955800000000 1.0
C      1  0.5629700000000  0.4669190000000  0.5030770000000 1.0
C      1  0.4340050000000  0.4716200000000  0.5027370000000 1.0
C      1  0.4853160000000  0.6073460000000  0.4675820000000 1.0
C      1  0.5173290000000  0.6028580000000  0.4724430000000 1.0
C      1  0.5706430000000  0.5362320000000  0.4193720000000 1.0
C      1  0.4301060000000  0.5409700000000  0.4260640000000 1.0
C      1  0.4616590000000  0.4425990000000  0.5692300000000 1.0
C      1  0.5335840000000  0.4464940000000  0.5685120000000 1.0
C      1  0.5072870000000  0.4399710000000  0.4302810000000 1.0
C      1  0.4743930000000  0.4394370000000  0.4212480000000 1.0
C      1  0.5141240000000  0.4141690000000  0.4476440000000 1.0
C      1  0.4806500000000  0.4126730000000  0.4412780000000 1.0
C      1  0.5787470000000  0.4768730000000  0.4118000000000 1.0
C      1  0.4333470000000  0.4804260000000  0.4146190000000 1.0
C      1  0.5520780000000  0.4988270000000  0.4977460000000 1.0
C      1  0.4377990000000  0.5041260000000  0.5132010000000 1.0
C      1  0.4859940000000  0.5016520000000  0.5661740000000 1.0
C      1  0.5161970000000  0.5102480000000  0.5670680000000 1.0
C      1  0.5628560000000  0.4893440000000  0.5279180000000 1.0
C      1  0.4453260000000  0.4787080000000  0.5323620000000 1.0
C      1  0.4521210000000  0.4118550000000  0.5457680000000 1.0
C      1  0.5476390000000  0.4128710000000  0.5526220000000 1.0
C      1  0.5624960000000  0.4427170000000  0.5505140000000 1.0
C      1  0.4341050000000  0.4390160000000  0.5489640000000 1.0
C      1  0.4848330000000  0.4615860000000  0.5846860000000 1.0
C      1  0.5137740000000  0.4658400000000  0.5860670000000 1.0
C      1  0.5584450000000  0.4889040000000  0.4669220000000 1.0
C      1  0.4502220000000  0.4927370000000  0.4729210000000 1.0
C      1  0.5146030000000  0.4199830000000  0.5583740000000 1.0
C      1  0.4832010000000  0.4180310000000  0.5591690000000 1.0
C      1  0.5044210000000  0.5003470000000  0.4881580000000 1.0
C      1  0.4730890000000  0.5039400000000  0.4900670000000 1.0
C      1  0.4836030000000  0.5272830000000  0.4290580000000 1.0
C      1  0.5157620000000  0.5241060000000  0.4346310000000 1.0
C      1  0.5253530000000  0.4016890000000  0.5314970000000 1.0
C      1  0.4747910000000  0.3902920000000  0.5410330000000 1.0
C      1  0.5424880000000  0.4458520000000  0.5111250000000 1.0
C      1  0.4571450000000  0.4475730000000  0.5102680000000 1.0
C      1  0.5241900000000  0.4541900000000  0.4043510000000 1.0
C      1  0.4904260000000  0.4557490000000  0.3983570000000 1.0
C      1  0.4011450000000  0.5064720000000  0.4976790000000 1.0
C      1  0.6006800000000  0.5086190000000  0.5029300000000 1.0
C      1  0.5150960000000  0.4856550000000  0.4014770000000 1.0
C      1  0.4835900000000  0.4865220000000  0.4004760000000 1.0
C      1  0.5332280000000  0.5803290000000  0.5654040000000 1.0
C      1  0.4518070000000  0.5657030000000  0.5844140000000 1.0
C      1  0.4357120000000  0.5388240000000  0.4812910000000 1.0
C      1  0.5628950000000  0.5475090000000  0.4975890000000 1.0
C      1  0.5223160000000  0.4926930000000  0.6021540000000 1.0
C      1  0.4864280000000  0.4887090000000  0.6039720000000 1.0
C      1  0.4433800000000  0.5041790000000  0.4449110000000 1.0
C      1  0.5564440000000  0.4999260000000  0.4353730000000 1.0
C      1  0.5605020000000  0.4223940000000  0.5228270000000 1.0
C      1  0.4372010000000  0.4239500000000  0.5184620000000 1.0
C      1  0.5892380000000  0.4972760000000  0.4788630000000 1.0
C      1  0.4181710000000  0.4961780000000  0.4748790000000 1.0
C      1  0.4472650000000  0.5181900000000  0.5891930000000 1.0
C      1  0.5516230000000  0.5298080000000  0.5760070000000 1.0
C      1  0.4538770000000  0.5607650000000  0.4260020000000 1.0
C      1  0.5510670000000  0.5575950000000  0.4297430000000 1.0
C      1  0.5553050000000  0.5759360000000  0.4570920000000 1.0
C      1  0.4529020000000  0.5754930000000  0.4562200000000 1.0
C      1  0.4143540000000  0.5645700000000  0.4791440000000 1.0
C      1  0.5868640000000  0.5595650000000  0.4750730000000 1.0
C      1  0.5475750000000  0.4098950000000  0.4815170000000 1.0
C      1  0.4459280000000  0.4065100000000  0.4827430000000 1.0
C      1  0.4555860000000  0.5442580000000  0.4621030000000 1.0
C      1  0.5513550000000  0.5436540000000  0.4671710000000 1.0
C      1  0.5209560000000  0.5585560000000  0.6005760000000 1.0
C      1  0.4898220000000  0.5541020000000  0.5888570000000 1.0
C      1  0.5198890000000  0.5636970000000  0.4419540000000 1.0
C      1  0.4861830000000  0.5663090000000  0.4367410000000 1.0
C      1  0.5920430000000  0.4531670000000  0.4979450000000 1.0
C      1  0.4076780000000  0.4540100000000  0.4959690000000 1.0
C      1  0.5142640000000  0.4704620000000  0.4770180000000 1.0
C      1  0.4846920000000  0.4635210000000  0.4860990000000 1.0
C      1  0.5270510000000  0.5161840000000  0.5033010000000 1.0
C      1  0.4634190000000  0.5271860000000  0.5101340000000 1.0
C      1  0.4573390000000  0.4908350000000  0.5581410000000 1.0
C      1  0.5420980000000  0.4963890000000  0.5498730000000 1.0
C      1  0.5186500000000  0.4778950000000  0.5098800000000 1.0
C      1  0.4789540000000  0.4806850000000  0.5113680000000 1.0
C      1  0.5131660000000  0.4097210000000  0.4818100000000 1.0
C      1  0.4790010000000  0.4096630000000  0.4752400000000 1.0
C      1  0.5509390000000  0.4601070000000  0.4192850000000 1.0
C      1  0.4516660000000  0.4572210000000  0.4315930000000 1.0
C      1  0.5003650000000  0.4558290000000  0.5483830000000 1.0
END
