TITL C-2782240-8521-631 -0.223773179685387 125000 -1028.61427548977 0 0 176 (C1) n - 1
REM
REM in /home/nfs/bkarasulu/CARBON/AIRSS/Generating-Clusters/REBO/Higher-Symm/SD-CG/HFTN-CG
REM
REM
REM
REM
REM
REM ./C.cell (12c818d87b63d06a65506943cc24bca4)
REM
REM compiler GCC version 9.2.1 20190827 (Red Hat 9.2.1-1)
REM options -cpp -mtune=generic -march=x86-64 -g -O0 -fpre-include=/usr/include/finclude/math-vector-fortran.h
REM seed -747378663 -114709498 440856457 -558176002 -820316062 -1621132708 -420222176 175691638 1567226654 635685253 -939834862 -697445891 -1211477929 1046263541 1251594008 -1755091092 749707550 1163859223 1917684102 762978357 -687685321 1046847998 1169591379 -2027452417 2084619549 -388871168 582552684 1167451755 -1298814097 -1673390153 -213827510 -88077763 -175955909
REM
CELL 1.54180   50.00000   50.00000   50.00000   90.00000   90.00000   90.00000
LATT -1
SFAC C  
C      1  0.4419730000000  0.5357600000000  0.4117060000000 1.0
C      1  0.4472080000000  0.4608790000000  0.4207870000000 1.0
C      1  0.5200520000000  0.4450690000000  0.4263880000000 1.0
C      1  0.5621740000000  0.5020360000000  0.4235230000000 1.0
C      1  0.5176920000000  0.5631520000000  0.4205190000000 1.0
C      1  0.5587450000000  0.5383180000000  0.5842770000000 1.0
C      1  0.5544190000000  0.4558950000000  0.5863800000000 1.0
C      1  0.4818600000000  0.4383790000000  0.5760970000000 1.0
C      1  0.4366420000000  0.5084780000000  0.5819690000000 1.0
C      1  0.4824510000000  0.5600990000000  0.5732450000000 1.0
C      1  0.5681610000000  0.5786370000000  0.5144200000000 1.0
C      1  0.4441470000000  0.5845950000000  0.5154430000000 1.0
C      1  0.3961540000000  0.4770000000000  0.5115940000000 1.0
C      1  0.4908370000000  0.3947260000000  0.5097500000000 1.0
C      1  0.5951200000000  0.4560210000000  0.5129910000000 1.0
C      1  0.4278460000000  0.5752240000000  0.4868260000000 1.0
C      1  0.5525350000000  0.5914050000000  0.4926810000000 1.0
C      1  0.6001160000000  0.4725130000000  0.4832360000000 1.0
C      1  0.5063720000000  0.3935260000000  0.4794980000000 1.0
C      1  0.4025010000000  0.4582470000000  0.4895840000000 1.0
C      1  0.4858580000000  0.4254220000000  0.4313650000000 1.0
C      1  0.5652280000000  0.4640680000000  0.4352370000000 1.0
C      1  0.5582280000000  0.5455280000000  0.4254680000000 1.0
C      1  0.4739380000000  0.5724820000000  0.4197860000000 1.0
C      1  0.4225180000000  0.4918830000000  0.4256650000000 1.0
C      1  0.5204150000000  0.4294640000000  0.5709660000000 1.0
C      1  0.4415410000000  0.4586870000000  0.5784240000000 1.0
C      1  0.4434900000000  0.5536430000000  0.5681930000000 1.0
C      1  0.5255470000000  0.5748760000000  0.5803790000000 1.0
C      1  0.5759790000000  0.5026610000000  0.5827870000000 1.0
C      1  0.5523130000000  0.5443930000000  0.5308570000000 1.0
C      1  0.4843850000000  0.5544370000000  0.5240030000000 1.0
C      1  0.4302060000000  0.5006160000000  0.5127680000000 1.0
C      1  0.4820840000000  0.4435650000000  0.5199610000000 1.0
C      1  0.5577540000000  0.4755840000000  0.5344210000000 1.0
C      1  0.4587910000000  0.5377390000000  0.4652400000000 1.0
C      1  0.5167000000000  0.5511780000000  0.4772230000000 1.0
C      1  0.5631190000000  0.4989740000000  0.4891110000000 1.0
C      1  0.5194390000000  0.4473800000000  0.4825520000000 1.0
C      1  0.4462380000000  0.4557010000000  0.4753140000000 1.0
C      1  0.4308880000000  0.5242790000000  0.5314510000000 1.0
C      1  0.4537090000000  0.4499190000000  0.5326650000000 1.0
C      1  0.5485950000000  0.4436460000000  0.5314800000000 1.0
C      1  0.5776290000000  0.5221860000000  0.5344440000000 1.0
C      1  0.5120530000000  0.5709450000000  0.5330580000000 1.0
C      1  0.5711230000000  0.5214290000000  0.4680120000000 1.0
C      1  0.5467350000000  0.4472800000000  0.4664680000000 1.0
C      1  0.4625360000000  0.4340800000000  0.4623020000000 1.0
C      1  0.4337920000000  0.5182720000000  0.4585360000000 1.0
C      1  0.4920770000000  0.5699290000000  0.4668570000000 1.0
C      1  0.5257330000000  0.4948120000000  0.6053200000000 1.0
C      1  0.5137470000000  0.5224130000000  0.6033390000000 1.0
C      1  0.4847880000000  0.5203460000000  0.5986800000000 1.0
C      1  0.4794890000000  0.4907430000000  0.5922320000000 1.0
C      1  0.5048640000000  0.4743630000000  0.6014890000000 1.0
C      1  0.4737190000000  0.4962200000000  0.3982910000000 1.0
C      1  0.4864820000000  0.5236560000000  0.3973380000000 1.0
C      1  0.5163420000000  0.5198050000000  0.3990300000000 1.0
C      1  0.5216020000000  0.4902320000000  0.4007590000000 1.0
C      1  0.4954980000000  0.4763230000000  0.4001630000000 1.0
C      1  0.5287900000000  0.5079510000000  0.5479380000000 1.0
C      1  0.5046070000000  0.5250730000000  0.5421070000000 1.0
C      1  0.4786050000000  0.5087370000000  0.5447010000000 1.0
C      1  0.4872720000000  0.4847560000000  0.5615240000000 1.0
C      1  0.5162940000000  0.4813070000000  0.5559720000000 1.0
C      1  0.4780280000000  0.5084350000000  0.4390010000000 1.0
C      1  0.4995500000000  0.5246710000000  0.4442570000000 1.0
C      1  0.5218050000000  0.5105470000000  0.4592220000000 1.0
C      1  0.5114100000000  0.4825620000000  0.4567460000000 1.0
C      1  0.4819580000000  0.4824990000000  0.4528720000000 1.0
C      1  0.3901560000000  0.5035270000000  0.5033930000000 1.0
C      1  0.4692040000000  0.4185520000000  0.5063890000000 1.0
C      1  0.5753890000000  0.4325020000000  0.5039740000000 1.0
C      1  0.5745700000000  0.5493150000000  0.5053370000000 1.0
C      1  0.4732370000000  0.5863580000000  0.5030690000000 1.0
C      1  0.6027880000000  0.5035510000000  0.4906360000000 1.0
C      1  0.5363710000000  0.3992850000000  0.4884470000000 1.0
C      1  0.4269880000000  0.4434840000000  0.4944280000000 1.0
C      1  0.4116570000000  0.5511010000000  0.4954100000000 1.0
C      1  0.5231590000000  0.5953080000000  0.5020040000000 1.0
C      1  0.5748320000000  0.4443180000000  0.5610260000000 1.0
C      1  0.5782020000000  0.5530070000000  0.5599070000000 1.0
C      1  0.4701110000000  0.5844780000000  0.5582360000000 1.0
C      1  0.4132540000000  0.5005140000000  0.5581090000000 1.0
C      1  0.4756300000000  0.4156200000000  0.5532830000000 1.0
C      1  0.4260850000000  0.4457460000000  0.4422880000000 1.0
C      1  0.4261370000000  0.5514560000000  0.4379540000000 1.0
C      1  0.5247050000000  0.5827150000000  0.4476330000000 1.0
C      1  0.5883140000000  0.4961260000000  0.4423330000000 1.0
C      1  0.5244230000000  0.4160790000000  0.4388740000000 1.0
C      1  0.6009780000000  0.4912980000000  0.5497000000000 1.0
C      1  0.5386470000000  0.5918670000000  0.5539300000000 1.0
C      1  0.4093930000000  0.5663740000000  0.5534930000000 1.0
C      1  0.4170860000000  0.4479790000000  0.5483060000000 1.0
C      1  0.5255920000000  0.3990270000000  0.5461340000000 1.0
C      1  0.3979120000000  0.4900050000000  0.4477900000000 1.0
C      1  0.4586230000000  0.5925130000000  0.4515450000000 1.0
C      1  0.5758390000000  0.5627210000000  0.4491270000000 1.0
C      1  0.5880800000000  0.4333600000000  0.4443290000000 1.0
C      1  0.4655270000000  0.3931440000000  0.4408810000000 1.0
C      1  0.5325190000000  0.5420520000000  0.4072880000000 1.0
C      1  0.4685270000000  0.5464270000000  0.4029100000000 1.0
C      1  0.4478340000000  0.4867060000000  0.4058050000000 1.0
C      1  0.4956270000000  0.4504750000000  0.4112170000000 1.0
C      1  0.5463300000000  0.4804730000000  0.4119450000000 1.0
C      1  0.4675400000000  0.5402920000000  0.5884110000000 1.0
C      1  0.5293500000000  0.5451800000000  0.5965120000000 1.0
C      1  0.5524380000000  0.4859380000000  0.6007480000000 1.0
C      1  0.5041290000000  0.4470860000000  0.5940020000000 1.0
C      1  0.4496980000000  0.4848080000000  0.5936550000000 1.0
C      1  0.4341960000000  0.5776600000000  0.4588320000000 1.0
C      1  0.4005660000000  0.4613970000000  0.4591670000000 1.0
C      1  0.4974560000000  0.3963830000000  0.4466520000000 1.0
C      1  0.5974790000000  0.4638200000000  0.4499630000000 1.0
C      1  0.5549830000000  0.5851150000000  0.4636220000000 1.0
C      1  0.5654220000000  0.5800800000000  0.5432480000000 1.0
C      1  0.5952050000000  0.4634580000000  0.5410330000000 1.0
C      1  0.4986210000000  0.3953600000000  0.5381540000000 1.0
C      1  0.4045720000000  0.4728990000000  0.5396040000000 1.0
C      1  0.4370100000000  0.5831230000000  0.5490230000000 1.0
C      1  0.4525950000000  0.5163040000000  0.4322360000000 1.0
C      1  0.4675150000000  0.4586680000000  0.4415960000000 1.0
C      1  0.5272210000000  0.4625860000000  0.4465070000000 1.0
C      1  0.5493400000000  0.5134620000000  0.4468100000000 1.0
C      1  0.5002440000000  0.5518080000000  0.4409740000000 1.0
C      1  0.5557980000000  0.5156750000000  0.5590290000000 1.0
C      1  0.5336180000000  0.4564470000000  0.5597220000000 1.0
C      1  0.4743630000000  0.4586740000000  0.5561730000000 1.0
C      1  0.4510870000000  0.5174220000000  0.5552460000000 1.0
C      1  0.5036770000000  0.5501560000000  0.5585020000000 1.0
C      1  0.5716690000000  0.4963710000000  0.5176380000000 1.0
C      1  0.5291440000000  0.5620570000000  0.5061070000000 1.0
C      1  0.4336300000000  0.5526430000000  0.5190650000000 1.0
C      1  0.4469280000000  0.4799920000000  0.5252420000000 1.0
C      1  0.5214220000000  0.4423260000000  0.5149100000000 1.0
C      1  0.4315930000000  0.4982630000000  0.4819580000000 1.0
C      1  0.4803040000000  0.5547510000000  0.4926500000000 1.0
C      1  0.5556720000000  0.5452700000000  0.4812230000000 1.0
C      1  0.5724510000000  0.4534660000000  0.4806980000000 1.0
C      1  0.4807320000000  0.4155780000000  0.4774890000000 1.0
C      1  0.4572610000000  0.5194910000000  0.4904850000000 1.0
C      1  0.4661280000000  0.4783870000000  0.4799410000000 1.0
C      1  0.5150040000000  0.4766100000000  0.4960130000000 1.0
C      1  0.5359990000000  0.5177230000000  0.4865680000000 1.0
C      1  0.4966730000000  0.5249240000000  0.4867070000000 1.0
C      1  0.5418440000000  0.5144750000000  0.5189090000000 1.0
C      1  0.5254680000000  0.4751680000000  0.5253880000000 1.0
C      1  0.4759140000000  0.4747180000000  0.5107410000000 1.0
C      1  0.4677730000000  0.5155000000000  0.5148070000000 1.0
C      1  0.5091210000000  0.5364460000000  0.5133400000000 1.0
C      1  0.5946850000000  0.5226840000000  0.5624720000000 1.0
C      1  0.5041270000000  0.5901290000000  0.5585170000000 1.0
C      1  0.4158560000000  0.5347450000000  0.5601130000000 1.0
C      1  0.4454280000000  0.4312980000000  0.5585340000000 1.0
C      1  0.5502320000000  0.4206380000000  0.5559810000000 1.0
C      1  0.4094490000000  0.5212060000000  0.4379280000000 1.0
C      1  0.4916430000000  0.5907460000000  0.4420320000000 1.0
C      1  0.5849070000000  0.5303630000000  0.4402220000000 1.0
C      1  0.5552010000000  0.4312730000000  0.4391460000000 1.0
C      1  0.4513600000000  0.4230250000000  0.4341710000000 1.0
C      1  0.5417570000000  0.5528760000000  0.5595250000000 1.0
C      1  0.4608370000000  0.5545100000000  0.5394190000000 1.0
C      1  0.4401010000000  0.4795980000000  0.5554490000000 1.0
C      1  0.5029190000000  0.4345250000000  0.5423800000000 1.0
C      1  0.5667950000000  0.4777420000000  0.5647240000000 1.0
C      1  0.4606230000000  0.5542650000000  0.4412680000000 1.0
C      1  0.5383240000000  0.5513030000000  0.4525940000000 1.0
C      1  0.5661160000000  0.4819580000000  0.4644370000000 1.0
C      1  0.5031590000000  0.4328820000000  0.4605240000000 1.0
C      1  0.4354840000000  0.4787860000000  0.4543800000000 1.0
C      1  0.3954760000000  0.5287380000000  0.4953110000000 1.0
C      1  0.5958450000000  0.5257370000000  0.4991330000000 1.0
C      1  0.4957840000000  0.6019190000000  0.5034310000000 1.0
C      1  0.4382550000000  0.4224090000000  0.5077550000000 1.0
C      1  0.5575430000000  0.4110130000000  0.5006640000000 1.0
C      1  0.4920200000000  0.4963950000000  0.4894420000000 1.0
END
