TITL C-2782234-8014-1021 -0.000335226728616567 125000 -1027.4519947567 0 0 171 (C1) n - 1
REM
REM in /home/nfs/bkarasulu/CARBON/AIRSS/Generating-Clusters/REBO/Higher-Symm/SD-CG/HFTN-CG
REM
REM
REM
REM
REM
REM ./C.cell (12c818d87b63d06a65506943cc24bca4)
REM
REM compiler GCC version 9.2.1 20190827 (Red Hat 9.2.1-1)
REM options -cpp -mtune=generic -march=x86-64 -g -O0 -fpre-include=/usr/include/finclude/math-vector-fortran.h
REM seed -1930460800 -1749689919 -160985690 -579324158 800585547 -1116544446 2027503918 1494885091 1823404841 1444441370 834299992 55904712 195263421 1623338747 453425699 -2106559154 1682097769 -861863084 -2029003503 699863991 574802307 1423413956 -1718016233 -1363166750 -201339112 -796865192 491997794 -1123158247 -1350136093 1467431661 -1072950711 1801831526 -548051913
REM
CELL 1.54180   50.00000   50.00000   50.00000   90.00000   90.00000   90.00000
LATT -1
SFAC C  
C      1  0.4833590000000  0.4259100000000  0.4263660000000 1.0
C      1  0.4828480000000  0.3982430000000  0.5481140000000 1.0
C      1  0.4871690000000  0.5167210000000  0.5972310000000 1.0
C      1  0.4847640000000  0.6091070000000  0.5202830000000 1.0
C      1  0.4826960000000  0.5474720000000  0.4107080000000 1.0
C      1  0.5134060000000  0.4275700000000  0.5703820000000 1.0
C      1  0.5166620000000  0.4088690000000  0.4547010000000 1.0
C      1  0.5176560000000  0.5160400000000  0.3960530000000 1.0
C      1  0.5166810000000  0.6008830000000  0.4857410000000 1.0
C      1  0.5149540000000  0.5557960000000  0.5971520000000 1.0
C      1  0.5383170000000  0.5708540000000  0.5859900000000 1.0
C      1  0.5354470000000  0.5997600000000  0.4643380000000 1.0
C      1  0.5373550000000  0.4960580000000  0.3902120000000 1.0
C      1  0.5367720000000  0.3961700000000  0.4703050000000 1.0
C      1  0.5312590000000  0.4437040000000  0.5857610000000 1.0
C      1  0.4584840000000  0.5619630000000  0.4077730000000 1.0
C      1  0.4621210000000  0.6009550000000  0.5377030000000 1.0
C      1  0.4691200000000  0.4958150000000  0.6030150000000 1.0
C      1  0.4599560000000  0.3947150000000  0.5296050000000 1.0
C      1  0.4645410000000  0.4415600000000  0.4112890000000 1.0
C      1  0.5693070000000  0.4741200000000  0.5757440000000 1.0
C      1  0.5732910000000  0.5658970000000  0.5489300000000 1.0
C      1  0.5717910000000  0.5666200000000  0.4534000000000 1.0
C      1  0.5738330000000  0.4753190000000  0.4209360000000 1.0
C      1  0.5722310000000  0.4192500000000  0.4995290000000 1.0
C      1  0.4284550000000  0.4735140000000  0.4221100000000 1.0
C      1  0.4313820000000  0.5637140000000  0.4496770000000 1.0
C      1  0.4275490000000  0.5672130000000  0.5479850000000 1.0
C      1  0.4285310000000  0.4755620000000  0.5802240000000 1.0
C      1  0.4265020000000  0.4165540000000  0.5008360000000 1.0
C      1  0.4809240000000  0.4646200000000  0.4795740000000 1.0
C      1  0.4892070000000  0.4731250000000  0.5319110000000 1.0
C      1  0.4863540000000  0.5177110000000  0.5296390000000 1.0
C      1  0.4822890000000  0.5313650000000  0.4910030000000 1.0
C      1  0.4815600000000  0.5066070000000  0.4676090000000 1.0
C      1  0.5159740000000  0.4642680000000  0.5142830000000 1.0
C      1  0.5097240000000  0.4793600000000  0.4745240000000 1.0
C      1  0.5127690000000  0.5186600000000  0.4692000000000 1.0
C      1  0.5119850000000  0.5313570000000  0.5009060000000 1.0
C      1  0.5118750000000  0.5058910000000  0.5316050000000 1.0
C      1  0.5598560000000  0.5779200000000  0.5011140000000 1.0
C      1  0.5614440000000  0.5257650000000  0.4246030000000 1.0
C      1  0.5606050000000  0.4369410000000  0.4528900000000 1.0
C      1  0.5561630000000  0.4381580000000  0.5437690000000 1.0
C      1  0.5651860000000  0.5243270000000  0.5788360000000 1.0
C      1  0.4342430000000  0.5807050000000  0.4991770000000 1.0
C      1  0.4420480000000  0.5245690000000  0.5715470000000 1.0
C      1  0.4322140000000  0.4343440000000  0.5485100000000 1.0
C      1  0.4382510000000  0.4369200000000  0.4551960000000 1.0
C      1  0.4410760000000  0.5210200000000  0.4280460000000 1.0
C      1  0.5413210000000  0.4898170000000  0.4719230000000 1.0
C      1  0.5443120000000  0.4717170000000  0.4997950000000 1.0
C      1  0.5423060000000  0.4924600000000  0.5243620000000 1.0
C      1  0.5424950000000  0.5247150000000  0.5144580000000 1.0
C      1  0.5447750000000  0.5212980000000  0.4809800000000 1.0
C      1  0.4595710000000  0.4887960000000  0.5234100000000 1.0
C      1  0.4534370000000  0.4713740000000  0.4982050000000 1.0
C      1  0.4521870000000  0.4916190000000  0.4733150000000 1.0
C      1  0.4497790000000  0.5217590000000  0.4859460000000 1.0
C      1  0.4552820000000  0.5198430000000  0.5177860000000 1.0
C      1  0.5810440000000  0.4496030000000  0.4996590000000 1.0
C      1  0.5816420000000  0.4848190000000  0.5491930000000 1.0
C      1  0.5843120000000  0.5419940000000  0.5308960000000 1.0
C      1  0.5824630000000  0.5418680000000  0.4696200000000 1.0
C      1  0.5850900000000  0.4841310000000  0.4500300000000 1.0
C      1  0.4157190000000  0.4440220000000  0.5009300000000 1.0
C      1  0.4163870000000  0.4819790000000  0.4477160000000 1.0
C      1  0.4160140000000  0.5439730000000  0.4670350000000 1.0
C      1  0.4168280000000  0.5449680000000  0.5321300000000 1.0
C      1  0.4159190000000  0.4831750000000  0.5541090000000 1.0
C      1  0.5239310000000  0.4284570000000  0.5384380000000 1.0
C      1  0.5323030000000  0.5318250000000  0.5807860000000 1.0
C      1  0.5270100000000  0.5804430000000  0.5098500000000 1.0
C      1  0.5295060000000  0.5316580000000  0.4216070000000 1.0
C      1  0.5276230000000  0.4397640000000  0.4464080000000 1.0
C      1  0.4703680000000  0.4300050000000  0.4568170000000 1.0
C      1  0.4748170000000  0.5174010000000  0.4246020000000 1.0
C      1  0.4669820000000  0.5889610000000  0.4999040000000 1.0
C      1  0.4747580000000  0.5342060000000  0.5725670000000 1.0
C      1  0.4643250000000  0.4264150000000  0.5535270000000 1.0
C      1  0.4654750000000  0.4079840000000  0.5034640000000 1.0
C      1  0.4704120000000  0.4721990000000  0.5837830000000 1.0
C      1  0.4671240000000  0.5746400000000  0.5512090000000 1.0
C      1  0.4857790000000  0.5596300000000  0.4544900000000 1.0
C      1  0.4695750000000  0.4706160000000  0.4164440000000 1.0
C      1  0.5352630000000  0.4044350000000  0.4985930000000 1.0
C      1  0.5355840000000  0.4732150000000  0.4094390000000 1.0
C      1  0.5315270000000  0.5748420000000  0.4487120000000 1.0
C      1  0.5352490000000  0.5751720000000  0.5566660000000 1.0
C      1  0.5285340000000  0.4734490000000  0.5816820000000 1.0
C      1  0.5090650000000  0.5419210000000  0.4468840000000 1.0
C      1  0.5184000000000  0.4705640000000  0.4454370000000 1.0
C      1  0.5102250000000  0.4336350000000  0.5075770000000 1.0
C      1  0.5305730000000  0.5158920000000  0.5544450000000 1.0
C      1  0.5159900000000  0.5530790000000  0.5239270000000 1.0
C      1  0.4930020000000  0.5450880000000  0.5458630000000 1.0
C      1  0.4787060000000  0.4549820000000  0.5556550000000 1.0
C      1  0.4892230000000  0.4339470000000  0.4851180000000 1.0
C      1  0.4933030000000  0.4927720000000  0.4396740000000 1.0
C      1  0.4773270000000  0.5624410000000  0.4880140000000 1.0
C      1  0.5118100000000  0.6067810000000  0.5248420000000 1.0
C      1  0.5093400000000  0.5544840000000  0.4089600000000 1.0
C      1  0.5104400000000  0.4288580000000  0.4207570000000 1.0
C      1  0.5101320000000  0.3981660000000  0.5435190000000 1.0
C      1  0.5145770000000  0.5160850000000  0.6017240000000 1.0
C      1  0.4895750000000  0.6043780000000  0.4808610000000 1.0
C      1  0.4875190000000  0.5566010000000  0.5943960000000 1.0
C      1  0.4870360000000  0.4235140000000  0.5786450000000 1.0
C      1  0.4899430000000  0.4037300000000  0.4589460000000 1.0
C      1  0.4904470000000  0.5113690000000  0.3955710000000 1.0
C      1  0.4339540000000  0.4095470000000  0.5278570000000 1.0
C      1  0.4417560000000  0.4990710000000  0.5909410000000 1.0
C      1  0.4359480000000  0.5883700000000  0.5304100000000 1.0
C      1  0.4375170000000  0.5517110000000  0.4222440000000 1.0
C      1  0.4384170000000  0.4470740000000  0.4249570000000 1.0
C      1  0.5626350000000  0.4113220000000  0.4702520000000 1.0
C      1  0.5635850000000  0.5012580000000  0.4049000000000 1.0
C      1  0.5619060000000  0.5870290000000  0.4715290000000 1.0
C      1  0.5635920000000  0.5565450000000  0.5778030000000 1.0
C      1  0.5580410000000  0.4480750000000  0.5728310000000 1.0
C      1  0.5981550000000  0.5115830000000  0.5245990000000 1.0
C      1  0.5974450000000  0.5267160000000  0.4965120000000 1.0
C      1  0.5979010000000  0.5052930000000  0.4735480000000 1.0
C      1  0.5973040000000  0.4768380000000  0.4872410000000 1.0
C      1  0.5964750000000  0.4809750000000  0.5186720000000 1.0
C      1  0.4042130000000  0.5180900000000  0.4820750000000 1.0
C      1  0.4042170000000  0.5230870000000  0.5122210000000 1.0
C      1  0.4044590000000  0.4954990000000  0.5261660000000 1.0
C      1  0.4033420000000  0.4736710000000  0.5045350000000 1.0
C      1  0.4034670000000  0.4877520000000  0.4770320000000 1.0
C      1  0.4615710000000  0.5480040000000  0.5347100000000 1.0
C      1  0.4557390000000  0.5481920000000  0.4663970000000 1.0
C      1  0.4616970000000  0.4810400000000  0.4443980000000 1.0
C      1  0.4596570000000  0.4388760000000  0.5010720000000 1.0
C      1  0.4575390000000  0.4813020000000  0.5537970000000 1.0
C      1  0.5377250000000  0.5487300000000  0.4639040000000 1.0
C      1  0.5456220000000  0.5492750000000  0.5371940000000 1.0
C      1  0.5346790000000  0.4848150000000  0.5566420000000 1.0
C      1  0.5428920000000  0.4377990000000  0.5009470000000 1.0
C      1  0.5466660000000  0.4840890000000  0.4396210000000 1.0
C      1  0.5359740000000  0.6017510000000  0.5423150000000 1.0
C      1  0.5332170000000  0.5712090000000  0.4187190000000 1.0
C      1  0.5341990000000  0.4429710000000  0.4072190000000 1.0
C      1  0.5351740000000  0.3921080000000  0.5265960000000 1.0
C      1  0.5317980000000  0.4927500000000  0.6047120000000 1.0
C      1  0.4723350000000  0.5904220000000  0.4602920000000 1.0
C      1  0.4642020000000  0.5714950000000  0.5818180000000 1.0
C      1  0.4655370000000  0.4409140000000  0.5906660000000 1.0
C      1  0.4657190000000  0.3951560000000  0.4756280000000 1.0
C      1  0.4673780000000  0.4918870000000  0.3947730000000 1.0
C      1  0.4200040000000  0.4580750000000  0.4716960000000 1.0
C      1  0.4170680000000  0.4580260000000  0.5320310000000 1.0
C      1  0.4221880000000  0.5160300000000  0.5472390000000 1.0
C      1  0.4179520000000  0.5519840000000  0.4988280000000 1.0
C      1  0.4218040000000  0.5136740000000  0.4527640000000 1.0
C      1  0.5731420000000  0.4587300000000  0.5293650000000 1.0
C      1  0.5770120000000  0.4578370000000  0.4676020000000 1.0
C      1  0.5778400000000  0.5172920000000  0.4489540000000 1.0
C      1  0.5764650000000  0.5525950000000  0.5011390000000 1.0
C      1  0.5806440000000  0.5168600000000  0.5532900000000 1.0
C      1  0.5599700000000  0.4956970000000  0.5922970000000 1.0
C      1  0.5615410000000  0.5897950000000  0.5306400000000 1.0
C      1  0.5606810000000  0.5580050000000  0.4275040000000 1.0
C      1  0.5609710000000  0.4454240000000  0.4222180000000 1.0
C      1  0.5601600000000  0.4104520000000  0.5287160000000 1.0
C      1  0.4400830000000  0.4961470000000  0.4084690000000 1.0
C      1  0.4441380000000  0.5864400000000  0.4672970000000 1.0
C      1  0.4386880000000  0.5569750000000  0.5726720000000 1.0
C      1  0.4387940000000  0.4484230000000  0.5781540000000 1.0
C      1  0.4382480000000  0.4106000000000  0.4746300000000 1.0
C      1  0.4932720000000  0.4862720000000  0.5021280000000 1.0
END
