TITL C-2782229-3092-950 0.000641244550716646 125000 -475.499196250957 0 0 84 (C1) n - 1
REM
REM in /home/nfs/bkarasulu/CARBON/AIRSS/Generating-Clusters/REBO/Higher-Symm/SD-CG/HFTN-CG
REM
REM
REM
REM
REM
REM ./C.cell (12c818d87b63d06a65506943cc24bca4)
REM
REM compiler GCC version 9.2.1 20190827 (Red Hat 9.2.1-1)
REM options -cpp -mtune=generic -march=x86-64 -g -O0 -fpre-include=/usr/include/finclude/math-vector-fortran.h
REM seed 1818938804 1473804860 2108844470 1430784895 1206635006 -1558636997 -1715069958 -210482926 -689176598 -1435660991 -294901849 90619205 1233740830 1750856263 323433395 1425397430 601254370 2043935645 2143836286 -1864156706 1187525271 -1468923802 -1019890301 1879450846 40467696 -167696017 -1354336673 479170205 1731317569 -955605061 624572699 -1928860535 -297194357
REM
CELL 1.54180   50.00000   50.00000   50.00000   90.00000   90.00000   90.00000
LATT -1
SFAC C  
C      1  0.5055060000000  0.4805110000000  0.5833120000000 1.0
C      1  0.5008010000000  0.4416380000000  0.4436990000000 1.0
C      1  0.5044470000000  0.5802810000000  0.4706200000000 1.0
C      1  0.5692230000000  0.4317800000000  0.5162230000000 1.0
C      1  0.5600130000000  0.5284360000000  0.4314220000000 1.0
C      1  0.5576050000000  0.5468050000000  0.5556230000000 1.0
C      1  0.4477860000000  0.4746330000000  0.5262630000000 1.0
C      1  0.4579350000000  0.4845410000000  0.4777720000000 1.0
C      1  0.4569010000000  0.5327640000000  0.5030630000000 1.0
C      1  0.5278610000000  0.5661750000000  0.4640360000000 1.0
C      1  0.5298400000000  0.4936580000000  0.5768450000000 1.0
C      1  0.5238860000000  0.4340860000000  0.4577840000000 1.0
C      1  0.5558230000000  0.5595520000000  0.5032160000000 1.0
C      1  0.5577650000000  0.4677910000000  0.5554810000000 1.0
C      1  0.5545690000000  0.4692460000000  0.4486800000000 1.0
C      1  0.4182630000000  0.4681140000000  0.5001290000000 1.0
C      1  0.4230880000000  0.5141570000000  0.4763350000000 1.0
C      1  0.4209770000000  0.5135680000000  0.5271930000000 1.0
C      1  0.4916840000000  0.4987950000000  0.4226690000000 1.0
C      1  0.4965510000000  0.5608170000000  0.5311540000000 1.0
C      1  0.4968180000000  0.4435320000000  0.5337570000000 1.0
C      1  0.4261950000000  0.4851110000000  0.4780720000000 1.0
C      1  0.4288340000000  0.5257650000000  0.5017080000000 1.0
C      1  0.4191250000000  0.4853150000000  0.5254530000000 1.0
C      1  0.5004300000000  0.5454920000000  0.4435900000000 1.0
C      1  0.5024510000000  0.5198770000000  0.5647900000000 1.0
C      1  0.4948120000000  0.4447610000000  0.4830690000000 1.0
C      1  0.5719720000000  0.5235850000000  0.5591030000000 1.0
C      1  0.5799150000000  0.4443280000000  0.4939690000000 1.0
C      1  0.5733920000000  0.5398230000000  0.4526570000000 1.0
C      1  0.5385650000000  0.5106390000000  0.4369850000000 1.0
C      1  0.5366340000000  0.5480690000000  0.5363460000000 1.0
C      1  0.5450110000000  0.4424280000000  0.5273770000000 1.0
C      1  0.4576070000000  0.5540260000000  0.5366870000000 1.0
C      1  0.4483880000000  0.4349940000000  0.5301110000000 1.0
C      1  0.4540960000000  0.5052700000000  0.4344180000000 1.0
C      1  0.4533460000000  0.4582010000000  0.5512950000000 1.0
C      1  0.4590720000000  0.4802720000000  0.4460800000000 1.0
C      1  0.4615660000000  0.5622510000000  0.5070720000000 1.0
C      1  0.4961880000000  0.5304970000000  0.5402700000000 1.0
C      1  0.4889970000000  0.4582690000000  0.5058040000000 1.0
C      1  0.4934960000000  0.5191130000000  0.4452190000000 1.0
C      1  0.5583920000000  0.4800260000000  0.5257200000000 1.0
C      1  0.5509150000000  0.4890920000000  0.4743580000000 1.0
C      1  0.5542650000000  0.5275790000000  0.5056660000000 1.0
C      1  0.5369540000000  0.4825420000000  0.4294410000000 1.0
C      1  0.5324090000000  0.5713260000000  0.5173410000000 1.0
C      1  0.5370740000000  0.4459830000000  0.5563630000000 1.0
C      1  0.5310590000000  0.5130290000000  0.4675210000000 1.0
C      1  0.5312230000000  0.5184510000000  0.5254510000000 1.0
C      1  0.5366310000000  0.4659790000000  0.5071640000000 1.0
C      1  0.4729090000000  0.4335120000000  0.4613640000000 1.0
C      1  0.4781820000000  0.5686050000000  0.4533670000000 1.0
C      1  0.4788720000000  0.5013590000000  0.5797330000000 1.0
C      1  0.5295590000000  0.5427510000000  0.4783160000000 1.0
C      1  0.5309810000000  0.4967260000000  0.5490890000000 1.0
C      1  0.5332320000000  0.4534480000000  0.4783870000000 1.0
C      1  0.4326920000000  0.4430800000000  0.5034610000000 1.0
C      1  0.4436660000000  0.5255730000000  0.4573400000000 1.0
C      1  0.4474640000000  0.5227020000000  0.5404950000000 1.0
C      1  0.4612570000000  0.5444390000000  0.4364470000000 1.0
C      1  0.4641770000000  0.5297150000000  0.5677430000000 1.0
C      1  0.4592060000000  0.4292220000000  0.4921950000000 1.0
C      1  0.5032420000000  0.5768160000000  0.5018410000000 1.0
C      1  0.5060520000000  0.4529790000000  0.5652020000000 1.0
C      1  0.5056830000000  0.4725780000000  0.4304490000000 1.0
C      1  0.4731420000000  0.5125050000000  0.4687970000000 1.0
C      1  0.4754300000000  0.5141710000000  0.5222450000000 1.0
C      1  0.4663140000000  0.4741860000000  0.5048980000000 1.0
C      1  0.5716810000000  0.4637870000000  0.4759030000000 1.0
C      1  0.5694930000000  0.5417270000000  0.4799730000000 1.0
C      1  0.5708970000000  0.4972350000000  0.5507280000000 1.0
C      1  0.5011880000000  0.5159840000000  0.4841840000000 1.0
C      1  0.5047590000000  0.4978660000000  0.5193430000000 1.0
C      1  0.5140850000000  0.4859040000000  0.4912590000000 1.0
C      1  0.4637680000000  0.4733020000000  0.5726170000000 1.0
C      1  0.4632210000000  0.4544300000000  0.4391220000000 1.0
C      1  0.4671660000000  0.5761350000000  0.4834010000000 1.0
C      1  0.5070560000000  0.5427090000000  0.5038320000000 1.0
C      1  0.5101670000000  0.4739950000000  0.5390240000000 1.0
C      1  0.5155630000000  0.4736170000000  0.4618570000000 1.0
C      1  0.4775590000000  0.5597810000000  0.5596310000000 1.0
C      1  0.4751590000000  0.4236880000000  0.5200000000000 1.0
C      1  0.4698240000000  0.5224960000000  0.4133810000000 1.0
END
