TITL C-2782228-2999-249 -3.76594492657817e-07 125000 -213.324178484072 0 0 36 (D3h) n - 1
REM
REM in /home/nfs/bkarasulu/CARBON/AIRSS/Generating-Clusters/REBO/Higher-Symm/SD-CG/HFTN-CG
REM
REM
REM
REM
REM
REM ./C.cell (12c818d87b63d06a65506943cc24bca4)
REM
REM compiler GCC version 9.2.1 20190827 (Red Hat 9.2.1-1)
REM options -cpp -mtune=generic -march=x86-64 -g -O0 -fpre-include=/usr/include/finclude/math-vector-fortran.h
REM seed 1950806505 1752925184 -1178180411 -216584607 -1316658034 647706185 1436775889 1557171033 -780044813 450800922 -717429303 -1563316456 -1183677229 -1960298991 -710624413 1831923955 1372359011 -1221355929 -284157415 1525888497 1546450492 921528737 -1305553557 -945563123 1575168057 1652240682 1668707048 1487067573 894126837 464398851 -184041061 1748067655 -1204089973
REM
CELL 1.54180   50.00000   50.00000   50.00000   90.00000   90.00000   90.00000
LATT -1
SFAC C  
C      1  0.5189320000000  0.4977430000000  0.5539470000000 1.0
C      1  0.4905220000000  0.4813580000000  0.5532580000000 1.0
C      1  0.4905240000000  0.5141330000000  0.5546280000000 1.0
C      1  0.5189470000000  0.5022540000000  0.4460580000000 1.0
C      1  0.4905390000000  0.5186440000000  0.4467400000000 1.0
C      1  0.4905370000000  0.4858690000000  0.4453690000000 1.0
C      1  0.5196610000000  0.5626090000000  0.5026210000000 1.0
C      1  0.5444380000000  0.4516830000000  0.4979860000000 1.0
C      1  0.4359010000000  0.4857080000000  0.4993940000000 1.0
C      1  0.5196530000000  0.4373880000000  0.4973850000000 1.0
C      1  0.5444440000000  0.5483110000000  0.5020260000000 1.0
C      1  0.4359030000000  0.5143010000000  0.5005890000000 1.0
C      1  0.4425370000000  0.5279290000000  0.4767600000000 1.0
C      1  0.5520610000000  0.5372870000000  0.4771660000000 1.0
C      1  0.5054120000000  0.4378400000000  0.4730020000000 1.0
C      1  0.4425270000000  0.4720790000000  0.5232250000000 1.0
C      1  0.5520500000000  0.4627060000000  0.5228480000000 1.0
C      1  0.5054130000000  0.5621590000000  0.5270000000000 1.0
C      1  0.5452310000000  0.5140580000000  0.5417280000000 1.0
C      1  0.4910490000000  0.4512530000000  0.5390940000000 1.0
C      1  0.4637020000000  0.5295380000000  0.5423640000000 1.0
C      1  0.5452410000000  0.4859360000000  0.4582840000000 1.0
C      1  0.4910660000000  0.5487480000000  0.4609030000000 1.0
C      1  0.4637100000000  0.4704670000000  0.4576260000000 1.0
C      1  0.5452290000000  0.4825020000000  0.5404090000000 1.0
C      1  0.4636980000000  0.4670330000000  0.5397510000000 1.0
C      1  0.4910550000000  0.5453140000000  0.5430280000000 1.0
C      1  0.5452430000000  0.5174920000000  0.4596040000000 1.0
C      1  0.4637140000000  0.5329720000000  0.4602400000000 1.0
C      1  0.4910610000000  0.4546870000000  0.4569700000000 1.0
C      1  0.4425300000000  0.5258920000000  0.5254750000000 1.0
C      1  0.5520550000000  0.5352500000000  0.5258810000000 1.0
C      1  0.5054050000000  0.4358030000000  0.5217160000000 1.0
C      1  0.4425340000000  0.4741160000000  0.4745100000000 1.0
C      1  0.5520570000000  0.4647430000000  0.4741330000000 1.0
C      1  0.5054190000000  0.5641960000000  0.4782850000000 1.0
END
