TITL C-2782232-2968-325 0.000542399018875516 125000 -671.486633972624 0 0 117 (C1) n - 1
REM
REM in /home/nfs/bkarasulu/CARBON/AIRSS/Generating-Clusters/REBO/Higher-Symm/SD-CG/HFTN-CG
REM
REM
REM
REM
REM
REM ./C.cell (12c818d87b63d06a65506943cc24bca4)
REM
REM compiler GCC version 9.2.1 20190827 (Red Hat 9.2.1-1)
REM options -cpp -mtune=generic -march=x86-64 -g -O0 -fpre-include=/usr/include/finclude/math-vector-fortran.h
REM seed -1104453619 -789557982 -2138853449 -1850976799 599023181 316352434 -385897212 1979005766 -344783375 -651014208 326345901 -1528459345 499741260 -1998664569 -961754975 224078243 -674736332 -1767135070 -873253878 -1144602519 -1085255902 -1575561386 -1691003176 -1071624068 807998052 244556689 2034602478 -1965323214 -933116101 1742342479 -198910897 -1124273301 -1522993086
REM
CELL 1.54180   50.00000   50.00000   50.00000   90.00000   90.00000   90.00000
LATT -1
SFAC C  
C      1  0.4567910000000  0.4715760000000  0.5789370000000 1.0
C      1  0.5761830000000  0.4608160000000  0.4740160000000 1.0
C      1  0.4737940000000  0.5778820000000  0.4589230000000 1.0
C      1  0.5435720000000  0.5286710000000  0.5772610000000 1.0
C      1  0.5389530000000  0.4744180000000  0.4233210000000 1.0
C      1  0.4611320000000  0.5262410000000  0.4230960000000 1.0
C      1  0.4221830000000  0.5436360000000  0.4721490000000 1.0
C      1  0.4204900000000  0.4539900000000  0.5284510000000 1.0
C      1  0.5768780000000  0.5402480000000  0.5248490000000 1.0
C      1  0.5259370000000  0.4237930000000  0.4600290000000 1.0
C      1  0.5259100000000  0.5772800000000  0.5386180000000 1.0
C      1  0.4732770000000  0.4215010000000  0.5402570000000 1.0
C      1  0.4545510000000  0.4720620000000  0.4217110000000 1.0
C      1  0.5774720000000  0.4585400000000  0.5282450000000 1.0
C      1  0.4717360000000  0.5772760000000  0.5428260000000 1.0
C      1  0.5435860000000  0.5287440000000  0.4196790000000 1.0
C      1  0.5397180000000  0.4743550000000  0.5786780000000 1.0
C      1  0.4580430000000  0.5261830000000  0.5776540000000 1.0
C      1  0.4219810000000  0.5394750000000  0.5265790000000 1.0
C      1  0.4210920000000  0.4595070000000  0.4736860000000 1.0
C      1  0.5795840000000  0.5447590000000  0.4704500000000 1.0
C      1  0.5276970000000  0.4218520000000  0.5457310000000 1.0
C      1  0.5283810000000  0.5803080000000  0.4554880000000 1.0
C      1  0.4716640000000  0.4219730000000  0.4578780000000 1.0
C      1  0.5595470000000  0.5278770000000  0.4501290000000 1.0
C      1  0.4511810000000  0.5575320000000  0.5268580000000 1.0
C      1  0.5238420000000  0.4530520000000  0.5595250000000 1.0
C      1  0.4414540000000  0.4753650000000  0.4533500000000 1.0
C      1  0.4425970000000  0.5242120000000  0.5470400000000 1.0
C      1  0.5566500000000  0.4731430000000  0.5488230000000 1.0
C      1  0.5480950000000  0.4405580000000  0.5274050000000 1.0
C      1  0.5491300000000  0.5604920000000  0.4717840000000 1.0
C      1  0.4504600000000  0.4417750000000  0.4729040000000 1.0
C      1  0.4745010000000  0.5460050000000  0.5571150000000 1.0
C      1  0.4723910000000  0.4521220000000  0.4411840000000 1.0
C      1  0.5277140000000  0.5497470000000  0.4398020000000 1.0
C      1  0.5568050000000  0.5250590000000  0.5457240000000 1.0
C      1  0.4537070000000  0.5573800000000  0.4751740000000 1.0
C      1  0.5239330000000  0.4541310000000  0.4439280000000 1.0
C      1  0.4394580000000  0.4720150000000  0.5491700000000 1.0
C      1  0.4419760000000  0.5273650000000  0.4515920000000 1.0
C      1  0.5560580000000  0.4758370000000  0.4531180000000 1.0
C      1  0.5459200000000  0.4445400000000  0.4757300000000 1.0
C      1  0.5468070000000  0.5568890000000  0.5239030000000 1.0
C      1  0.4524720000000  0.4417410000000  0.5248540000000 1.0
C      1  0.4754750000000  0.5474160000000  0.4432310000000 1.0
C      1  0.4717140000000  0.4504310000000  0.5587130000000 1.0
C      1  0.5264740000000  0.5483990000000  0.5572260000000 1.0
C      1  0.5522080000000  0.5184630000000  0.4815340000000 1.0
C      1  0.4826520000000  0.5489760000000  0.5174080000000 1.0
C      1  0.5118290000000  0.4842040000000  0.5523430000000 1.0
C      1  0.4473980000000  0.4868550000000  0.4850350000000 1.0
C      1  0.4489450000000  0.5126500000000  0.5155150000000 1.0
C      1  0.5476940000000  0.4822690000000  0.5173180000000 1.0
C      1  0.5165370000000  0.4479650000000  0.5182280000000 1.0
C      1  0.5184450000000  0.5519760000000  0.4812790000000 1.0
C      1  0.4811600000000  0.4518760000000  0.4820730000000 1.0
C      1  0.4851290000000  0.5138850000000  0.5516240000000 1.0
C      1  0.4817360000000  0.4842240000000  0.4476280000000 1.0
C      1  0.5187990000000  0.5188550000000  0.4488320000000 1.0
C      1  0.5496350000000  0.5134610000000  0.5143240000000 1.0
C      1  0.4856800000000  0.5520450000000  0.4864140000000 1.0
C      1  0.5128960000000  0.4857080000000  0.4509970000000 1.0
C      1  0.4462980000000  0.4815750000000  0.5172590000000 1.0
C      1  0.4501580000000  0.5178860000000  0.4829130000000 1.0
C      1  0.5483660000000  0.4870320000000  0.4844400000000 1.0
C      1  0.5141410000000  0.4501810000000  0.4870360000000 1.0
C      1  0.5154790000000  0.5490480000000  0.5128130000000 1.0
C      1  0.4839800000000  0.4482900000000  0.5131240000000 1.0
C      1  0.4874280000000  0.5164740000000  0.4512160000000 1.0
C      1  0.4808080000000  0.4810330000000  0.5489000000000 1.0
C      1  0.5163720000000  0.5165620000000  0.5512350000000 1.0
C      1  0.5140730000000  0.4863320000000  0.4081960000000 1.0
C      1  0.4081550000000  0.5164570000000  0.4827610000000 1.0
C      1  0.4869250000000  0.4079440000000  0.5150070000000 1.0
C      1  0.4850590000000  0.5133330000000  0.4079660000000 1.0
C      1  0.4826800000000  0.4832280000000  0.5929260000000 1.0
C      1  0.5162900000000  0.5186090000000  0.5913010000000 1.0
C      1  0.5914400000000  0.4858300000000  0.4858820000000 1.0
C      1  0.5916710000000  0.5152830000000  0.5124820000000 1.0
C      1  0.4064280000000  0.4819970000000  0.5179010000000 1.0
C      1  0.5130970000000  0.5919940000000  0.5139380000000 1.0
C      1  0.5140100000000  0.4091590000000  0.4859730000000 1.0
C      1  0.4861160000000  0.5920060000000  0.4848120000000 1.0
C      1  0.5140280000000  0.4876260000000  0.5921270000000 1.0
C      1  0.4079720000000  0.5139710000000  0.5138880000000 1.0
C      1  0.4829700000000  0.4077290000000  0.4836920000000 1.0
C      1  0.4846200000000  0.5143250000000  0.5915890000000 1.0
C      1  0.4822740000000  0.4822750000000  0.4077330000000 1.0
C      1  0.5165110000000  0.5174020000000  0.4066480000000 1.0
C      1  0.5922200000000  0.4839250000000  0.5169600000000 1.0
C      1  0.5924890000000  0.5174050000000  0.4814600000000 1.0
C      1  0.4074840000000  0.4849660000000  0.4868420000000 1.0
C      1  0.5171620000000  0.5933160000000  0.4824980000000 1.0
C      1  0.5179130000000  0.4080760000000  0.5178080000000 1.0
C      1  0.4820990000000  0.5919090000000  0.5163860000000 1.0
C      1  0.5671060000000  0.4425590000000  0.5007060000000 1.0
C      1  0.5005780000000  0.5687390000000  0.4406600000000 1.0
C      1  0.4407310000000  0.4989470000000  0.5681600000000 1.0
C      1  0.4321670000000  0.5581140000000  0.5003610000000 1.0
C      1  0.4311810000000  0.4406100000000  0.4995500000000 1.0
C      1  0.5681120000000  0.5592180000000  0.4986900000000 1.0
C      1  0.4998600000000  0.5672330000000  0.5574610000000 1.0
C      1  0.4987250000000  0.4315250000000  0.5597090000000 1.0
C      1  0.5580210000000  0.5007220000000  0.4315460000000 1.0
C      1  0.4990170000000  0.4328840000000  0.4421390000000 1.0
C      1  0.5579930000000  0.5001650000000  0.5674740000000 1.0
C      1  0.4412180000000  0.5008780000000  0.4323550000000 1.0
C      1  0.5171430000000  0.4793730000000  0.5218350000000 1.0
C      1  0.4784150000000  0.5191160000000  0.5218420000000 1.0
C      1  0.4777730000000  0.4822770000000  0.4787580000000 1.0
C      1  0.5197820000000  0.5196430000000  0.4810560000000 1.0
C      1  0.5186520000000  0.4798370000000  0.4805640000000 1.0
C      1  0.4800390000000  0.5221140000000  0.4804830000000 1.0
C      1  0.4773920000000  0.4784470000000  0.5184880000000 1.0
C      1  0.5198900000000  0.5195100000000  0.5207860000000 1.0
C      1  0.4985130000000  0.5000670000000  0.5006940000000 1.0
END
