TITL C-2782228-2999-953 0.00424580207335145 125000 -1053.46709738617 0 0 180 (C1) n - 1
REM
REM in /home/nfs/bkarasulu/CARBON/AIRSS/Generating-Clusters/REBO/Higher-Symm/SD-CG/HFTN-CG
REM
REM
REM
REM
REM
REM ./C.cell (12c818d87b63d06a65506943cc24bca4)
REM
REM compiler GCC version 9.2.1 20190827 (Red Hat 9.2.1-1)
REM options -cpp -mtune=generic -march=x86-64 -g -O0 -fpre-include=/usr/include/finclude/math-vector-fortran.h
REM seed 792941754 1240753444 778144792 -1469822376 823513228 611554172 1813968151 591016149 707894759 1749441493 -333615561 2049562469 1306571478 501075793 2134145950 -251229672 -1141677319 -361847949 -186285122 1969886133 -1037651678 662835321 -85501824 2067962511 1446208105 1831246963 338062682 2145905923 861375375 1376681357 287901071 -1772659091 -1993204746
REM
CELL 1.54180   50.00000   50.00000   50.00000   90.00000   90.00000   90.00000
LATT -1
SFAC C  
C      1  0.5442980000000  0.4022950000000  0.4828840000000 1.0
C      1  0.5424310000000  0.5958540000000  0.5133440000000 1.0
C      1  0.4501870000000  0.4043880000000  0.4797640000000 1.0
C      1  0.4474190000000  0.5969570000000  0.5183670000000 1.0
C      1  0.5506050000000  0.4026950000000  0.5163270000000 1.0
C      1  0.5476450000000  0.5957750000000  0.4800030000000 1.0
C      1  0.4568790000000  0.4055980000000  0.5130900000000 1.0
C      1  0.4533200000000  0.5949600000000  0.4849070000000 1.0
C      1  0.4847390000000  0.5187500000000  0.5988000000000 1.0
C      1  0.4846130000000  0.4850400000000  0.3949060000000 1.0
C      1  0.5156820000000  0.5155140000000  0.5991840000000 1.0
C      1  0.5154620000000  0.4811810000000  0.3982710000000 1.0
C      1  0.4826990000000  0.5175920000000  0.3953650000000 1.0
C      1  0.4872370000000  0.4876290000000  0.6005770000000 1.0
C      1  0.5130580000000  0.5125080000000  0.3992240000000 1.0
C      1  0.5174010000000  0.4830770000000  0.6005850000000 1.0
C      1  0.4643550000000  0.4671450000000  0.4045020000000 1.0
C      1  0.4634570000000  0.5346950000000  0.5910640000000 1.0
C      1  0.5367270000000  0.4651640000000  0.4069740000000 1.0
C      1  0.5355920000000  0.5345960000000  0.5915250000000 1.0
C      1  0.4674570000000  0.4688410000000  0.5932210000000 1.0
C      1  0.4631030000000  0.5360950000000  0.4040570000000 1.0
C      1  0.5377850000000  0.4652620000000  0.5929470000000 1.0
C      1  0.5329500000000  0.5299320000000  0.4095780000000 1.0
C      1  0.4091300000000  0.4872150000000  0.5588090000000 1.0
C      1  0.4048040000000  0.5136440000000  0.4376610000000 1.0
C      1  0.5897830000000  0.4932290000000  0.5579950000000 1.0
C      1  0.5838710000000  0.5138420000000  0.4455200000000 1.0
C      1  0.4131210000000  0.4884650000000  0.4451830000000 1.0
C      1  0.4011630000000  0.5111700000000  0.5685530000000 1.0
C      1  0.5853090000000  0.4847210000000  0.4494640000000 1.0
C      1  0.5931190000000  0.5248050000000  0.5539120000000 1.0
C      1  0.4875730000000  0.4821710000000  0.4845440000000 1.0
C      1  0.4892170000000  0.5192400000000  0.5185220000000 1.0
C      1  0.5211480000000  0.4803320000000  0.4852270000000 1.0
C      1  0.5223180000000  0.5185320000000  0.5199610000000 1.0
C      1  0.4778940000000  0.4877380000000  0.5158630000000 1.0
C      1  0.4807910000000  0.5142940000000  0.4861930000000 1.0
C      1  0.5118260000000  0.4863930000000  0.5176820000000 1.0
C      1  0.5141170000000  0.5128500000000  0.4880430000000 1.0
C      1  0.5522890000000  0.5138270000000  0.5593060000000 1.0
C      1  0.5467190000000  0.4861790000000  0.4393840000000 1.0
C      1  0.4433990000000  0.5204770000000  0.5518450000000 1.0
C      1  0.4526980000000  0.4841980000000  0.4420960000000 1.0
C      1  0.5383900000000  0.5122560000000  0.4509830000000 1.0
C      1  0.5429090000000  0.4829520000000  0.5576050000000 1.0
C      1  0.4487850000000  0.5158890000000  0.4440150000000 1.0
C      1  0.4486760000000  0.4913380000000  0.5562410000000 1.0
C      1  0.4682220000000  0.5825220000000  0.5606040000000 1.0
C      1  0.4705900000000  0.4179750000000  0.4357710000000 1.0
C      1  0.5253460000000  0.5815100000000  0.5590840000000 1.0
C      1  0.5266630000000  0.4181110000000  0.4381710000000 1.0
C      1  0.4714310000000  0.5819340000000  0.4385900000000 1.0
C      1  0.4761570000000  0.4183390000000  0.5578490000000 1.0
C      1  0.5276650000000  0.5774900000000  0.4392210000000 1.0
C      1  0.5324680000000  0.4191150000000  0.5589490000000 1.0
C      1  0.4845430000000  0.5466070000000  0.4519180000000 1.0
C      1  0.4857510000000  0.4565040000000  0.5415450000000 1.0
C      1  0.5167960000000  0.5446160000000  0.4601140000000 1.0
C      1  0.5180320000000  0.4540070000000  0.5459560000000 1.0
C      1  0.4796350000000  0.5458480000000  0.5467880000000 1.0
C      1  0.4845410000000  0.4551290000000  0.4524630000000 1.0
C      1  0.5123000000000  0.5458280000000  0.5473380000000 1.0
C      1  0.5163730000000  0.4504980000000  0.4590900000000 1.0
C      1  0.4544980000000  0.5226830000000  0.4768660000000 1.0
C      1  0.4518780000000  0.4791390000000  0.5266850000000 1.0
C      1  0.5475020000000  0.5205530000000  0.4823110000000 1.0
C      1  0.5444300000000  0.4767410000000  0.5173500000000 1.0
C      1  0.4569540000000  0.5243270000000  0.5206910000000 1.0
C      1  0.4567360000000  0.4767730000000  0.4752960000000 1.0
C      1  0.5523610000000  0.5245210000000  0.5146030000000 1.0
C      1  0.5517890000000  0.4725690000000  0.4862130000000 1.0
C      1  0.5287960000000  0.5610920000000  0.5803890000000 1.0
C      1  0.5304190000000  0.4388930000000  0.4179990000000 1.0
C      1  0.4673440000000  0.5618000000000  0.5813250000000 1.0
C      1  0.4708900000000  0.4386310000000  0.4128380000000 1.0
C      1  0.5268340000000  0.5569430000000  0.4188920000000 1.0
C      1  0.5330650000000  0.4385200000000  0.5815010000000 1.0
C      1  0.4699980000000  0.5631740000000  0.4148400000000 1.0
C      1  0.4756380000000  0.4423570000000  0.5790140000000 1.0
C      1  0.4865610000000  0.4386310000000  0.4824280000000 1.0
C      1  0.4901870000000  0.5591890000000  0.5169720000000 1.0
C      1  0.5201250000000  0.4339700000000  0.4863760000000 1.0
C      1  0.5227600000000  0.5620930000000  0.5209090000000 1.0
C      1  0.4790230000000  0.4391950000000  0.5133950000000 1.0
C      1  0.4870360000000  0.5585360000000  0.4836810000000 1.0
C      1  0.5112140000000  0.4382040000000  0.5168390000000 1.0
C      1  0.5198980000000  0.5602250000000  0.4895810000000 1.0
C      1  0.4204930000000  0.5703170000000  0.4531710000000 1.0
C      1  0.4248430000000  0.4295480000000  0.5464220000000 1.0
C      1  0.5772710000000  0.5689830000000  0.4525990000000 1.0
C      1  0.5843830000000  0.4335280000000  0.5457260000000 1.0
C      1  0.4193350000000  0.5662930000000  0.5541370000000 1.0
C      1  0.4190720000000  0.4308290000000  0.4483380000000 1.0
C      1  0.5737600000000  0.5734110000000  0.5476770000000 1.0
C      1  0.5747000000000  0.4291300000000  0.4502220000000 1.0
C      1  0.4781950000000  0.5983380000000  0.5159070000000 1.0
C      1  0.4804550000000  0.3992050000000  0.4814940000000 1.0
C      1  0.5104520000000  0.5996440000000  0.5147280000000 1.0
C      1  0.5125040000000  0.3953090000000  0.4817250000000 1.0
C      1  0.4852130000000  0.5984250000000  0.4838120000000 1.0
C      1  0.4886790000000  0.4004100000000  0.5134430000000 1.0
C      1  0.5173680000000  0.5994680000000  0.4824180000000 1.0
C      1  0.5205430000000  0.3973610000000  0.5146210000000 1.0
C      1  0.4252020000000  0.5147270000000  0.5168170000000 1.0
C      1  0.4248030000000  0.4868590000000  0.4734200000000 1.0
C      1  0.5769530000000  0.5128340000000  0.5260680000000 1.0
C      1  0.5806260000000  0.4809450000000  0.4805010000000 1.0
C      1  0.4255670000000  0.5143710000000  0.4864290000000 1.0
C      1  0.4191880000000  0.4876920000000  0.5296190000000 1.0
C      1  0.5801860000000  0.5126990000000  0.4775380000000 1.0
C      1  0.5723640000000  0.4829030000000  0.5306150000000 1.0
C      1  0.5639700000000  0.4854160000000  0.5848390000000 1.0
C      1  0.5590370000000  0.5185490000000  0.4152300000000 1.0
C      1  0.4388060000000  0.4824510000000  0.5850830000000 1.0
C      1  0.4354560000000  0.5192370000000  0.4128700000000 1.0
C      1  0.5640260000000  0.4848300000000  0.4130290000000 1.0
C      1  0.5659370000000  0.5194670000000  0.5881990000000 1.0
C      1  0.4363620000000  0.4849580000000  0.4123250000000 1.0
C      1  0.4372580000000  0.5167720000000  0.5846510000000 1.0
C      1  0.6023620000000  0.5350530000000  0.5238220000000 1.0
C      1  0.5978540000000  0.4592300000000  0.4934050000000 1.0
C      1  0.4103590000000  0.5379680000000  0.5270160000000 1.0
C      1  0.4104470000000  0.4636920000000  0.4865320000000 1.0
C      1  0.5953960000000  0.5348720000000  0.4920980000000 1.0
C      1  0.5919660000000  0.4596210000000  0.5251730000000 1.0
C      1  0.4119890000000  0.5391310000000  0.4771450000000 1.0
C      1  0.4044250000000  0.4660320000000  0.5154430000000 1.0
C      1  0.5505340000000  0.4112610000000  0.4539740000000 1.0
C      1  0.5487010000000  0.5871900000000  0.5418740000000 1.0
C      1  0.4447590000000  0.4133540000000  0.4523490000000 1.0
C      1  0.4427480000000  0.5897670000000  0.5460390000000 1.0
C      1  0.5566390000000  0.4142280000000  0.5425420000000 1.0
C      1  0.5527930000000  0.5851030000000  0.4532270000000 1.0
C      1  0.4510320000000  0.4132600000000  0.5419300000000 1.0
C      1  0.4467160000000  0.5870780000000  0.4564710000000 1.0
C      1  0.5782130000000  0.4617940000000  0.5640140000000 1.0
C      1  0.5774170000000  0.5417970000000  0.4321640000000 1.0
C      1  0.4244440000000  0.4576840000000  0.5659590000000 1.0
C      1  0.4204820000000  0.5422110000000  0.4338760000000 1.0
C      1  0.5749350000000  0.4586420000000  0.4329990000000 1.0
C      1  0.5738720000000  0.5460890000000  0.5679300000000 1.0
C      1  0.4222540000000  0.4604240000000  0.4317110000000 1.0
C      1  0.4134590000000  0.5377360000000  0.5716400000000 1.0
C      1  0.5814510000000  0.5627870000000  0.4846690000000 1.0
C      1  0.5743600000000  0.4339860000000  0.5127910000000 1.0
C      1  0.4262330000000  0.5653800000000  0.4883650000000 1.0
C      1  0.4210030000000  0.4376760000000  0.5147540000000 1.0
C      1  0.5865790000000  0.5636710000000  0.5181670000000 1.0
C      1  0.5825230000000  0.4322580000000  0.4814680000000 1.0
C      1  0.4235340000000  0.5649730000000  0.5201070000000 1.0
C      1  0.4240700000000  0.4350900000000  0.4812550000000 1.0
C      1  0.4849930000000  0.4842760000000  0.4347800000000 1.0
C      1  0.4879140000000  0.5166250000000  0.5583190000000 1.0
C      1  0.5146900000000  0.4805780000000  0.4459330000000 1.0
C      1  0.5206440000000  0.5159200000000  0.5595220000000 1.0
C      1  0.4784770000000  0.4859970000000  0.5557200000000 1.0
C      1  0.4799900000000  0.5176500000000  0.4351870000000 1.0
C      1  0.5101730000000  0.4837430000000  0.5575310000000 1.0
C      1  0.5073130000000  0.5139410000000  0.4489400000000 1.0
C      1  0.4564610000000  0.5581200000000  0.5171270000000 1.0
C      1  0.4545570000000  0.4438830000000  0.4762060000000 1.0
C      1  0.5544000000000  0.5555090000000  0.5182150000000 1.0
C      1  0.5501520000000  0.4423250000000  0.4788030000000 1.0
C      1  0.4553440000000  0.5546800000000  0.4779370000000 1.0
C      1  0.4512050000000  0.4483930000000  0.5231700000000 1.0
C      1  0.5506540000000  0.5543480000000  0.4785190000000 1.0
C      1  0.5443130000000  0.4433190000000  0.5181260000000 1.0
C      1  0.4512670000000  0.5485850000000  0.4466260000000 1.0
C      1  0.4552360000000  0.4522350000000  0.5559660000000 1.0
C      1  0.5487600000000  0.5417340000000  0.4484650000000 1.0
C      1  0.5503040000000  0.4533560000000  0.5488670000000 1.0
C      1  0.4473640000000  0.5505970000000  0.5487280000000 1.0
C      1  0.4519030000000  0.4517460000000  0.4446740000000 1.0
C      1  0.5459250000000  0.5447570000000  0.5483200000000 1.0
C      1  0.5462170000000  0.4565700000000  0.4500770000000 1.0
C      1  0.5001650000000  0.5881270000000  0.4548530000000 1.0
C      1  0.5043470000000  0.4087980000000  0.5428090000000 1.0
C      1  0.4959950000000  0.5894370000000  0.5439680000000 1.0
C      1  0.4980870000000  0.4087110000000  0.4535160000000 1.0
END
