TITL C-2782234-8014-614 -0.000439503843740688 125000 -381.23749240732 0 0 68 (Ci) n - 1
REM
REM in /home/nfs/bkarasulu/CARBON/AIRSS/Generating-Clusters/REBO/Higher-Symm/SD-CG/HFTN-CG
REM
REM
REM
REM
REM
REM ./C.cell (12c818d87b63d06a65506943cc24bca4)
REM
REM compiler GCC version 9.2.1 20190827 (Red Hat 9.2.1-1)
REM options -cpp -mtune=generic -march=x86-64 -g -O0 -fpre-include=/usr/include/finclude/math-vector-fortran.h
REM seed -1684098800 823972875 138815806 2055152027 -1389807473 1207893870 32844886 1609712075 -1631921674 -1515023089 192560201 -566650626 1614094475 2021848418 -1946640873 -300667996 -1776817618 -1399343335 16156274 1989656665 1488770347 147358654 -1495269638 -558799681 158606798 -606540879 840424574 -1778173900 -485952838 -448925350 1504509372 -1559517237 -199105696
REM
CELL 1.54180   50.00000   50.00000   50.00000   90.00000   90.00000   90.00000
LATT -1
SFAC C  
C      1  0.4275690000000  0.5490060000000  0.4896340000000 1.0
C      1  0.5724310000000  0.4509940000000  0.5103660000000 1.0
C      1  0.4720240000000  0.4476560000000  0.4635840000000 1.0
C      1  0.5279760000000  0.5523440000000  0.5364160000000 1.0
C      1  0.4706560000000  0.4940220000000  0.5583430000000 1.0
C      1  0.5293440000000  0.5059780000000  0.4416570000000 1.0
C      1  0.5834390000000  0.5100500000000  0.5128410000000 1.0
C      1  0.4165610000000  0.4899500000000  0.4871590000000 1.0
C      1  0.4953670000000  0.5205730000000  0.5428600000000 1.0
C      1  0.5046330000000  0.4794270000000  0.4571400000000 1.0
C      1  0.4792050000000  0.4784900000000  0.5085020000000 1.0
C      1  0.5207950000000  0.5215100000000  0.4914980000000 1.0
C      1  0.5008810000000  0.5653740000000  0.5194790000000 1.0
C      1  0.4991190000000  0.4346260000000  0.4805210000000 1.0
C      1  0.4532790000000  0.5474600000000  0.5374580000000 1.0
C      1  0.5467210000000  0.4525400000000  0.4625420000000 1.0
C      1  0.4489750000000  0.4739770000000  0.5563910000000 1.0
C      1  0.5510250000000  0.5260230000000  0.4436090000000 1.0
C      1  0.5533490000000  0.5332130000000  0.5237230000000 1.0
C      1  0.4466510000000  0.4667870000000  0.4762770000000 1.0
C      1  0.5331650000000  0.5489700000000  0.5034320000000 1.0
C      1  0.4668350000000  0.4510300000000  0.4965680000000 1.0
C      1  0.4397220000000  0.4986180000000  0.4669040000000 1.0
C      1  0.5602780000000  0.5013820000000  0.5330960000000 1.0
C      1  0.5144180000000  0.5363910000000  0.5563310000000 1.0
C      1  0.4855820000000  0.4636090000000  0.4436690000000 1.0
C      1  0.5525030000000  0.4695940000000  0.5269520000000 1.0
C      1  0.4474970000000  0.5304060000000  0.4730480000000 1.0
C      1  0.5607380000000  0.5230770000000  0.4915010000000 1.0
C      1  0.4392620000000  0.4769230000000  0.5084990000000 1.0
C      1  0.5419770000000  0.4964330000000  0.4855410000000 1.0
C      1  0.4580230000000  0.5035670000000  0.5144590000000 1.0
C      1  0.5329840000000  0.4241220000000  0.5402740000000 1.0
C      1  0.4670160000000  0.5758780000000  0.4597260000000 1.0
C      1  0.5315320000000  0.5609390000000  0.4653630000000 1.0
C      1  0.4684680000000  0.4390610000000  0.5346370000000 1.0
C      1  0.5638760000000  0.4343110000000  0.4934950000000 1.0
C      1  0.4361240000000  0.5656890000000  0.5065050000000 1.0
C      1  0.4483650000000  0.4589710000000  0.5330690000000 1.0
C      1  0.5516350000000  0.5410290000000  0.4669310000000 1.0
C      1  0.5096460000000  0.4671600000000  0.4854900000000 1.0
C      1  0.4903540000000  0.5328400000000  0.5145100000000 1.0
C      1  0.5049000000000  0.5011050000000  0.4235480000000 1.0
C      1  0.4951000000000  0.4988950000000  0.5764520000000 1.0
C      1  0.4683450000000  0.5660570000000  0.5150530000000 1.0
C      1  0.5316550000000  0.4339430000000  0.4849470000000 1.0
C      1  0.4863930000000  0.4416670000000  0.5561670000000 1.0
C      1  0.5136070000000  0.5583330000000  0.4438330000000 1.0
C      1  0.4833660000000  0.5668710000000  0.4395460000000 1.0
C      1  0.5166340000000  0.4331290000000  0.5604540000000 1.0
C      1  0.4991020000000  0.5098480000000  0.4621340000000 1.0
C      1  0.5008980000000  0.4901520000000  0.5378660000000 1.0
C      1  0.5099230000000  0.4657660000000  0.5566110000000 1.0
C      1  0.4900770000000  0.5342340000000  0.4433890000000 1.0
C      1  0.5376380000000  0.4794360000000  0.4598510000000 1.0
C      1  0.4623620000000  0.5205640000000  0.5401490000000 1.0
C      1  0.4833290000000  0.5082370000000  0.4920040000000 1.0
C      1  0.5166710000000  0.4917630000000  0.5079960000000 1.0
C      1  0.5018330000000  0.4538420000000  0.5152890000000 1.0
C      1  0.4981670000000  0.5461580000000  0.4847110000000 1.0
C      1  0.4665360000000  0.5548360000000  0.4829630000000 1.0
C      1  0.5334640000000  0.4451640000000  0.5170370000000 1.0
C      1  0.5377910000000  0.4849390000000  0.5522850000000 1.0
C      1  0.4622090000000  0.5150610000000  0.4477150000000 1.0
C      1  0.5199570000000  0.5001360000000  0.5742250000000 1.0
C      1  0.4800430000000  0.4998640000000  0.4257750000000 1.0
C      1  0.4830850000000  0.4257600000000  0.5092550000000 1.0
C      1  0.5169150000000  0.5742400000000  0.4907450000000 1.0
END
