TITL C-2782232-2968-1399 -0.00379625768958007 125000 -795.42960932845 0 0 142 (C1) n - 1
REM
REM in /home/nfs/bkarasulu/CARBON/AIRSS/Generating-Clusters/REBO/Higher-Symm/SD-CG/HFTN-CG
REM
REM
REM
REM
REM
REM ./C.cell (12c818d87b63d06a65506943cc24bca4)
REM
REM compiler GCC version 9.2.1 20190827 (Red Hat 9.2.1-1)
REM options -cpp -mtune=generic -march=x86-64 -g -O0 -fpre-include=/usr/include/finclude/math-vector-fortran.h
REM seed -506408721 -1460153191 1515819896 613208192 -1441189128 -466755821 384713430 1023767206 -516025123 2142724650 -1613019235 -1676816538 18172303 -167339278 -1891042842 -702699012 2004439255 -282267931 1001269242 -1019515698 1708818231 -355237561 1909856266 -1092092293 -462164016 -1543231335 1857715034 -1721446255 262854022 1084596454 -779397847 936935761 36712569
REM
CELL 1.54180   50.00000   50.00000   50.00000   90.00000   90.00000   90.00000
LATT -1
SFAC C  
C      1  0.5894270000000  0.4842530000000  0.5331100000000 1.0
C      1  0.5413810000000  0.5003170000000  0.5793250000000 1.0
C      1  0.4936600000000  0.4794620000000  0.6032760000000 1.0
C      1  0.4210940000000  0.5163050000000  0.5733320000000 1.0
C      1  0.4024860000000  0.4802650000000  0.5268830000000 1.0
C      1  0.4137270000000  0.5166680000000  0.4503090000000 1.0
C      1  0.4527180000000  0.4844000000000  0.4166570000000 1.0
C      1  0.5166100000000  0.4997330000000  0.4007260000000 1.0
C      1  0.5677180000000  0.4850320000000  0.4239330000000 1.0
C      1  0.5977050000000  0.5152660000000  0.4758480000000 1.0
C      1  0.5077910000000  0.4849240000000  0.4499240000000 1.0
C      1  0.5326820000000  0.5218070000000  0.4636220000000 1.0
C      1  0.5460420000000  0.4799580000000  0.4818060000000 1.0
C      1  0.5351620000000  0.5083880000000  0.5074550000000 1.0
C      1  0.5114580000000  0.4897600000000  0.5332920000000 1.0
C      1  0.4885310000000  0.5103120000000  0.5584760000000 1.0
C      1  0.4720300000000  0.4960440000000  0.5352420000000 1.0
C      1  0.4444530000000  0.5133810000000  0.5123470000000 1.0
C      1  0.4624790000000  0.5014830000000  0.4889290000000 1.0
C      1  0.4860230000000  0.5145590000000  0.4599560000000 1.0
C      1  0.4066460000000  0.4325300000000  0.5109700000000 1.0
C      1  0.4255880000000  0.5715350000000  0.4386030000000 1.0
C      1  0.4675650000000  0.4298880000000  0.4161140000000 1.0
C      1  0.5390040000000  0.5758780000000  0.4107730000000 1.0
C      1  0.5809660000000  0.4361650000000  0.4407710000000 1.0
C      1  0.6005850000000  0.5621920000000  0.5041990000000 1.0
C      1  0.5815360000000  0.4318930000000  0.5539420000000 1.0
C      1  0.5217640000000  0.5689250000000  0.5890090000000 1.0
C      1  0.4788460000000  0.4303170000000  0.5981120000000 1.0
C      1  0.4170990000000  0.5713490000000  0.5525290000000 1.0
C      1  0.4502560000000  0.5167700000000  0.5516380000000 1.0
C      1  0.4345290000000  0.4880430000000  0.5263890000000 1.0
C      1  0.4405220000000  0.5228490000000  0.4741380000000 1.0
C      1  0.4681220000000  0.4880550000000  0.4483860000000 1.0
C      1  0.5126060000000  0.5124640000000  0.4304010000000 1.0
C      1  0.5457310000000  0.4956980000000  0.4470030000000 1.0
C      1  0.5647600000000  0.5064430000000  0.4811250000000 1.0
C      1  0.5587980000000  0.4858810000000  0.5172320000000 1.0
C      1  0.5277050000000  0.5112080000000  0.5511860000000 1.0
C      1  0.4978730000000  0.4840670000000  0.5703110000000 1.0
C      1  0.4267230000000  0.4375610000000  0.4872180000000 1.0
C      1  0.4569640000000  0.5654930000000  0.4316600000000 1.0
C      1  0.4990280000000  0.4358190000000  0.4228110000000 1.0
C      1  0.5521470000000  0.5625620000000  0.4363750000000 1.0
C      1  0.5723260000000  0.4382640000000  0.4712340000000 1.0
C      1  0.5734730000000  0.5588650000000  0.5211400000000 1.0
C      1  0.5502910000000  0.4355770000000  0.5609530000000 1.0
C      1  0.4933890000000  0.5556260000000  0.5809060000000 1.0
C      1  0.4589660000000  0.4342160000000  0.5724590000000 1.0
C      1  0.4182320000000  0.5610480000000  0.5205650000000 1.0
C      1  0.5550220000000  0.4231140000000  0.4954260000000 1.0
C      1  0.5463020000000  0.5765160000000  0.5279320000000 1.0
C      1  0.5221560000000  0.4202200000000  0.5542000000000 1.0
C      1  0.4799960000000  0.5704000000000  0.5544680000000 1.0
C      1  0.4573590000000  0.4232300000000  0.5415400000000 1.0
C      1  0.4410910000000  0.5750700000000  0.5006210000000 1.0
C      1  0.4543420000000  0.4250200000000  0.4759060000000 1.0
C      1  0.4807430000000  0.5796830000000  0.4491690000000 1.0
C      1  0.5152160000000  0.4242760000000  0.4490630000000 1.0
C      1  0.5461120000000  0.5801510000000  0.4648540000000 1.0
C      1  0.5223600000000  0.4434280000000  0.5790880000000 1.0
C      1  0.4597900000000  0.5531910000000  0.5753310000000 1.0
C      1  0.4323080000000  0.4429290000000  0.5535330000000 1.0
C      1  0.4173160000000  0.5554950000000  0.4869430000000 1.0
C      1  0.4370880000000  0.4456400000000  0.4559350000000 1.0
C      1  0.4888280000000  0.5600750000000  0.4236070000000 1.0
C      1  0.5319600000000  0.4408940000000  0.4245680000000 1.0
C      1  0.5725730000000  0.5595920000000  0.4624910000000 1.0
C      1  0.5837680000000  0.4384480000000  0.5029590000000 1.0
C      1  0.5559110000000  0.5528540000000  0.5488950000000 1.0
C      1  0.4888610000000  0.5708990000000  0.4760960000000 1.0
C      1  0.5059830000000  0.4343080000000  0.4755660000000 1.0
C      1  0.5216160000000  0.5761170000000  0.4815020000000 1.0
C      1  0.5270900000000  0.4317530000000  0.5002040000000 1.0
C      1  0.5213190000000  0.5693990000000  0.5135820000000 1.0
C      1  0.5103630000000  0.4269630000000  0.5280980000000 1.0
C      1  0.4914760000000  0.5634240000000  0.5269050000000 1.0
C      1  0.4786880000000  0.4327070000000  0.5227590000000 1.0
C      1  0.4696760000000  0.5668760000000  0.5028560000000 1.0
C      1  0.4772920000000  0.4381510000000  0.4903290000000 1.0
C      1  0.4702920000000  0.5337050000000  0.5109800000000 1.0
C      1  0.4696920000000  0.4713540000000  0.4899930000000 1.0
C      1  0.4858170000000  0.5372180000000  0.4820020000000 1.0
C      1  0.4983240000000  0.4675350000000  0.4734970000000 1.0
C      1  0.5178350000000  0.5444520000000  0.4826870000000 1.0
C      1  0.5228860000000  0.4651650000000  0.4940220000000 1.0
C      1  0.5172570000000  0.5355950000000  0.5144860000000 1.0
C      1  0.5084280000000  0.4592540000000  0.5221540000000 1.0
C      1  0.4930230000000  0.5299330000000  0.5340670000000 1.0
C      1  0.4760640000000  0.4661160000000  0.5212650000000 1.0
C      1  0.5702850000000  0.5241710000000  0.4284550000000 1.0
C      1  0.5897930000000  0.4764950000000  0.4724220000000 1.0
C      1  0.5797920000000  0.5222720000000  0.5359390000000 1.0
C      1  0.5508210000000  0.4688670000000  0.5796410000000 1.0
C      1  0.4855230000000  0.5185190000000  0.6031810000000 1.0
C      1  0.4376040000000  0.4904990000000  0.5787290000000 1.0
C      1  0.3963250000000  0.5184650000000  0.5158610000000 1.0
C      1  0.4169450000000  0.4915040000000  0.4675890000000 1.0
C      1  0.4633650000000  0.5222330000000  0.4127720000000 1.0
C      1  0.5118040000000  0.4667350000000  0.3997080000000 1.0
C      1  0.4344080000000  0.4644400000000  0.5029640000000 1.0
C      1  0.4462750000000  0.5383170000000  0.4450360000000 1.0
C      1  0.4835290000000  0.4635670000000  0.4298220000000 1.0
C      1  0.5335500000000  0.5379270000000  0.4218210000000 1.0
C      1  0.5560450000000  0.4636530000000  0.4554840000000 1.0
C      1  0.5723860000000  0.5345560000000  0.4990560000000 1.0
C      1  0.5580780000000  0.4615060000000  0.5414010000000 1.0
C      1  0.5169760000000  0.5314590000000  0.5765520000000 1.0
C      1  0.4748440000000  0.4613100000000  0.5734400000000 1.0
C      1  0.4245120000000  0.5350600000000  0.5387590000000 1.0
C      1  0.4185640000000  0.5264960000000  0.5001620000000 1.0
C      1  0.4398660000000  0.4771260000000  0.4579900000000 1.0
C      1  0.4850050000000  0.5298520000000  0.4299350000000 1.0
C      1  0.5286180000000  0.4732140000000  0.4280190000000 1.0
C      1  0.5641090000000  0.5298560000000  0.4559750000000 1.0
C      1  0.5811590000000  0.4698250000000  0.4969630000000 1.0
C      1  0.5499070000000  0.5241510000000  0.5341970000000 1.0
C      1  0.5236230000000  0.4708940000000  0.5590720000000 1.0
C      1  0.4697950000000  0.5234060000000  0.5792820000000 1.0
C      1  0.4331260000000  0.4743960000000  0.5550220000000 1.0
C      1  0.4504350000000  0.4525160000000  0.4283960000000 1.0
C      1  0.5135370000000  0.5614880000000  0.4076230000000 1.0
C      1  0.5625860000000  0.4528290000000  0.4235700000000 1.0
C      1  0.5974000000000  0.5481770000000  0.4776030000000 1.0
C      1  0.5890290000000  0.4503240000000  0.5309000000000 1.0
C      1  0.5431640000000  0.5531850000000  0.5754340000000 1.0
C      1  0.5011170000000  0.4477500000000  0.6002090000000 1.0
C      1  0.4309220000000  0.5488650000000  0.5696550000000 1.0
C      1  0.4079890000000  0.4493230000000  0.5334520000000 1.0
C      1  0.4158300000000  0.5497930000000  0.4580760000000 1.0
C      1  0.5928130000000  0.5085340000000  0.5092540000000 1.0
C      1  0.5664930000000  0.4901280000000  0.5579470000000 1.0
C      1  0.5145790000000  0.5060880000000  0.5991350000000 1.0
C      1  0.4625880000000  0.4851910000000  0.5900420000000 1.0
C      1  0.4031710000000  0.5090580000000  0.5450980000000 1.0
C      1  0.4110570000000  0.4856030000000  0.4942480000000 1.0
C      1  0.4362290000000  0.5125430000000  0.4249970000000 1.0
C      1  0.4847950000000  0.4870350000000  0.4050180000000 1.0
C      1  0.5480390000000  0.5093480000000  0.4097420000000 1.0
C      1  0.5871320000000  0.4950690000000  0.4501060000000 1.0
C      1  0.5103840000000  0.5056930000000  0.4832780000000 1.0
C      1  0.4914780000000  0.5000440000000  0.5075470000000 1.0
END
