TITL C-2782237-5345-497 -1.83621291857954e-05 125000 -438.502749774936 0 0 75 (D5) n - 1
REM
REM in /home/nfs/bkarasulu/CARBON/AIRSS/Generating-Clusters/REBO/Higher-Symm/SD-CG/HFTN-CG
REM
REM
REM
REM
REM
REM ./C.cell (12c818d87b63d06a65506943cc24bca4)
REM
REM compiler GCC version 9.2.1 20190827 (Red Hat 9.2.1-1)
REM options -cpp -mtune=generic -march=x86-64 -g -O0 -fpre-include=/usr/include/finclude/math-vector-fortran.h
REM seed 1626805070 -2097812579 -1345189356 1730472197 -1614055676 239940884 -958957437 1993797718 804498423 318933483 -77946344 482673218 -1734475946 -1762075033 1631043523 -1562655164 -1055922971 -1507662837 -203085680 2007664047 -2044597808 1463874809 -1998679728 1538100841 1043964621 -935209782 90054097 -478993999 -915123956 -898580999 -233571514 -337111097 -997812066
REM
CELL 1.54180   50.00000   50.00000   50.00000   90.00000   90.00000   90.00000
LATT -1
SFAC C  
C      1  0.4767770000000  0.5731510000000  0.4908590000000 1.0
C      1  0.5015340000000  0.5731420000000  0.4750650000000 1.0
C      1  0.5242060000000  0.5731350000000  0.4937300000000 1.0
C      1  0.5134600000000  0.5731380000000  0.5210590000000 1.0
C      1  0.4841480000000  0.5731480000000  0.5192850000000 1.0
C      1  0.5232230000000  0.4279570000000  0.4908590000000 1.0
C      1  0.4984650000000  0.4279650000000  0.4750650000000 1.0
C      1  0.4757940000000  0.4279730000000  0.4937310000000 1.0
C      1  0.4865410000000  0.4279700000000  0.5210610000000 1.0
C      1  0.5158530000000  0.4279600000000  0.5192850000000 1.0
C      1  0.4671640000000  0.5263840000000  0.5085720000000 1.0
C      1  0.4817070000000  0.5263790000000  0.4714120000000 1.0
C      1  0.5215420000000  0.5263650000000  0.4737590000000 1.0
C      1  0.5316190000000  0.5263620000000  0.5123700000000 1.0
C      1  0.4980120000000  0.5263730000000  0.5338860000000 1.0
C      1  0.5328360000000  0.4747240000000  0.5085710000000 1.0
C      1  0.5182920000000  0.4747290000000  0.4714110000000 1.0
C      1  0.4784570000000  0.4747430000000  0.4737600000000 1.0
C      1  0.4683810000000  0.4747460000000  0.5123720000000 1.0
C      1  0.5019890000000  0.4747350000000  0.5338860000000 1.0
C      1  0.5572990000000  0.4655920000000  0.5386030000000 1.0
C      1  0.4809850000000  0.4656190000000  0.5664350000000 1.0
C      1  0.4309320000000  0.4656350000000  0.5024570000000 1.0
C      1  0.4763120000000  0.4656200000000  0.4350830000000 1.0
C      1  0.5544110000000  0.4655930000000  0.4574230000000 1.0
C      1  0.4427020000000  0.5355160000000  0.5386050000000 1.0
C      1  0.5190180000000  0.5354900000000  0.5664340000000 1.0
C      1  0.5690680000000  0.5354730000000  0.5024530000000 1.0
C      1  0.5236850000000  0.5354880000000  0.4350820000000 1.0
C      1  0.4455870000000  0.5355150000000  0.4574250000000 1.0
C      1  0.5418810000000  0.5479780000000  0.4893290000000 1.0
C      1  0.5231020000000  0.5479840000000  0.5365180000000 1.0
C      1  0.4724200000000  0.5480020000000  0.5332400000000 1.0
C      1  0.4598750000000  0.5480060000000  0.4840260000000 1.0
C      1  0.5028040000000  0.5479910000000  0.4568870000000 1.0
C      1  0.4581190000000  0.4531300000000  0.4893310000000 1.0
C      1  0.4769000000000  0.4531240000000  0.5365190000000 1.0
C      1  0.5275820000000  0.4531070000000  0.5332390000000 1.0
C      1  0.5401240000000  0.4531020000000  0.4840240000000 1.0
C      1  0.4971940000000  0.4531170000000  0.4568870000000 1.0
C      1  0.5741010000000  0.4662810000000  0.5155500000000 1.0
C      1  0.5081020000000  0.4663040000000  0.5752900000000 1.0
C      1  0.4308900000000  0.4663300000000  0.5309830000000 1.0
C      1  0.4491700000000  0.4663240000000  0.4438580000000 1.0
C      1  0.5376790000000  0.4662930000000  0.4343200000000 1.0
C      1  0.4259000000000  0.5348270000000  0.5155530000000 1.0
C      1  0.4919010000000  0.5348050000000  0.5752910000000 1.0
C      1  0.5691110000000  0.5347780000000  0.5309790000000 1.0
C      1  0.5508280000000  0.5347840000000  0.4438550000000 1.0
C      1  0.4623180000000  0.5348140000000  0.4343210000000 1.0
C      1  0.4347890000000  0.4858520000000  0.5496700000000 1.0
C      1  0.4326060000000  0.4858520000000  0.4533340000000 1.0
C      1  0.5235530000000  0.4858210000000  0.4214890000000 1.0
C      1  0.5819430000000  0.4858010000000  0.4981440000000 1.0
C      1  0.5270840000000  0.4858200000000  0.5773640000000 1.0
C      1  0.5652140000000  0.5152570000000  0.5496670000000 1.0
C      1  0.5673920000000  0.5152560000000  0.4533310000000 1.0
C      1  0.4764440000000  0.5152860000000  0.4214900000000 1.0
C      1  0.4180570000000  0.5153070000000  0.4981470000000 1.0
C      1  0.4729200000000  0.5152880000000  0.5773650000000 1.0
C      1  0.4837080000000  0.4889600000000  0.4207240000000 1.0
C      1  0.5703590000000  0.4889300000000  0.4600120000000 1.0
C      1  0.5597710000000  0.4889340000000  0.5545620000000 1.0
C      1  0.4665760000000  0.4889660000000  0.5737100000000 1.0
C      1  0.4195670000000  0.4889820000000  0.4909930000000 1.0
C      1  0.5162880000000  0.5121480000000  0.4207230000000 1.0
C      1  0.4296390000000  0.5121780000000  0.4600150000000 1.0
C      1  0.4402320000000  0.5121740000000  0.5545640000000 1.0
C      1  0.5334270000000  0.5121430000000  0.5737080000000 1.0
C      1  0.5804330000000  0.5121260000000  0.4909890000000 1.0
C      1  0.4801770000000  0.5005610000000  0.5272860000000 1.0
C      1  0.4679240000000  0.5005650000000  0.4895790000000 1.0
C      1  0.4999990000000  0.5005540000000  0.4662740000000 1.0
C      1  0.5320750000000  0.5005430000000  0.4895770000000 1.0
C      1  0.5198250000000  0.5005470000000  0.5272850000000 1.0
END
