TITL C-2782228-2999-494 0.00138042168761974 125000 -758.246431844552 0 0 130 (C1) n - 1
REM
REM in /home/nfs/bkarasulu/CARBON/AIRSS/Generating-Clusters/REBO/Higher-Symm/SD-CG/HFTN-CG
REM
REM
REM
REM
REM
REM ./C.cell (12c818d87b63d06a65506943cc24bca4)
REM
REM compiler GCC version 9.2.1 20190827 (Red Hat 9.2.1-1)
REM options -cpp -mtune=generic -march=x86-64 -g -O0 -fpre-include=/usr/include/finclude/math-vector-fortran.h
REM seed -1201594839 2042175689 1125773333 -791174339 1853833356 390503666 1417205600 1762169464 -1526742292 -1420882097 -819832147 -969964428 -2138264920 -445842150 1397967456 673960298 -278640749 -1466882677 -1074373608 1889862634 2098580140 2133778131 324893638 1888144391 1392519450 619876188 -1252445009 -2038421670 -210439047 396705802 1617844556 789302522 -25909176
REM
CELL 1.54180   50.00000   50.00000   50.00000   90.00000   90.00000   90.00000
LATT -1
SFAC C  
C      1  0.5903520000000  0.5435960000000  0.4797880000000 1.0
C      1  0.6615240000000  0.5534120000000  0.5169620000000 1.0
C      1  0.4894980000000  0.5595160000000  0.5865480000000 1.0
C      1  0.4351750000000  0.5720760000000  0.6266720000000 1.0
C      1  0.3730010000000  0.5541060000000  0.5183210000000 1.0
C      1  0.4470440000000  0.5330660000000  0.3758030000000 1.0
C      1  0.5659400000000  0.5552630000000  0.3839170000000 1.0
C      1  0.5663030000000  0.5301740000000  0.5087100000000 1.0
C      1  0.5356090000000  0.5267230000000  0.5602760000000 1.0
C      1  0.4736630000000  0.5284610000000  0.5670830000000 1.0
C      1  0.4389870000000  0.5172830000000  0.5224790000000 1.0
C      1  0.4382920000000  0.5241380000000  0.4589510000000 1.0
C      1  0.4902360000000  0.5322130000000  0.4293110000000 1.0
C      1  0.5469850000000  0.5322920000000  0.4526910000000 1.0
C      1  0.5581580000000  0.5440340000000  0.4804200000000 1.0
C      1  0.5458050000000  0.5367260000000  0.5323370000000 1.0
C      1  0.5045390000000  0.5359240000000  0.5580870000000 1.0
C      1  0.4605000000000  0.5319140000000  0.5399940000000 1.0
C      1  0.4397230000000  0.5315160000000  0.4917100000000 1.0
C      1  0.4659790000000  0.5372770000000  0.4503230000000 1.0
C      1  0.5167290000000  0.5415370000000  0.4455450000000 1.0
C      1  0.4439230000000  0.5165210000000  0.3958870000000 1.0
C      1  0.5465560000000  0.5387480000000  0.3901100000000 1.0
C      1  0.6017530000000  0.5209760000000  0.4691380000000 1.0
C      1  0.6383890000000  0.5411530000000  0.5158280000000 1.0
C      1  0.4988890000000  0.5378980000000  0.6001360000000 1.0
C      1  0.4453970000000  0.5539620000000  0.6107290000000 1.0
C      1  0.3887470000000  0.5347730000000  0.5102540000000 1.0
C      1  0.4495740000000  0.4927970000000  0.4928190000000 1.0
C      1  0.4538790000000  0.4624280000000  0.4465810000000 1.0
C      1  0.5136130000000  0.4832640000000  0.4370580000000 1.0
C      1  0.5541020000000  0.4633990000000  0.4634130000000 1.0
C      1  0.5562640000000  0.4743490000000  0.5255380000000 1.0
C      1  0.5243470000000  0.4806560000000  0.5600920000000 1.0
C      1  0.4737990000000  0.4726170000000  0.5493170000000 1.0
C      1  0.5481560000000  0.4522240000000  0.4364460000000 1.0
C      1  0.5766940000000  0.4536350000000  0.5129810000000 1.0
C      1  0.5464200000000  0.4483470000000  0.5768530000000 1.0
C      1  0.4742460000000  0.4512440000000  0.5732110000000 1.0
C      1  0.4188130000000  0.4453860000000  0.5392800000000 1.0
C      1  0.4279490000000  0.4519620000000  0.4601870000000 1.0
C      1  0.4964340000000  0.4565040000000  0.4248800000000 1.0
C      1  0.4859590000000  0.5642470000000  0.5541600000000 1.0
C      1  0.4606070000000  0.5618670000000  0.5311440000000 1.0
C      1  0.4546450000000  0.5605450000000  0.4974600000000 1.0
C      1  0.4734400000000  0.5632690000000  0.4690160000000 1.0
C      1  0.5059020000000  0.5679960000000  0.4595310000000 1.0
C      1  0.5318820000000  0.5586160000000  0.4796850000000 1.0
C      1  0.5410000000000  0.5674780000000  0.5317000000000 1.0
C      1  0.4963130000000  0.5952160000000  0.4758590000000 1.0
C      1  0.5178960000000  0.5847280000000  0.4937920000000 1.0
C      1  0.5212610000000  0.5852000000000  0.5219530000000 1.0
C      1  0.4994640000000  0.5904460000000  0.5392470000000 1.0
C      1  0.4698430000000  0.5944050000000  0.5336210000000 1.0
C      1  0.4546580000000  0.5932670000000  0.5076250000000 1.0
C      1  0.4671090000000  0.5945690000000  0.4808620000000 1.0
C      1  0.4962570000000  0.5204230000000  0.4045080000000 1.0
C      1  0.5634400000000  0.5129150000000  0.4403850000000 1.0
C      1  0.5903210000000  0.5156820000000  0.5134700000000 1.0
C      1  0.5393170000000  0.5109430000000  0.5840730000000 1.0
C      1  0.4613490000000  0.5050900000000  0.5874810000000 1.0
C      1  0.4301320000000  0.4928130000000  0.5324260000000 1.0
C      1  0.4262110000000  0.5047330000000  0.4415900000000 1.0
C      1  0.4047490000000  0.5151260000000  0.5020560000000 1.0
C      1  0.4406190000000  0.4990110000000  0.4171430000000 1.0
C      1  0.5265330000000  0.5216880000000  0.3965070000000 1.0
C      1  0.5847280000000  0.5019200000000  0.4566780000000 1.0
C      1  0.6148800000000  0.5286950000000  0.5146740000000 1.0
C      1  0.5131280000000  0.5140210000000  0.6009740000000 1.0
C      1  0.4558960000000  0.5353590000000  0.5943560000000 1.0
C      1  0.4234540000000  0.4180630000000  0.4970600000000 1.0
C      1  0.4662640000000  0.4176780000000  0.4267780000000 1.0
C      1  0.5150840000000  0.4116080000000  0.4418490000000 1.0
C      1  0.5604330000000  0.4186940000000  0.4776570000000 1.0
C      1  0.5533440000000  0.4145870000000  0.5358880000000 1.0
C      1  0.5078920000000  0.4131710000000  0.5698860000000 1.0
C      1  0.4543390000000  0.4091670000000  0.5486650000000 1.0
C      1  0.4630980000000  0.4784950000000  0.5906030000000 1.0
C      1  0.4131370000000  0.4699320000000  0.5238000000000 1.0
C      1  0.4120770000000  0.4805020000000  0.4487340000000 1.0
C      1  0.4901370000000  0.4913860000000  0.3945840000000 1.0
C      1  0.5586100000000  0.4974740000000  0.4174030000000 1.0
C      1  0.5888440000000  0.4872210000000  0.5145700000000 1.0
C      1  0.5472600000000  0.4788680000000  0.5926290000000 1.0
C      1  0.5297840000000  0.4253250000000  0.5051210000000 1.0
C      1  0.5156850000000  0.4260520000000  0.5292700000000 1.0
C      1  0.4879400000000  0.4241990000000  0.5320790000000 1.0
C      1  0.4669790000000  0.4240890000000  0.5138390000000 1.0
C      1  0.4672180000000  0.4269630000000  0.4849710000000 1.0
C      1  0.4916860000000  0.4271880000000  0.4702710000000 1.0
C      1  0.5185750000000  0.4253760000000  0.4791900000000 1.0
C      1  0.4390250000000  0.4285040000000  0.4766520000000 1.0
C      1  0.4889000000000  0.4299200000000  0.4378620000000 1.0
C      1  0.5405230000000  0.4267370000000  0.4539240000000 1.0
C      1  0.5629180000000  0.4279970000000  0.5082080000000 1.0
C      1  0.5338050000000  0.4283950000000  0.5581230000000 1.0
C      1  0.4789590000000  0.4243250000000  0.5630070000000 1.0
C      1  0.4352010000000  0.4231460000000  0.5263500000000 1.0
C      1  0.5729490000000  0.4685750000000  0.5736300000000 1.0
C      1  0.4908240000000  0.4649540000000  0.5981280000000 1.0
C      1  0.4300060000000  0.4572070000000  0.5636560000000 1.0
C      1  0.4094870000000  0.4737380000000  0.4785310000000 1.0
C      1  0.4776830000000  0.4690290000000  0.4066780000000 1.0
C      1  0.5454270000000  0.4705520000000  0.4161370000000 1.0
C      1  0.5941160000000  0.4680230000000  0.4896820000000 1.0
C      1  0.4894340000000  0.5267020000000  0.4710710000000 1.0
C      1  0.5144530000000  0.5092550000000  0.4559060000000 1.0
C      1  0.5181810000000  0.5047350000000  0.4876840000000 1.0
C      1  0.5289730000000  0.5183470000000  0.5093940000000 1.0
C      1  0.5079890000000  0.5222190000000  0.5298950000000 1.0
C      1  0.4814320000000  0.5192550000000  0.5203930000000 1.0
C      1  0.4698190000000  0.5163770000000  0.4934740000000 1.0
C      1  0.5302940000000  0.4715060000000  0.5133420000000 1.0
C      1  0.5049550000000  0.4749020000000  0.5358520000000 1.0
C      1  0.4778930000000  0.4621760000000  0.5189520000000 1.0
C      1  0.4636170000000  0.4682580000000  0.4923370000000 1.0
C      1  0.4749950000000  0.4632670000000  0.4661950000000 1.0
C      1  0.5030150000000  0.4660930000000  0.4627680000000 1.0
C      1  0.5296540000000  0.4637330000000  0.4808620000000 1.0
C      1  0.5138800000000  0.4816980000000  0.5918000000000 1.0
C      1  0.4449160000000  0.4808910000000  0.5550720000000 1.0
C      1  0.4215210000000  0.4945030000000  0.4934380000000 1.0
C      1  0.4536100000000  0.4737210000000  0.4203130000000 1.0
C      1  0.5216540000000  0.4898530000000  0.4046390000000 1.0
C      1  0.5800060000000  0.4755470000000  0.4665910000000 1.0
C      1  0.5519390000000  0.4798680000000  0.5531280000000 1.0
C      1  0.5047050000000  0.5451460000000  0.4919420000000 1.0
C      1  0.4982610000000  0.4876710000000  0.4959430000000 1.0
C      1  0.4948820000000  0.5563020000000  0.5136580000000 1.0
C      1  0.5034530000000  0.4550860000000  0.5011850000000 1.0
END
