TITL C-2782233-7966-387 0.00261497713814258 125000 -860.702273292297 0 0 151 (C1) n - 1
REM
REM in /home/nfs/bkarasulu/CARBON/AIRSS/Generating-Clusters/REBO/Higher-Symm/SD-CG/HFTN-CG
REM
REM
REM
REM
REM
REM ./C.cell (12c818d87b63d06a65506943cc24bca4)
REM
REM compiler GCC version 9.2.1 20190827 (Red Hat 9.2.1-1)
REM options -cpp -mtune=generic -march=x86-64 -g -O0 -fpre-include=/usr/include/finclude/math-vector-fortran.h
REM seed -1238545630 -1635509098 -85644933 1518032188 70781659 928359761 1015490468 1435788303 -1490661177 -2111075819 1591988119 1983775001 -812543552 345790202 -432387509 1921701435 -1775780110 285736518 -1482521558 875556960 -1572622787 1977017650 -1376146502 -47057137 -1353526758 -1815553406 -477120560 1961292610 -2030806205 2007668121 -1547397875 -1781337481 1321000734
REM
CELL 1.54180   50.00000   50.00000   50.00000   90.00000   90.00000   90.00000
LATT -1
SFAC C  
C      1  0.5664350000000  0.4551430000000  0.4425200000000 1.0
C      1  0.5748260000000  0.4498370000000  0.5476410000000 1.0
C      1  0.4864950000000  0.4509070000000  0.5834820000000 1.0
C      1  0.4164730000000  0.4530160000000  0.5137600000000 1.0
C      1  0.4546410000000  0.4517750000000  0.4246550000000 1.0
C      1  0.4380050000000  0.5452830000000  0.4307390000000 1.0
C      1  0.4166370000000  0.5470510000000  0.5407370000000 1.0
C      1  0.5123120000000  0.5450110000000  0.5844580000000 1.0
C      1  0.5922740000000  0.5512520000000  0.5105170000000 1.0
C      1  0.5395770000000  0.5456470000000  0.4249620000000 1.0
C      1  0.5516550000000  0.5533130000000  0.4621720000000 1.0
C      1  0.5573390000000  0.5517580000000  0.5292330000000 1.0
C      1  0.4819890000000  0.5595580000000  0.5630810000000 1.0
C      1  0.4430810000000  0.5498800000000  0.5111860000000 1.0
C      1  0.4701780000000  0.5488990000000  0.4484460000000 1.0
C      1  0.4473260000000  0.4470920000000  0.4636400000000 1.0
C      1  0.4508330000000  0.4467750000000  0.5349650000000 1.0
C      1  0.5173010000000  0.4434510000000  0.5592100000000 1.0
C      1  0.5696280000000  0.4581110000000  0.5096350000000 1.0
C      1  0.5273090000000  0.4536790000000  0.4375020000000 1.0
C      1  0.5232860000000  0.4940810000000  0.5909000000000 1.0
C      1  0.4159850000000  0.4951180000000  0.5513460000000 1.0
C      1  0.4203810000000  0.4953110000000  0.4327460000000 1.0
C      1  0.5392140000000  0.4945420000000  0.4129270000000 1.0
C      1  0.6016720000000  0.4991720000000  0.5100060000000 1.0
C      1  0.4767970000000  0.5019830000000  0.5952490000000 1.0
C      1  0.5851380000000  0.5055210000000  0.5452430000000 1.0
C      1  0.5781030000000  0.5065430000000  0.4380810000000 1.0
C      1  0.4606940000000  0.5005900000000  0.4074430000000 1.0
C      1  0.4012780000000  0.5037690000000  0.5067910000000 1.0
C      1  0.5271390000000  0.5694180000000  0.4891910000000 1.0
C      1  0.5213780000000  0.5701220000000  0.5227490000000 1.0
C      1  0.4883820000000  0.5699280000000  0.5252290000000 1.0
C      1  0.4743690000000  0.5694260000000  0.4960460000000 1.0
C      1  0.4984070000000  0.5685980000000  0.4722910000000 1.0
C      1  0.4736790000000  0.4344800000000  0.4907000000000 1.0
C      1  0.4864160000000  0.4354460000000  0.5211280000000 1.0
C      1  0.5201770000000  0.4361510000000  0.5190550000000 1.0
C      1  0.5259860000000  0.4351090000000  0.4864360000000 1.0
C      1  0.4986130000000  0.4341610000000  0.4692790000000 1.0
C      1  0.5495520000000  0.4979000000000  0.5837700000000 1.0
C      1  0.4284930000000  0.4959950000000  0.5757300000000 1.0
C      1  0.4031350000000  0.4975160000000  0.4540600000000 1.0
C      1  0.5136470000000  0.4942950000000  0.4027160000000 1.0
C      1  0.6056410000000  0.4995760000000  0.4825970000000 1.0
C      1  0.4496420000000  0.5008690000000  0.5914270000000 1.0
C      1  0.5701560000000  0.5055010000000  0.5684420000000 1.0
C      1  0.5973180000000  0.5055790000000  0.4577790000000 1.0
C      1  0.4872470000000  0.4984170000000  0.4004750000000 1.0
C      1  0.3970890000000  0.5025340000000  0.4796840000000 1.0
C      1  0.4443480000000  0.4089300000000  0.5055180000000 1.0
C      1  0.4697770000000  0.4032190000000  0.4487280000000 1.0
C      1  0.5426590000000  0.4101000000000  0.4601280000000 1.0
C      1  0.5492110000000  0.4096590000000  0.5261360000000 1.0
C      1  0.4876900000000  0.4078720000000  0.5522380000000 1.0
C      1  0.5601570000000  0.5928260000000  0.5045530000000 1.0
C      1  0.5252110000000  0.5960860000000  0.4461700000000 1.0
C      1  0.4597550000000  0.5961900000000  0.4561350000000 1.0
C      1  0.4486300000000  0.5902140000000  0.5274970000000 1.0
C      1  0.5134500000000  0.5992290000000  0.5599490000000 1.0
C      1  0.4429910000000  0.4784960000000  0.4200240000000 1.0
C      1  0.5630310000000  0.4812380000000  0.4283760000000 1.0
C      1  0.5881530000000  0.4760890000000  0.5302780000000 1.0
C      1  0.4965280000000  0.4781580000000  0.5926160000000 1.0
C      1  0.4098100000000  0.4805610000000  0.5251390000000 1.0
C      1  0.5539830000000  0.5197120000000  0.4235910000000 1.0
C      1  0.4376810000000  0.5179310000000  0.4200230000000 1.0
C      1  0.4091600000000  0.5197650000000  0.5329750000000 1.0
C      1  0.5032550000000  0.5175260000000  0.5923390000000 1.0
C      1  0.5954560000000  0.5262190000000  0.5237900000000 1.0
C      1  0.5366520000000  0.4166120000000  0.5514990000000 1.0
C      1  0.4611670000000  0.4185430000000  0.5475940000000 1.0
C      1  0.4380070000000  0.4191830000000  0.4789020000000 1.0
C      1  0.4876160000000  0.4116750000000  0.4255020000000 1.0
C      1  0.5651380000000  0.4175320000000  0.4773970000000 1.0
C      1  0.4559890000000  0.5784570000000  0.5532580000000 1.0
C      1  0.5400170000000  0.5872230000000  0.5695260000000 1.0
C      1  0.5640330000000  0.5802970000000  0.4784020000000 1.0
C      1  0.5058760000000  0.5851550000000  0.4249720000000 1.0
C      1  0.4348360000000  0.5814720000000  0.4670730000000 1.0
C      1  0.5111260000000  0.4868740000000  0.4523010000000 1.0
C      1  0.5481610000000  0.4952980000000  0.5032570000000 1.0
C      1  0.5154650000000  0.4950030000000  0.5504670000000 1.0
C      1  0.4583860000000  0.4951290000000  0.5329490000000 1.0
C      1  0.4613640000000  0.4966670000000  0.4736320000000 1.0
C      1  0.4860290000000  0.5065760000000  0.4520340000000 1.0
C      1  0.4455050000000  0.5060220000000  0.5031800000000 1.0
C      1  0.4832630000000  0.5052970000000  0.5545870000000 1.0
C      1  0.5419860000000  0.5087420000000  0.5341430000000 1.0
C      1  0.5372160000000  0.4997290000000  0.4702620000000 1.0
C      1  0.4995670000000  0.6022540000000  0.5297290000000 1.0
C      1  0.4735830000000  0.6018660000000  0.5074120000000 1.0
C      1  0.4857960000000  0.6008580000000  0.4753980000000 1.0
C      1  0.5198900000000  0.6011640000000  0.4779920000000 1.0
C      1  0.5282460000000  0.6020290000000  0.5111890000000 1.0
C      1  0.5090030000000  0.4038100000000  0.5260160000000 1.0
C      1  0.5302240000000  0.4034970000000  0.4993060000000 1.0
C      1  0.5113310000000  0.4020330000000  0.4708730000000 1.0
C      1  0.4782950000000  0.4020210000000  0.4798480000000 1.0
C      1  0.4767980000000  0.4029710000000  0.5140880000000 1.0
C      1  0.5070980000000  0.4747390000000  0.5262420000000 1.0
C      1  0.4765070000000  0.4733970000000  0.5175820000000 1.0
C      1  0.4788990000000  0.4740250000000  0.4885960000000 1.0
C      1  0.5058290000000  0.4720920000000  0.4796900000000 1.0
C      1  0.5261830000000  0.4717810000000  0.5008440000000 1.0
C      1  0.4947910000000  0.5239640000000  0.5303690000000 1.0
C      1  0.5249800000000  0.5308080000000  0.5186050000000 1.0
C      1  0.5190910000000  0.5197550000000  0.4868230000000 1.0
C      1  0.4892910000000  0.5257330000000  0.4767130000000 1.0
C      1  0.4740640000000  0.5183710000000  0.5046300000000 1.0
C      1  0.5799210000000  0.5504350000000  0.4819640000000 1.0
C      1  0.5417300000000  0.5605590000000  0.5771810000000 1.0
C      1  0.4398430000000  0.5522580000000  0.5591110000000 1.0
C      1  0.4302590000000  0.5544310000000  0.4610010000000 1.0
C      1  0.5089470000000  0.5583750000000  0.4170740000000 1.0
C      1  0.4173970000000  0.4465980000000  0.4802170000000 1.0
C      1  0.4558800000000  0.4416330000000  0.5712570000000 1.0
C      1  0.5503800000000  0.4428160000000  0.5685660000000 1.0
C      1  0.5770200000000  0.4425680000000  0.4718340000000 1.0
C      1  0.4840040000000  0.4373510000000  0.4151890000000 1.0
C      1  0.4881980000000  0.4479750000000  0.5490160000000 1.0
C      1  0.4492950000000  0.4485620000000  0.5035610000000 1.0
C      1  0.4755550000000  0.4484710000000  0.4522570000000 1.0
C      1  0.5394580000000  0.4544540000000  0.4674500000000 1.0
C      1  0.5435360000000  0.4525390000000  0.5307200000000 1.0
C      1  0.5132720000000  0.5525290000000  0.5506990000000 1.0
C      1  0.5449200000000  0.5465440000000  0.5007630000000 1.0
C      1  0.5213620000000  0.5517080000000  0.4540000000000 1.0
C      1  0.4654630000000  0.5468400000000  0.4781920000000 1.0
C      1  0.4654360000000  0.5484650000000  0.5287770000000 1.0
C      1  0.4240980000000  0.4206880000000  0.5216070000000 1.0
C      1  0.4496230000000  0.4196930000000  0.4349120000000 1.0
C      1  0.5454250000000  0.4285280000000  0.4376690000000 1.0
C      1  0.5725120000000  0.4267020000000  0.5225210000000 1.0
C      1  0.4937510000000  0.4178940000000  0.5782270000000 1.0
C      1  0.5751820000000  0.5756640000000  0.5240110000000 1.0
C      1  0.5445450000000  0.5785150000000  0.4324160000000 1.0
C      1  0.4567880000000  0.5736400000000  0.4347600000000 1.0
C      1  0.4237650000000  0.5724630000000  0.5193640000000 1.0
C      1  0.5026120000000  0.5776140000000  0.5795170000000 1.0
C      1  0.4630360000000  0.4706790000000  0.5547240000000 1.0
C      1  0.4394760000000  0.4732510000000  0.4819400000000 1.0
C      1  0.4988510000000  0.4623870000000  0.4321490000000 1.0
C      1  0.5619040000000  0.4713260000000  0.4829770000000 1.0
C      1  0.5346100000000  0.4713320000000  0.5576810000000 1.0
C      1  0.5438000000000  0.5372900000000  0.5529500000000 1.0
C      1  0.5577600000000  0.5247370000000  0.4780210000000 1.0
C      1  0.4953670000000  0.5360630000000  0.4385630000000 1.0
C      1  0.4368380000000  0.5334880000000  0.4850910000000 1.0
C      1  0.4658150000000  0.5313220000000  0.5577960000000 1.0
C      1  0.5013160000000  0.5018850000000  0.5063470000000 1.0
END
