TITL C-2782239-8622-320 -0.00462170774535646 125000 -941.9808937395 0 0 159 (C1) n - 1
REM
REM in /home/nfs/bkarasulu/CARBON/AIRSS/Generating-Clusters/REBO/Higher-Symm/SD-CG/HFTN-CG
REM
REM
REM
REM
REM
REM ./C.cell (12c818d87b63d06a65506943cc24bca4)
REM
REM compiler GCC version 9.2.1 20190827 (Red Hat 9.2.1-1)
REM options -cpp -mtune=generic -march=x86-64 -g -O0 -fpre-include=/usr/include/finclude/math-vector-fortran.h
REM seed -1931720912 838279920 -646259841 1672750545 -868939643 -1478745031 -1448293978 1861042045 416516677 -1396355222 -1007495203 1003768562 366736700 -1971651979 -74438325 -1478393793 -816075991 -1734419117 690316322 1440484304 543184594 -203131048 -619347842 478225906 -195544945 -2085543880 -1019005231 -1211803448 -259034997 116606458 -756673464 1464848438 2147255103
REM
CELL 1.54180   50.00000   50.00000   50.00000   90.00000   90.00000   90.00000
LATT -1
SFAC C  
C      1  0.5593420000000  0.4379090000000  0.5374950000000 1.0
C      1  0.4546670000000  0.5367240000000  0.4830940000000 1.0
C      1  0.4147820000000  0.5488130000000  0.5295810000000 1.0
C      1  0.5841730000000  0.4530040000000  0.4656900000000 1.0
C      1  0.5065480000000  0.4352000000000  0.4929770000000 1.0
C      1  0.4894800000000  0.5713220000000  0.5348090000000 1.0
C      1  0.5354720000000  0.4453610000000  0.4115710000000 1.0
C      1  0.4742420000000  0.5643480000000  0.5840950000000 1.0
C      1  0.5325890000000  0.5374020000000  0.5950570000000 1.0
C      1  0.4770540000000  0.4610270000000  0.4092000000000 1.0
C      1  0.4626030000000  0.5020430000000  0.5436120000000 1.0
C      1  0.5343050000000  0.4952250000000  0.4602330000000 1.0
C      1  0.4824200000000  0.5415010000000  0.4846060000000 1.0
C      1  0.4881930000000  0.4439520000000  0.5273700000000 1.0
C      1  0.5575150000000  0.5280950000000  0.5510130000000 1.0
C      1  0.4511730000000  0.4682680000000  0.4410810000000 1.0
C      1  0.5224070000000  0.5150190000000  0.4793760000000 1.0
C      1  0.4660780000000  0.4791240000000  0.5221280000000 1.0
C      1  0.5340900000000  0.5311350000000  0.5070530000000 1.0
C      1  0.4619070000000  0.4703690000000  0.4894220000000 1.0
C      1  0.4377130000000  0.4881810000000  0.4181170000000 1.0
C      1  0.5706720000000  0.5109910000000  0.5760610000000 1.0
C      1  0.4349860000000  0.5318130000000  0.4489610000000 1.0
C      1  0.5629520000000  0.4649100000000  0.5450290000000 1.0
C      1  0.5275650000000  0.4640090000000  0.4683770000000 1.0
C      1  0.4720490000000  0.5265570000000  0.5336480000000 1.0
C      1  0.5770100000000  0.4826400000000  0.4752410000000 1.0
C      1  0.4081130000000  0.5187400000000  0.5227110000000 1.0
C      1  0.5224200000000  0.5230080000000  0.5694620000000 1.0
C      1  0.4881960000000  0.4870250000000  0.4272610000000 1.0
C      1  0.5758970000000  0.4528730000000  0.4375540000000 1.0
C      1  0.4260800000000  0.5441150000000  0.5614200000000 1.0
C      1  0.5900120000000  0.5659660000000  0.5091390000000 1.0
C      1  0.4112990000000  0.4391070000000  0.4704960000000 1.0
C      1  0.4849420000000  0.5267830000000  0.3742450000000 1.0
C      1  0.5180780000000  0.4667830000000  0.6024330000000 1.0
C      1  0.5550680000000  0.5650810000000  0.4223670000000 1.0
C      1  0.4395870000000  0.4364920000000  0.5759030000000 1.0
C      1  0.5285310000000  0.5796630000000  0.5628430000000 1.0
C      1  0.4897570000000  0.4179230000000  0.4389990000000 1.0
C      1  0.5026620000000  0.4719840000000  0.4527220000000 1.0
C      1  0.4955600000000  0.5237050000000  0.5658450000000 1.0
C      1  0.4777170000000  0.4572180000000  0.5536290000000 1.0
C      1  0.5082330000000  0.5491060000000  0.4431110000000 1.0
C      1  0.4857190000000  0.4039120000000  0.4635270000000 1.0
C      1  0.5333450000000  0.5914260000000  0.5364530000000 1.0
C      1  0.5144640000000  0.4676500000000  0.4208460000000 1.0
C      1  0.4770540000000  0.5338630000000  0.5829450000000 1.0
C      1  0.5433730000000  0.5043000000000  0.4364680000000 1.0
C      1  0.4553570000000  0.4924170000000  0.5689810000000 1.0
C      1  0.5730060000000  0.4796520000000  0.4266910000000 1.0
C      1  0.4268690000000  0.5195360000000  0.5761990000000 1.0
C      1  0.4561020000000  0.5132710000000  0.5925120000000 1.0
C      1  0.5425200000000  0.4846320000000  0.4121380000000 1.0
C      1  0.5244730000000  0.5749270000000  0.4873010000000 1.0
C      1  0.4582910000000  0.4062270000000  0.5014970000000 1.0
C      1  0.5305190000000  0.4454040000000  0.5034330000000 1.0
C      1  0.4402470000000  0.5670070000000  0.5198470000000 1.0
C      1  0.4896940000000  0.4814950000000  0.3880470000000 1.0
C      1  0.5138490000000  0.5143260000000  0.6075190000000 1.0
C      1  0.4349530000000  0.5130070000000  0.4753290000000 1.0
C      1  0.5775210000000  0.4840580000000  0.5278070000000 1.0
C      1  0.4592580000000  0.4060960000000  0.4735050000000 1.0
C      1  0.5543390000000  0.5749130000000  0.5248400000000 1.0
C      1  0.5352040000000  0.5167940000000  0.5321050000000 1.0
C      1  0.4712500000000  0.4807320000000  0.4626530000000 1.0
C      1  0.5812530000000  0.5570520000000  0.4625540000000 1.0
C      1  0.4127170000000  0.4472130000000  0.5358300000000 1.0
C      1  0.5721320000000  0.5213810000000  0.5002890000000 1.0
C      1  0.4003100000000  0.4819710000000  0.4989070000000 1.0
C      1  0.3942470000000  0.4738890000000  0.5255150000000 1.0
C      1  0.6018710000000  0.5328150000000  0.4751080000000 1.0
C      1  0.4351790000000  0.4664480000000  0.5187990000000 1.0
C      1  0.5620230000000  0.5341890000000  0.4772700000000 1.0
C      1  0.4504150000000  0.5590750000000  0.5649220000000 1.0
C      1  0.5524650000000  0.4379410000000  0.4319350000000 1.0
C      1  0.4788890000000  0.4500860000000  0.5856800000000 1.0
C      1  0.4882430000000  0.5464590000000  0.4088170000000 1.0
C      1  0.6033220000000  0.4816490000000  0.5050260000000 1.0
C      1  0.3996740000000  0.5342970000000  0.4740450000000 1.0
C      1  0.4006300000000  0.5127090000000  0.4551620000000 1.0
C      1  0.6138320000000  0.4991560000000  0.5306620000000 1.0
C      1  0.4695650000000  0.5032310000000  0.3821280000000 1.0
C      1  0.5329630000000  0.4909090000000  0.6062080000000 1.0
C      1  0.4834700000000  0.6162210000000  0.6042190000000 1.0
C      1  0.5479430000000  0.4114470000000  0.4757940000000 1.0
C      1  0.5162700000000  0.4971860000000  0.3943440000000 1.0
C      1  0.4857270000000  0.5014670000000  0.6046540000000 1.0
C      1  0.4899210000000  0.4724210000000  0.6023160000000 1.0
C      1  0.5099850000000  0.5272690000000  0.3926460000000 1.0
C      1  0.5082370000000  0.5932850000000  0.5215200000000 1.0
C      1  0.5056670000000  0.4089430000000  0.4826700000000 1.0
C      1  0.5771000000000  0.4342990000000  0.5123690000000 1.0
C      1  0.4397630000000  0.5592750000000  0.4887070000000 1.0
C      1  0.4761050000000  0.5921450000000  0.4788910000000 1.0
C      1  0.5064900000000  0.4207330000000  0.5314080000000 1.0
C      1  0.4311010000000  0.4596170000000  0.4875210000000 1.0
C      1  0.5423090000000  0.5577960000000  0.5052900000000 1.0
C      1  0.4761630000000  0.5831520000000  0.4523240000000 1.0
C      1  0.5313710000000  0.4284990000000  0.5510140000000 1.0
C      1  0.3963080000000  0.4995400000000  0.5404480000000 1.0
C      1  0.6031360000000  0.5025410000000  0.4779360000000 1.0
C      1  0.4023780000000  0.5488500000000  0.4974900000000 1.0
C      1  0.5927890000000  0.4521210000000  0.4955440000000 1.0
C      1  0.5615510000000  0.5762960000000  0.4484010000000 1.0
C      1  0.4291450000000  0.4254720000000  0.5509040000000 1.0
C      1  0.5357810000000  0.3980900000000  0.4506260000000 1.0
C      1  0.4847410000000  0.5947130000000  0.5904140000000 1.0
C      1  0.5025970000000  0.4305390000000  0.5697090000000 1.0
C      1  0.4908660000000  0.5778330000000  0.4218060000000 1.0
C      1  0.4646910000000  0.5588190000000  0.4314400000000 1.0
C      1  0.5266560000000  0.4513820000000  0.5762290000000 1.0
C      1  0.4149700000000  0.5064630000000  0.4982980000000 1.0
C      1  0.5614810000000  0.4904150000000  0.5008930000000 1.0
C      1  0.5693850000000  0.5641500000000  0.5468890000000 1.0
C      1  0.4461390000000  0.4170580000000  0.4497860000000 1.0
C      1  0.5514400000000  0.4262540000000  0.5001150000000 1.0
C      1  0.4529840000000  0.5865400000000  0.4946520000000 1.0
C      1  0.4722100000000  0.4230150000000  0.5572740000000 1.0
C      1  0.5154950000000  0.5800390000000  0.4428880000000 1.0
C      1  0.4820870000000  0.4497590000000  0.5003180000000 1.0
C      1  0.5022730000000  0.5568050000000  0.5063900000000 1.0
C      1  0.5911810000000  0.5383050000000  0.5132700000000 1.0
C      1  0.3987760000000  0.4673550000000  0.4731510000000 1.0
C      1  0.4645470000000  0.4386420000000  0.4310310000000 1.0
C      1  0.5474410000000  0.5540430000000  0.5708970000000 1.0
C      1  0.4832930000000  0.4045510000000  0.5227270000000 1.0
C      1  0.5003440000000  0.5951000000000  0.4933730000000 1.0
C      1  0.4436950000000  0.4647590000000  0.5738040000000 1.0
C      1  0.5528750000000  0.5317400000000  0.4244350000000 1.0
C      1  0.4281450000000  0.4926430000000  0.4493710000000 1.0
C      1  0.5854210000000  0.5090300000000  0.5466450000000 1.0
C      1  0.4116460000000  0.4986070000000  0.5657240000000 1.0
C      1  0.5847660000000  0.4999720000000  0.4482450000000 1.0
C      1  0.4985910000000  0.5770780000000  0.5653710000000 1.0
C      1  0.5176290000000  0.4188730000000  0.4355400000000 1.0
C      1  0.6140710000000  0.5275400000000  0.5258270000000 1.0
C      1  0.3888570000000  0.4862030000000  0.4523010000000 1.0
C      1  0.5218600000000  0.4928650000000  0.5429830000000 1.0
C      1  0.4800270000000  0.5102770000000  0.4479950000000 1.0
C      1  0.4519110000000  0.4107740000000  0.5346430000000 1.0
C      1  0.5368680000000  0.5828010000000  0.4610680000000 1.0
C      1  0.4631530000000  0.5563480000000  0.5373670000000 1.0
C      1  0.5361420000000  0.4369910000000  0.4584020000000 1.0
C      1  0.5522680000000  0.4923950000000  0.5854190000000 1.0
C      1  0.4527370000000  0.5080050000000  0.4051550000000 1.0
C      1  0.5265930000000  0.5496870000000  0.4193280000000 1.0
C      1  0.4621810000000  0.4207590000000  0.5898990000000 1.0
C      1  0.4251710000000  0.4740270000000  0.5506430000000 1.0
C      1  0.5739200000000  0.5276370000000  0.4470410000000 1.0
C      1  0.4188210000000  0.4212880000000  0.4524120000000 1.0
C      1  0.5889180000000  0.5918630000000  0.5052720000000 1.0
C      1  0.4961570000000  0.4813640000000  0.5383290000000 1.0
C      1  0.4990590000000  0.5287660000000  0.4631060000000 1.0
C      1  0.5330060000000  0.4783900000000  0.4988770000000 1.0
C      1  0.4958170000000  0.5253260000000  0.5181780000000 1.0
C      1  0.4662100000000  0.5266740000000  0.4248380000000 1.0
C      1  0.5409660000000  0.4758320000000  0.5620310000000 1.0
C      1  0.5086120000000  0.5009370000000  0.5061730000000 1.0
END
