TITL C-2782237-5345-28 -0.00276159307762506 125000 -462.267593050369 0 0 78 (C1) n - 1
REM
REM in /home/nfs/bkarasulu/CARBON/AIRSS/Generating-Clusters/REBO/Higher-Symm/SD-CG/HFTN-CG
REM
REM
REM
REM
REM
REM ./C.cell (12c818d87b63d06a65506943cc24bca4)
REM
REM compiler GCC version 9.2.1 20190827 (Red Hat 9.2.1-1)
REM options -cpp -mtune=generic -march=x86-64 -g -O0 -fpre-include=/usr/include/finclude/math-vector-fortran.h
REM seed -486391434 -734588131 -1978897119 464356919 -1528296519 -421028413 342331304 -1974051813 1747074356 530655961 -726992061 -120697608 -1965266065 187192683 854865297 473758395 -1784135302 674385267 -14760677 1300021765 1742109757 -1944521742 862202925 -1322159930 -17129064 2125686558 1912923932 728298415 1854725609 774982812 -687090980 -917699493 301131654
REM
CELL 1.54180   50.00000   50.00000   50.00000   90.00000   90.00000   90.00000
LATT -1
SFAC C  
C      1  0.5211930000000  0.4868310000000  0.5634700000000 1.0
C      1  0.4786600000000  0.5138440000000  0.5631630000000 1.0
C      1  0.5219700000000  0.5159840000000  0.4351420000000 1.0
C      1  0.4725100000000  0.4916870000000  0.4432640000000 1.0
C      1  0.5670630000000  0.4796290000000  0.5288610000000 1.0
C      1  0.4337980000000  0.5202500000000  0.5271220000000 1.0
C      1  0.5670270000000  0.5211420000000  0.4714040000000 1.0
C      1  0.4301210000000  0.4745910000000  0.4724420000000 1.0
C      1  0.5036200000000  0.5226340000000  0.5650160000000 1.0
C      1  0.4962450000000  0.4780800000000  0.5653520000000 1.0
C      1  0.4996180000000  0.4818200000000  0.4405450000000 1.0
C      1  0.4978390000000  0.5292450000000  0.4313600000000 1.0
C      1  0.4571970000000  0.4144460000000  0.4745640000000 1.0
C      1  0.5432150000000  0.5848990000000  0.4740140000000 1.0
C      1  0.4574900000000  0.5847160000000  0.5260260000000 1.0
C      1  0.5426030000000  0.4153050000000  0.5269000000000 1.0
C      1  0.4236950000000  0.5132280000000  0.5005550000000 1.0
C      1  0.5770600000000  0.4856210000000  0.5021290000000 1.0
C      1  0.4218770000000  0.4839180000000  0.4983320000000 1.0
C      1  0.5773310000000  0.5148740000000  0.4978800000000 1.0
C      1  0.4923190000000  0.4305210000000  0.5358370000000 1.0
C      1  0.5077040000000  0.5693920000000  0.5352400000000 1.0
C      1  0.4936080000000  0.5690240000000  0.4651460000000 1.0
C      1  0.5070680000000  0.4302900000000  0.4657910000000 1.0
C      1  0.4503980000000  0.5123740000000  0.5482390000000 1.0
C      1  0.5496400000000  0.4879720000000  0.5490140000000 1.0
C      1  0.4491690000000  0.4791180000000  0.4534220000000 1.0
C      1  0.5490010000000  0.5132710000000  0.4516930000000 1.0
C      1  0.5404400000000  0.5657290000000  0.5420750000000 1.0
C      1  0.4596920000000  0.4345130000000  0.5426680000000 1.0
C      1  0.5393130000000  0.4349370000000  0.4584050000000 1.0
C      1  0.4612740000000  0.5647780000000  0.4575910000000 1.0
C      1  0.4520300000000  0.5381630000000  0.4520280000000 1.0
C      1  0.5496620000000  0.4607450000000  0.4538780000000 1.0
C      1  0.4484650000000  0.4600140000000  0.5468450000000 1.0
C      1  0.5516870000000  0.5402720000000  0.5463520000000 1.0
C      1  0.4369450000000  0.5251050000000  0.4770520000000 1.0
C      1  0.5639720000000  0.4730360000000  0.4791510000000 1.0
C      1  0.4347190000000  0.4719010000000  0.5216180000000 1.0
C      1  0.5649900000000  0.5277270000000  0.5211250000000 1.0
C      1  0.4811090000000  0.4604740000000  0.4685120000000 1.0
C      1  0.5193100000000  0.5385490000000  0.4679530000000 1.0
C      1  0.4817210000000  0.5391650000000  0.5325340000000 1.0
C      1  0.5180910000000  0.4609150000000  0.5333370000000 1.0
C      1  0.5382590000000  0.5906360000000  0.5015090000000 1.0
C      1  0.4619060000000  0.4092230000000  0.5022020000000 1.0
C      1  0.5379690000000  0.4099890000000  0.4992670000000 1.0
C      1  0.4622290000000  0.5895360000000  0.4983360000000 1.0
C      1  0.4715880000000  0.5203920000000  0.4391570000000 1.0
C      1  0.5330720000000  0.4844510000000  0.4426570000000 1.0
C      1  0.4640140000000  0.4831010000000  0.5593320000000 1.0
C      1  0.5359410000000  0.5174900000000  0.5592980000000 1.0
C      1  0.5341400000000  0.4823570000000  0.4833460000000 1.0
C      1  0.4666120000000  0.5166460000000  0.4821570000000 1.0
C      1  0.5351650000000  0.5172670000000  0.5184690000000 1.0
C      1  0.4646400000000  0.4823860000000  0.5182540000000 1.0
C      1  0.4461910000000  0.5812670000000  0.4760040000000 1.0
C      1  0.5540260000000  0.4178000000000  0.4767540000000 1.0
C      1  0.4455480000000  0.4167760000000  0.5245260000000 1.0
C      1  0.5545650000000  0.5834250000000  0.5239560000000 1.0
C      1  0.5143580000000  0.5374860000000  0.5292860000000 1.0
C      1  0.4854920000000  0.4624080000000  0.5296240000000 1.0
C      1  0.5135740000000  0.4621480000000  0.4724240000000 1.0
C      1  0.4869050000000  0.5374110000000  0.4719190000000 1.0
C      1  0.4893350000000  0.4123440000000  0.5099420000000 1.0
C      1  0.5108160000000  0.5874590000000  0.5092090000000 1.0
C      1  0.4898220000000  0.5871550000000  0.4908420000000 1.0
C      1  0.5104260000000  0.4124030000000  0.4916760000000 1.0
C      1  0.4749560000000  0.5676200000000  0.5401950000000 1.0
C      1  0.5250300000000  0.4324600000000  0.5408860000000 1.0
C      1  0.4744360000000  0.4320090000000  0.4606620000000 1.0
C      1  0.5262020000000  0.5670510000000  0.4602210000000 1.0
C      1  0.5276280000000  0.4865610000000  0.5157120000000 1.0
C      1  0.4723920000000  0.5131600000000  0.5149340000000 1.0
C      1  0.5285340000000  0.5131330000000  0.4859910000000 1.0
C      1  0.4716080000000  0.4859870000000  0.4857840000000 1.0
C      1  0.5006830000000  0.5254800000000  0.5005480000000 1.0
C      1  0.4994820000000  0.4742560000000  0.5009630000000 1.0
END
