TITL C-2782238-9940-1138 -2.10871673461243e-06 125000 -142.21654796627 0 0 25 (C2h) n - 1
REM
REM in /home/nfs/bkarasulu/CARBON/AIRSS/Generating-Clusters/REBO/Higher-Symm/SD-CG/HFTN-CG
REM
REM
REM
REM
REM
REM ./C.cell (12c818d87b63d06a65506943cc24bca4)
REM
REM compiler GCC version 9.2.1 20190827 (Red Hat 9.2.1-1)
REM options -cpp -mtune=generic -march=x86-64 -g -O0 -fpre-include=/usr/include/finclude/math-vector-fortran.h
REM seed -1773393470 -593027407 -801290314 537394453 -1293628083 -323858204 1238775968 -2077056953 -752125262 253430651 1832592410 1298737305 1532040801 -1543912346 1549145741 -1030787779 684258291 1538309644 1563160802 -1158406832 1391305099 2069057458 156070745 1053539795 1499407928 -654614522 -189432229 118091207 1244405823 -1346492242 565402771 1132555884 -440978064
REM
CELL 1.54180   50.00000   50.00000   50.00000   90.00000   90.00000   90.00000
LATT -1
SFAC C  
C      1  0.4565410000000  0.5285900000000  0.5097000000000 1.0
C      1  0.4565350000000  0.4678820000000  0.4900210000000 1.0
C      1  0.5410710000000  0.5285820000000  0.5097020000000 1.0
C      1  0.5410650000000  0.4678740000000  0.4900220000000 1.0
C      1  0.5313090000000  0.5117710000000  0.4649950000000 1.0
C      1  0.5313060000000  0.4846870000000  0.5347280000000 1.0
C      1  0.4663000000000  0.5117770000000  0.4649940000000 1.0
C      1  0.4662960000000  0.4846930000000  0.5347270000000 1.0
C      1  0.5436630000000  0.5318530000000  0.4812630000000 1.0
C      1  0.5436560000000  0.4646010000000  0.5184610000000 1.0
C      1  0.4539500000000  0.5318620000000  0.4812620000000 1.0
C      1  0.4539420000000  0.4646100000000  0.5184600000000 1.0
C      1  0.5559010000000  0.4534750000000  0.4723710000000 1.0
C      1  0.5559090000000  0.5429770000000  0.5273530000000 1.0
C      1  0.4416970000000  0.4534870000000  0.4723700000000 1.0
C      1  0.4417050000000  0.5429880000000  0.5273510000000 1.0
C      1  0.5125080000000  0.5185530000000  0.4448050000000 1.0
C      1  0.5125020000000  0.4779080000000  0.5549180000000 1.0
C      1  0.4851040000000  0.5185560000000  0.4448050000000 1.0
C      1  0.4850980000000  0.4779110000000  0.5549170000000 1.0
C      1  0.4735970000000  0.5070780000000  0.5177870000000 1.0
C      1  0.4735960000000  0.4893910000000  0.4819350000000 1.0
C      1  0.5240100000000  0.5070730000000  0.5177880000000 1.0
C      1  0.5240090000000  0.4893850000000  0.4819350000000 1.0
C      1  0.4988030000000  0.4982320000000  0.4998610000000 1.0
END
