TITL C-2782227-3064-292 0.00347177626881025 125000 -621.367972942751 0 0 105 (C1) n - 1
REM
REM in /home/nfs/bkarasulu/CARBON/AIRSS/Generating-Clusters/REBO/Higher-Symm/SD-CG/HFTN-CG
REM
REM
REM
REM
REM
REM ./C.cell (12c818d87b63d06a65506943cc24bca4)
REM
REM compiler GCC version 9.2.1 20190827 (Red Hat 9.2.1-1)
REM options -cpp -mtune=generic -march=x86-64 -g -O0 -fpre-include=/usr/include/finclude/math-vector-fortran.h
REM seed -1205454593 -2125687095 1045429380 -1111043722 206690725 -1544678979 -1510521415 1276659093 -1746548540 1230536891 -1931407376 -2029564901 -933691779 -1127363750 2051362314 1369575041 -1211552843 186662191 908558802 392704334 1150741865 -1808283910 1110961965 -1094290013 85977498 -1221566068 -415960353 -26562067 -477139549 1179282467 1468634639 -1168744611 1360721546
REM
CELL 1.54180   50.00000   50.00000   50.00000   90.00000   90.00000   90.00000
LATT -1
SFAC C  
C      1  0.5470540000000  0.5792280000000  0.4846330000000 1.0
C      1  0.5443310000000  0.4865810000000  0.4277940000000 1.0
C      1  0.5511970000000  0.4260040000000  0.5142160000000 1.0
C      1  0.5424310000000  0.5155470000000  0.5733600000000 1.0
C      1  0.5491160000000  0.4265380000000  0.4860180000000 1.0
C      1  0.5419930000000  0.5151730000000  0.4248690000000 1.0
C      1  0.5434280000000  0.5796740000000  0.5131340000000 1.0
C      1  0.5404810000000  0.4868510000000  0.5737840000000 1.0
C      1  0.5648990000000  0.4492520000000  0.4709590000000 1.0
C      1  0.5629720000000  0.4712650000000  0.5556190000000 1.0
C      1  0.5597970000000  0.5574790000000  0.5296960000000 1.0
C      1  0.5607660000000  0.5327080000000  0.4454720000000 1.0
C      1  0.5607400000000  0.5517530000000  0.4737680000000 1.0
C      1  0.5583610000000  0.5285650000000  0.5476850000000 1.0
C      1  0.5644380000000  0.4523550000000  0.5270880000000 1.0
C      1  0.5628570000000  0.4777820000000  0.4531800000000 1.0
C      1  0.4386260000000  0.4654430000000  0.5601670000000 1.0
C      1  0.4458480000000  0.5589410000000  0.5348930000000 1.0
C      1  0.4419570000000  0.5284570000000  0.4409450000000 1.0
C      1  0.4421200000000  0.4474310000000  0.4689870000000 1.0
C      1  0.4371740000000  0.5344970000000  0.5571060000000 1.0
C      1  0.4426740000000  0.4390720000000  0.5389720000000 1.0
C      1  0.4374060000000  0.4675480000000  0.4418940000000 1.0
C      1  0.4447990000000  0.5530030000000  0.4646760000000 1.0
C      1  0.4729970000000  0.5114900000000  0.4664730000000 1.0
C      1  0.4718720000000  0.4675110000000  0.4869620000000 1.0
C      1  0.4536930000000  0.4848540000000  0.5290360000000 1.0
C      1  0.4584170000000  0.5283050000000  0.5127770000000 1.0
C      1  0.4606200000000  0.4864700000000  0.4695440000000 1.0
C      1  0.4696460000000  0.5323990000000  0.4880140000000 1.0
C      1  0.4683940000000  0.5080750000000  0.5291480000000 1.0
C      1  0.4567650000000  0.4623960000000  0.5097400000000 1.0
C      1  0.4786900000000  0.5099620000000  0.6015330000000 1.0
C      1  0.4790760000000  0.6040670000000  0.4878420000000 1.0
C      1  0.4819780000000  0.4860670000000  0.3979530000000 1.0
C      1  0.4462600000000  0.3880960000000  0.5073210000000 1.0
C      1  0.4933210000000  0.4869880000000  0.5908450000000 1.0
C      1  0.4436270000000  0.3880510000000  0.4797850000000 1.0
C      1  0.4958330000000  0.5095750000000  0.4090470000000 1.0
C      1  0.4951690000000  0.5949020000000  0.5105050000000 1.0
C      1  0.5319990000000  0.5425990000000  0.4882330000000 1.0
C      1  0.5366200000000  0.4930300000000  0.4663500000000 1.0
C      1  0.5358080000000  0.4627650000000  0.5115600000000 1.0
C      1  0.5304090000000  0.5135800000000  0.5354710000000 1.0
C      1  0.5374660000000  0.4644290000000  0.4810390000000 1.0
C      1  0.5346850000000  0.5233860000000  0.4631400000000 1.0
C      1  0.5336360000000  0.5414530000000  0.5191270000000 1.0
C      1  0.5425670000000  0.4847900000000  0.5339970000000 1.0
C      1  0.5854210000000  0.5217150000000  0.4650250000000 1.0
C      1  0.5875740000000  0.4691130000000  0.4832500000000 1.0
C      1  0.5847590000000  0.4857330000000  0.5352080000000 1.0
C      1  0.5832920000000  0.5382240000000  0.5180180000000 1.0
C      1  0.5879010000000  0.4940320000000  0.4657050000000 1.0
C      1  0.5853110000000  0.5385370000000  0.4902770000000 1.0
C      1  0.5840440000000  0.5132860000000  0.5348470000000 1.0
C      1  0.5883500000000  0.4683700000000  0.5110140000000 1.0
C      1  0.4273190000000  0.5362880000000  0.5185640000000 1.0
C      1  0.4292490000000  0.5159650000000  0.4665660000000 1.0
C      1  0.4217240000000  0.4627070000000  0.4904820000000 1.0
C      1  0.4224910000000  0.4872710000000  0.5404730000000 1.0
C      1  0.4240670000000  0.4595540000000  0.5214490000000 1.0
C      1  0.4285390000000  0.4849650000000  0.4680900000000 1.0
C      1  0.4283880000000  0.5356430000000  0.4875060000000 1.0
C      1  0.4157220000000  0.5161240000000  0.5415460000000 1.0
C      1  0.4559650000000  0.5171940000000  0.5792510000000 1.0
C      1  0.4585410000000  0.5795760000000  0.4807150000000 1.0
C      1  0.4570830000000  0.4795860000000  0.4182440000000 1.0
C      1  0.4553970000000  0.4167970000000  0.5185040000000 1.0
C      1  0.4621280000000  0.4837750000000  0.5766540000000 1.0
C      1  0.4537790000000  0.4200430000000  0.4846710000000 1.0
C      1  0.4643320000000  0.5118000000000  0.4225100000000 1.0
C      1  0.4654530000000  0.5773930000000  0.5139440000000 1.0
C      1  0.5077010000000  0.4793800000000  0.4592230000000 1.0
C      1  0.5063340000000  0.4531840000000  0.5183040000000 1.0
C      1  0.4975730000000  0.5070890000000  0.5354930000000 1.0
C      1  0.5007980000000  0.5371420000000  0.4787600000000 1.0
C      1  0.5032710000000  0.5119960000000  0.4559690000000 1.0
C      1  0.5028280000000  0.5297650000000  0.5119120000000 1.0
C      1  0.5108690000000  0.4789260000000  0.5383040000000 1.0
C      1  0.5032560000000  0.4643330000000  0.4884000000000 1.0
C      1  0.4747650000000  0.4279910000000  0.5428320000000 1.0
C      1  0.4686400000000  0.5443770000000  0.5654560000000 1.0
C      1  0.4752710000000  0.5662880000000  0.4559270000000 1.0
C      1  0.4676460000000  0.4547200000000  0.4371280000000 1.0
C      1  0.4767900000000  0.5672040000000  0.5435600000000 1.0
C      1  0.4702760000000  0.4536210000000  0.5637050000000 1.0
C      1  0.4727600000000  0.4335170000000  0.4616710000000 1.0
C      1  0.4712650000000  0.5423150000000  0.4345980000000 1.0
C      1  0.5156530000000  0.5260930000000  0.4203670000000 1.0
C      1  0.5254890000000  0.4190540000000  0.4726140000000 1.0
C      1  0.5149240000000  0.4748740000000  0.5778530000000 1.0
C      1  0.5175740000000  0.5847820000000  0.5243870000000 1.0
C      1  0.5230830000000  0.4695390000000  0.4236710000000 1.0
C      1  0.5256910000000  0.5861140000000  0.4671170000000 1.0
C      1  0.5204230000000  0.5319530000000  0.5805560000000 1.0
C      1  0.5320990000000  0.4132370000000  0.5295580000000 1.0
C      1  0.5031760000000  0.5479560000000  0.4341770000000 1.0
C      1  0.5041850000000  0.4280240000000  0.4597320000000 1.0
C      1  0.5019510000000  0.4531450000000  0.5578610000000 1.0
C      1  0.5082110000000  0.5683710000000  0.5454310000000 1.0
C      1  0.4993050000000  0.4549170000000  0.4409680000000 1.0
C      1  0.5069000000000  0.5718670000000  0.4526270000000 1.0
C      1  0.5017100000000  0.5487350000000  0.5682900000000 1.0
C      1  0.5055800000000  0.4272250000000  0.5361870000000 1.0
C      1  0.4987140000000  0.5011520000000  0.4960070000000 1.0
END
