TITL C-2782232-2968-189 -0.00820899489034341 125000 -869.383674471881 0 0 151 (C1) n - 1
REM
REM in /home/nfs/bkarasulu/CARBON/AIRSS/Generating-Clusters/REBO/Higher-Symm/SD-CG/HFTN-CG
REM
REM
REM
REM
REM
REM ./C.cell (12c818d87b63d06a65506943cc24bca4)
REM
REM compiler GCC version 9.2.1 20190827 (Red Hat 9.2.1-1)
REM options -cpp -mtune=generic -march=x86-64 -g -O0 -fpre-include=/usr/include/finclude/math-vector-fortran.h
REM seed -1601421358 -1230567833 -172397871 -482694206 -1736333501 1571343401 389882728 -392333822 -1062032909 -1502041050 -627198412 1541789803 1160835569 -1650752928 -1688723730 -970514634 877270047 1146891527 -477400637 -208669809 -814723576 -168350876 1254228424 1258212862 1949273597 -1458046599 -354455602 -110514073 11189462 -2065300725 -841195141 794480600 -1022498537
REM
CELL 1.54180   50.00000   50.00000   50.00000   90.00000   90.00000   90.00000
LATT -1
SFAC C  
C      1  0.5398180000000  0.4910940000000  0.4925690000000 1.0
C      1  0.4737310000000  0.4697870000000  0.4167200000000 1.0
C      1  0.4888190000000  0.5637690000000  0.4902880000000 1.0
C      1  0.4610760000000  0.5546020000000  0.5020630000000 1.0
C      1  0.4298000000000  0.4714780000000  0.4494740000000 1.0
C      1  0.4392590000000  0.5304990000000  0.5713040000000 1.0
C      1  0.4201660000000  0.5152780000000  0.4450510000000 1.0
C      1  0.4530370000000  0.5066080000000  0.4408410000000 1.0
C      1  0.5511540000000  0.5310600000000  0.4671670000000 1.0
C      1  0.5076880000000  0.5196320000000  0.4376820000000 1.0
C      1  0.4836210000000  0.3992530000000  0.4807370000000 1.0
C      1  0.5278170000000  0.5874140000000  0.5416480000000 1.0
C      1  0.4298890000000  0.4772590000000  0.5773520000000 1.0
C      1  0.5632010000000  0.4970150000000  0.4204510000000 1.0
C      1  0.5400260000000  0.4917300000000  0.5555400000000 1.0
C      1  0.4114260000000  0.5239160000000  0.5528150000000 1.0
C      1  0.5374490000000  0.4427410000000  0.4409930000000 1.0
C      1  0.4965750000000  0.4440680000000  0.5380840000000 1.0
C      1  0.5075750000000  0.4027710000000  0.5171800000000 1.0
C      1  0.5038520000000  0.4685420000000  0.5577300000000 1.0
C      1  0.4100560000000  0.5262380000000  0.4992140000000 1.0
C      1  0.4315190000000  0.5607000000000  0.5280600000000 1.0
C      1  0.4123400000000  0.4541200000000  0.5038400000000 1.0
C      1  0.5326030000000  0.4211100000000  0.4671400000000 1.0
C      1  0.4826130000000  0.4191980000000  0.4464940000000 1.0
C      1  0.5076270000000  0.6001500000000  0.5182890000000 1.0
C      1  0.5058330000000  0.4070470000000  0.5489500000000 1.0
C      1  0.4928710000000  0.4527930000000  0.4907970000000 1.0
C      1  0.4799930000000  0.5317400000000  0.5575440000000 1.0
C      1  0.5278860000000  0.4533310000000  0.5687780000000 1.0
C      1  0.4641400000000  0.4582480000000  0.4642330000000 1.0
C      1  0.5063960000000  0.4215300000000  0.4891880000000 1.0
C      1  0.5919820000000  0.4936440000000  0.4885840000000 1.0
C      1  0.4311360000000  0.5766060000000  0.4713650000000 1.0
C      1  0.5831260000000  0.5372640000000  0.5088650000000 1.0
C      1  0.5656900000000  0.5624500000000  0.5240830000000 1.0
C      1  0.4335360000000  0.4830850000000  0.5326440000000 1.0
C      1  0.4725430000000  0.5137530000000  0.5857210000000 1.0
C      1  0.4580870000000  0.5308550000000  0.5214830000000 1.0
C      1  0.4494870000000  0.4622760000000  0.4273790000000 1.0
C      1  0.4819730000000  0.5019690000000  0.4127430000000 1.0
C      1  0.6015210000000  0.5397600000000  0.4800610000000 1.0
C      1  0.4929270000000  0.4959870000000  0.5260850000000 1.0
C      1  0.5100110000000  0.4941490000000  0.3991150000000 1.0
C      1  0.4419860000000  0.4172810000000  0.5286080000000 1.0
C      1  0.4356770000000  0.5707750000000  0.5000660000000 1.0
C      1  0.4734460000000  0.5447580000000  0.4661200000000 1.0
C      1  0.5995520000000  0.5119700000000  0.4690490000000 1.0
C      1  0.5197370000000  0.5853410000000  0.4305240000000 1.0
C      1  0.5502900000000  0.5280200000000  0.5426950000000 1.0
C      1  0.4919390000000  0.4358630000000  0.5902920000000 1.0
C      1  0.5414500000000  0.5735560000000  0.4616520000000 1.0
C      1  0.4668610000000  0.5957100000000  0.5000180000000 1.0
C      1  0.5001390000000  0.4507220000000  0.4181960000000 1.0
C      1  0.5918230000000  0.4813170000000  0.4445810000000 1.0
C      1  0.4625480000000  0.5571700000000  0.5418100000000 1.0
C      1  0.5366580000000  0.5457100000000  0.5644020000000 1.0
C      1  0.5167600000000  0.4255630000000  0.5753980000000 1.0
C      1  0.5455130000000  0.4143460000000  0.5136650000000 1.0
C      1  0.5472080000000  0.5677100000000  0.5457730000000 1.0
C      1  0.4523450000000  0.5409320000000  0.4431290000000 1.0
C      1  0.4112260000000  0.5402690000000  0.5287850000000 1.0
C      1  0.5039120000000  0.5921760000000  0.4853650000000 1.0
C      1  0.5575960000000  0.4220200000000  0.4881130000000 1.0
C      1  0.4962600000000  0.5408800000000  0.4129470000000 1.0
C      1  0.4653190000000  0.5315660000000  0.4126750000000 1.0
C      1  0.5810890000000  0.4376240000000  0.4938740000000 1.0
C      1  0.5880500000000  0.5128200000000  0.4375350000000 1.0
C      1  0.4754300000000  0.4509590000000  0.5142560000000 1.0
C      1  0.5119520000000  0.5011580000000  0.4771390000000 1.0
C      1  0.5228120000000  0.4597540000000  0.4660040000000 1.0
C      1  0.5242600000000  0.4381170000000  0.5247220000000 1.0
C      1  0.5606940000000  0.4712980000000  0.4990710000000 1.0
C      1  0.5463000000000  0.5195230000000  0.4942680000000 1.0
C      1  0.4830570000000  0.4981370000000  0.4465620000000 1.0
C      1  0.4289080000000  0.4877860000000  0.4726210000000 1.0
C      1  0.4866640000000  0.4814340000000  0.4734820000000 1.0
C      1  0.4483240000000  0.5108360000000  0.5454470000000 1.0
C      1  0.4520300000000  0.4371070000000  0.5058960000000 1.0
C      1  0.4117630000000  0.5299200000000  0.4707730000000 1.0
C      1  0.5764850000000  0.5045860000000  0.5156030000000 1.0
C      1  0.5091200000000  0.5315120000000  0.4784010000000 1.0
C      1  0.4667110000000  0.4309930000000  0.5477950000000 1.0
C      1  0.5267700000000  0.5600890000000  0.4794130000000 1.0
C      1  0.5535810000000  0.4822300000000  0.5289360000000 1.0
C      1  0.4077100000000  0.4955510000000  0.5497070000000 1.0
C      1  0.5560730000000  0.4642050000000  0.5809620000000 1.0
C      1  0.4388480000000  0.4366050000000  0.4503850000000 1.0
C      1  0.4943460000000  0.4500110000000  0.4509460000000 1.0
C      1  0.4725150000000  0.4757480000000  0.5340900000000 1.0
C      1  0.4373530000000  0.4503590000000  0.4836430000000 1.0
C      1  0.5241210000000  0.4553480000000  0.4996930000000 1.0
C      1  0.4095250000000  0.4802090000000  0.4922490000000 1.0
C      1  0.5400040000000  0.5660640000000  0.4225110000000 1.0
C      1  0.4570330000000  0.5922480000000  0.4726240000000 1.0
C      1  0.4713200000000  0.5201040000000  0.4846950000000 1.0
C      1  0.4709870000000  0.5856760000000  0.5248760000000 1.0
C      1  0.4461730000000  0.4550780000000  0.5410840000000 1.0
C      1  0.5212700000000  0.4693670000000  0.4062720000000 1.0
C      1  0.5850150000000  0.4592930000000  0.5201720000000 1.0
C      1  0.4977610000000  0.4912910000000  0.5898190000000 1.0
C      1  0.4554050000000  0.4057250000000  0.4988970000000 1.0
C      1  0.5374310000000  0.5105080000000  0.4477620000000 1.0
C      1  0.4932020000000  0.4620230000000  0.5983730000000 1.0
C      1  0.4690450000000  0.4260910000000  0.5783760000000 1.0
C      1  0.5764960000000  0.5070270000000  0.5496340000000 1.0
C      1  0.4970950000000  0.5021010000000  0.5570240000000 1.0
C      1  0.5412450000000  0.5181840000000  0.4159630000000 1.0
C      1  0.4106700000000  0.4626200000000  0.5576600000000 1.0
C      1  0.5475710000000  0.4248200000000  0.5450150000000 1.0
C      1  0.4880190000000  0.5687050000000  0.5703690000000 1.0
C      1  0.5655900000000  0.5529640000000  0.4855270000000 1.0
C      1  0.4332660000000  0.5104340000000  0.5142980000000 1.0
C      1  0.5423280000000  0.4811030000000  0.4544620000000 1.0
C      1  0.5359800000000  0.3998640000000  0.5640490000000 1.0
C      1  0.4739010000000  0.5917460000000  0.4497300000000 1.0
C      1  0.5037700000000  0.5972470000000  0.4547670000000 1.0
C      1  0.5343450000000  0.5944080000000  0.4984560000000 1.0
C      1  0.5631940000000  0.5612190000000  0.4432280000000 1.0
C      1  0.5850000000000  0.5440720000000  0.4506920000000 1.0
C      1  0.4948410000000  0.5855080000000  0.5467060000000 1.0
C      1  0.4181510000000  0.4419360000000  0.5316180000000 1.0
C      1  0.4336060000000  0.5195000000000  0.4154170000000 1.0
C      1  0.4971130000000  0.5399340000000  0.5324540000000 1.0
C      1  0.5884710000000  0.4654680000000  0.4810880000000 1.0
C      1  0.4936350000000  0.5210110000000  0.5065410000000 1.0
C      1  0.5556890000000  0.4558890000000  0.5494640000000 1.0
C      1  0.4564120000000  0.4129850000000  0.4653240000000 1.0
C      1  0.5912900000000  0.4774560000000  0.5407690000000 1.0
C      1  0.4721430000000  0.4722040000000  0.5659610000000 1.0
C      1  0.4902330000000  0.5704570000000  0.4287710000000 1.0
C      1  0.4441350000000  0.4992740000000  0.5834730000000 1.0
C      1  0.5005270000000  0.5304400000000  0.5946200000000 1.0
C      1  0.5113120000000  0.4847810000000  0.5059570000000 1.0
C      1  0.5391050000000  0.5334540000000  0.5172180000000 1.0
C      1  0.5495480000000  0.4656910000000  0.4187390000000 1.0
C      1  0.5573290000000  0.5088700000000  0.5769960000000 1.0
C      1  0.5270350000000  0.5002610000000  0.5832570000000 1.0
C      1  0.5285180000000  0.5422300000000  0.4105040000000 1.0
C      1  0.5008690000000  0.5486890000000  0.4514300000000 1.0
C      1  0.4270780000000  0.5528040000000  0.4563170000000 1.0
C      1  0.5109590000000  0.5493010000000  0.5776690000000 1.0
C      1  0.4573380000000  0.5549130000000  0.5794860000000 1.0
C      1  0.5686940000000  0.4673180000000  0.4463940000000 1.0
C      1  0.5564660000000  0.5785570000000  0.4987960000000 1.0
C      1  0.5130700000000  0.4215210000000  0.4306320000000 1.0
C      1  0.4522420000000  0.5018480000000  0.4803900000000 1.0
C      1  0.5352620000000  0.3892170000000  0.5316630000000 1.0
C      1  0.4681150000000  0.5802400000000  0.5955000000000 1.0
C      1  0.5149610000000  0.5546080000000  0.5103310000000 1.0
C      1  0.5081260000000  0.3995640000000  0.4565050000000 1.0
END
