TITL C-2782240-8521-283 0.000314372456789973 125000 -170.673659647354 0 0 31 (C1) n - 1
REM
REM in /home/nfs/bkarasulu/CARBON/AIRSS/Generating-Clusters/REBO/Higher-Symm/SD-CG/HFTN-CG
REM
REM
REM
REM
REM
REM ./C.cell (12c818d87b63d06a65506943cc24bca4)
REM
REM compiler GCC version 9.2.1 20190827 (Red Hat 9.2.1-1)
REM options -cpp -mtune=generic -march=x86-64 -g -O0 -fpre-include=/usr/include/finclude/math-vector-fortran.h
REM seed 1765362162 -1447179708 -944245390 -435590488 893475490 664232062 -1088186155 -222171188 518273236 -37593117 -1044113150 524831587 1281022300 1695960270 949034866 -2128233465 1302541174 -555376791 -293816925 1007729571 -729062228 937333475 966461872 -624467809 -765577239 1061531347 -748945525 -1778662518 -391763252 -1507353601 294881354 699916327 41881203
REM
CELL 1.54180   50.00000   50.00000   50.00000   90.00000   90.00000   90.00000
LATT -1
SFAC C  
C      1  0.5260860000000  0.5136330000000  0.4743680000000 1.0
C      1  0.5275060000000  0.5117080000000  0.5290410000000 1.0
C      1  0.4634290000000  0.5144580000000  0.4583430000000 1.0
C      1  0.4637620000000  0.5191130000000  0.5411470000000 1.0
C      1  0.4261680000000  0.4778890000000  0.4706540000000 1.0
C      1  0.4242340000000  0.4867290000000  0.5242890000000 1.0
C      1  0.5152130000000  0.5594920000000  0.5306150000000 1.0
C      1  0.5105630000000  0.5584930000000  0.4742760000000 1.0
C      1  0.5315590000000  0.4326670000000  0.4857510000000 1.0
C      1  0.5307550000000  0.4354840000000  0.5134200000000 1.0
C      1  0.5561750000000  0.4940960000000  0.5250270000000 1.0
C      1  0.5483520000000  0.4902550000000  0.4780890000000 1.0
C      1  0.4917410000000  0.4642910000000  0.5124580000000 1.0
C      1  0.4887840000000  0.4559340000000  0.4836820000000 1.0
C      1  0.4489540000000  0.4972000000000  0.5275490000000 1.0
C      1  0.4500310000000  0.4904640000000  0.4687860000000 1.0
C      1  0.4791010000000  0.4931930000000  0.5152580000000 1.0
C      1  0.4809610000000  0.4873910000000  0.4817670000000 1.0
C      1  0.4915260000000  0.5473840000000  0.5415080000000 1.0
C      1  0.4893080000000  0.5444410000000  0.4611980000000 1.0
C      1  0.4958020000000  0.5116990000000  0.4649730000000 1.0
C      1  0.4964810000000  0.5154760000000  0.5321140000000 1.0
C      1  0.5163160000000  0.4573240000000  0.5253230000000 1.0
C      1  0.5145620000000  0.4496560000000  0.4705590000000 1.0
C      1  0.5305890000000  0.5402770000000  0.5157260000000 1.0
C      1  0.5288650000000  0.5405650000000  0.4876560000000 1.0
C      1  0.5310440000000  0.4787760000000  0.5358830000000 1.0
C      1  0.5172250000000  0.4807610000000  0.4713470000000 1.0
C      1  0.4627660000000  0.5477890000000  0.5525250000000 1.0
C      1  0.4599580000000  0.5442670000000  0.4512080000000 1.0
C      1  0.5657680000000  0.4893030000000  0.4990400000000 1.0
END
