TITL C-2782233-7966-1336 -7.57761331469984e-05 125000 -359.575774816046 0 0 62 (C1) n - 1
REM
REM in /home/nfs/bkarasulu/CARBON/AIRSS/Generating-Clusters/REBO/Higher-Symm/SD-CG/HFTN-CG
REM
REM
REM
REM
REM
REM ./C.cell (12c818d87b63d06a65506943cc24bca4)
REM
REM compiler GCC version 9.2.1 20190827 (Red Hat 9.2.1-1)
REM options -cpp -mtune=generic -march=x86-64 -g -O0 -fpre-include=/usr/include/finclude/math-vector-fortran.h
REM seed 447241289 724543034 1164180178 -993596264 721626518 -780710611 126657953 1387536557 -1196016530 -1874106971 1975377025 -1432299996 -261656109 1929820484 -1520254481 -752739914 -398671797 408165243 -338752587 -629051691 1434518948 1360711898 -766977532 -301959650 1858759541 248246431 -337244038 979600801 648563199 -1313240159 -773150325 899218210 -2085476200
REM
CELL 1.54180   50.00000   50.00000   50.00000   90.00000   90.00000   90.00000
LATT -1
SFAC C  
C      1  0.5300730000000  0.4651260000000  0.4960600000000 1.0
C      1  0.5451860000000  0.5091840000000  0.5037150000000 1.0
C      1  0.5149530000000  0.5434400000000  0.4960300000000 1.0
C      1  0.4696730000000  0.5349640000000  0.5043480000000 1.0
C      1  0.4541530000000  0.4912770000000  0.4957390000000 1.0
C      1  0.4841580000000  0.4560130000000  0.5036910000000 1.0
C      1  0.4518280000000  0.4575840000000  0.5418530000000 1.0
C      1  0.5131610000000  0.4370490000000  0.4589120000000 1.0
C      1  0.5602500000000  0.4798820000000  0.5420340000000 1.0
C      1  0.5475710000000  0.5428630000000  0.4577390000000 1.0
C      1  0.4867430000000  0.5626050000000  0.5423590000000 1.0
C      1  0.4393460000000  0.5208180000000  0.4581960000000 1.0
C      1  0.4630050000000  0.5142140000000  0.5667700000000 1.0
C      1  0.4771310000000  0.4767820000000  0.4310340000000 1.0
C      1  0.5073170000000  0.4670180000000  0.5689420000000 1.0
C      1  0.5307270000000  0.4866980000000  0.4370130000000 1.0
C      1  0.5306200000000  0.5248710000000  0.5670390000000 1.0
C      1  0.4914130000000  0.5361330000000  0.4309900000000 1.0
C      1  0.4708720000000  0.5536160000000  0.4786170000000 1.0
C      1  0.4387780000000  0.5015240000000  0.5216770000000 1.0
C      1  0.4678520000000  0.4483210000000  0.4771780000000 1.0
C      1  0.5282770000000  0.4469710000000  0.5223060000000 1.0
C      1  0.5605210000000  0.4986680000000  0.4777880000000 1.0
C      1  0.5314350000000  0.5521090000000  0.5218810000000 1.0
C      1  0.5308160000000  0.4531000000000  0.5695560000000 1.0
C      1  0.5527650000000  0.5026140000000  0.4314420000000 1.0
C      1  0.5260910000000  0.5520840000000  0.5687800000000 1.0
C      1  0.4677080000000  0.5497490000000  0.4315750000000 1.0
C      1  0.4415910000000  0.4968290000000  0.5685440000000 1.0
C      1  0.4766150000000  0.4496850000000  0.4302400000000 1.0
C      1  0.4621700000000  0.5503880000000  0.5404090000000 1.0
C      1  0.4372830000000  0.4934100000000  0.4596200000000 1.0
C      1  0.4744040000000  0.4420560000000  0.5398130000000 1.0
C      1  0.5380060000000  0.4488470000000  0.4604910000000 1.0
C      1  0.5620650000000  0.5072430000000  0.5398580000000 1.0
C      1  0.5248400000000  0.5581430000000  0.4602290000000 1.0
C      1  0.4379420000000  0.4827040000000  0.5438120000000 1.0
C      1  0.4845220000000  0.4383770000000  0.4554430000000 1.0
C      1  0.5448620000000  0.4556000000000  0.5445470000000 1.0
C      1  0.5602420000000  0.5171200000000  0.4551550000000 1.0
C      1  0.5154970000000  0.5621630000000  0.5440520000000 1.0
C      1  0.4540220000000  0.5456050000000  0.4564840000000 1.0
C      1  0.5192060000000  0.5124170000000  0.5393450000000 1.0
C      1  0.4987310000000  0.5227580000000  0.4613020000000 1.0
C      1  0.4795530000000  0.5104330000000  0.5390540000000 1.0
C      1  0.4809690000000  0.4873540000000  0.4621680000000 1.0
C      1  0.5010970000000  0.4771500000000  0.5372840000000 1.0
C      1  0.5204520000000  0.4893960000000  0.4622820000000 1.0
C      1  0.5017580000000  0.4691730000000  0.4798070000000 1.0
C      1  0.5277840000000  0.4868180000000  0.5197730000000 1.0
C      1  0.5253120000000  0.5174320000000  0.4790920000000 1.0
C      1  0.4976830000000  0.5309010000000  0.5206170000000 1.0
C      1  0.4720630000000  0.5137440000000  0.4800580000000 1.0
C      1  0.4739340000000  0.4827470000000  0.5200230000000 1.0
C      1  0.5006980000000  0.4392820000000  0.5246840000000 1.0
C      1  0.5532700000000  0.4707980000000  0.4753790000000 1.0
C      1  0.5512410000000  0.5315170000000  0.5249610000000 1.0
C      1  0.4985060000000  0.5602330000000  0.4752430000000 1.0
C      1  0.4469120000000  0.5288410000000  0.5251590000000 1.0
C      1  0.4478300000000  0.4688530000000  0.4744910000000 1.0
C      1  0.4947500000000  0.5037450000000  0.4331680000000 1.0
C      1  0.4997980000000  0.4990010000000  0.5641480000000 1.0
END
