TITL C-2782229-3092-464 -4.79015304087293e-05 125000 -195.214346511239 0 0 36 (C1) n - 1
REM
REM in /home/nfs/bkarasulu/CARBON/AIRSS/Generating-Clusters/REBO/Higher-Symm/SD-CG/HFTN-CG
REM
REM
REM
REM
REM
REM ./C.cell (12c818d87b63d06a65506943cc24bca4)
REM
REM compiler GCC version 9.2.1 20190827 (Red Hat 9.2.1-1)
REM options -cpp -mtune=generic -march=x86-64 -g -O0 -fpre-include=/usr/include/finclude/math-vector-fortran.h
REM seed -353442498 1576011687 662748174 -167644153 -1958214152 -12259198 -1644750565 -1202571756 -1688789459 1376873202 390152743 -2066607622 353114364 1116484599 -66917082 -1890851077 616227282 -584068475 1944439951 -969010236 1392118223 207094733 1348013363 -1053754657 954663436 1736613354 -1079623014 -679938607 1662145012 87962293 -696867003 1708604693 1935773566
REM
CELL 1.54180   50.00000   50.00000   50.00000   90.00000   90.00000   90.00000
LATT -1
SFAC C  
C      1  0.5102170000000  0.5467950000000  0.5365510000000 1.0
C      1  0.5124340000000  0.4436460000000  0.5220770000000 1.0
C      1  0.5129920000000  0.5070110000000  0.4419350000000 1.0
C      1  0.4959060000000  0.4475990000000  0.5435050000000 1.0
C      1  0.4948510000000  0.4879360000000  0.4342510000000 1.0
C      1  0.4937380000000  0.5636920000000  0.5226800000000 1.0
C      1  0.4539150000000  0.5427770000000  0.4941820000000 1.0
C      1  0.4561650000000  0.4844220000000  0.5403960000000 1.0
C      1  0.4537720000000  0.4759040000000  0.4673090000000 1.0
C      1  0.5099540000000  0.4954740000000  0.5288050000000 1.0
C      1  0.5073640000000  0.4763150000000  0.4825930000000 1.0
C      1  0.5069780000000  0.5270480000000  0.4887670000000 1.0
C      1  0.5210680000000  0.4198550000000  0.5112350000000 1.0
C      1  0.5245230000000  0.5268110000000  0.4266680000000 1.0
C      1  0.5180680000000  0.5482790000000  0.5628980000000 1.0
C      1  0.4879780000000  0.4764710000000  0.5470350000000 1.0
C      1  0.4848830000000  0.4709790000000  0.4573530000000 1.0
C      1  0.4852310000000  0.5525450000000  0.4958420000000 1.0
C      1  0.5505200000000  0.5039700000000  0.4753480000000 1.0
C      1  0.5508680000000  0.5261230000000  0.5167190000000 1.0
C      1  0.5520420000000  0.4701110000000  0.5074220000000 1.0
C      1  0.4426450000000  0.5010770000000  0.4618850000000 1.0
C      1  0.4426620000000  0.5342540000000  0.5184220000000 1.0
C      1  0.4429480000000  0.4666280000000  0.5203480000000 1.0
C      1  0.4810640000000  0.4551160000000  0.4868600000000 1.0
C      1  0.4817900000000  0.5350160000000  0.4672600000000 1.0
C      1  0.4824840000000  0.5091460000000  0.5435380000000 1.0
C      1  0.4518490000000  0.4608170000000  0.4945020000000 1.0
C      1  0.4520870000000  0.5267420000000  0.4676730000000 1.0
C      1  0.4516890000000  0.5169260000000  0.5366090000000 1.0
C      1  0.5213210000000  0.4706430000000  0.5100850000000 1.0
C      1  0.5199110000000  0.5039980000000  0.4718710000000 1.0
C      1  0.5200570000000  0.5239060000000  0.5183390000000 1.0
C      1  0.5760200000000  0.5045470000000  0.4762840000000 1.0
C      1  0.5746180000000  0.5167150000000  0.5143590000000 1.0
C      1  0.5753890000000  0.4807070000000  0.5083890000000 1.0
END
