TITL C-2782227-3064-1381 0.00122985533459757 125000 -409.526410365338 0 0 75 (C1) n - 1
REM
REM in /home/nfs/bkarasulu/CARBON/AIRSS/Generating-Clusters/REBO/Higher-Symm/SD-CG/HFTN-CG
REM
REM
REM
REM
REM
REM ./C.cell (12c818d87b63d06a65506943cc24bca4)
REM
REM compiler GCC version 9.2.1 20190827 (Red Hat 9.2.1-1)
REM options -cpp -mtune=generic -march=x86-64 -g -O0 -fpre-include=/usr/include/finclude/math-vector-fortran.h
REM seed -590338297 -1144354838 123512462 969926353 938107500 -1473812591 1909371703 1093958357 125938823 -641585416 -686800555 -1598715216 -1120592220 390227632 -1999804914 -283831889 589999911 -237281735 1550011372 129265746 -689283091 1988082436 -1692909065 -2108847565 -82176012 -2013306375 1031928836 -354850942 56783593 -1545847209 1701619666 -1323157285 -2132433738
REM
CELL 1.54180   50.00000   50.00000   50.00000   90.00000   90.00000   90.00000
LATT -1
SFAC C  
C      1  0.4277110000000  0.4771620000000  0.4978390000000 1.0
C      1  0.4756430000000  0.4766990000000  0.5694540000000 1.0
C      1  0.5580720000000  0.4776000000000  0.5445630000000 1.0
C      1  0.5613460000000  0.4741540000000  0.4592260000000 1.0
C      1  0.4806040000000  0.4747070000000  0.4299040000000 1.0
C      1  0.5723420000000  0.4863420000000  0.5141750000000 1.0
C      1  0.5382520000000  0.4832590000000  0.4348600000000 1.0
C      1  0.4499730000000  0.4841310000000  0.4434690000000 1.0
C      1  0.4317480000000  0.4857410000000  0.5311890000000 1.0
C      1  0.5087380000000  0.4852050000000  0.5759840000000 1.0
C      1  0.4885770000000  0.5687930000000  0.4766090000000 1.0
C      1  0.4719350000000  0.5691340000000  0.5064130000000 1.0
C      1  0.4934070000000  0.5640960000000  0.5322410000000 1.0
C      1  0.5237560000000  0.5696440000000  0.5184870000000 1.0
C      1  0.5217120000000  0.5687460000000  0.4844570000000 1.0
C      1  0.5336440000000  0.5029210000000  0.5665300000000 1.0
C      1  0.5746930000000  0.5041860000000  0.4868390000000 1.0
C      1  0.5132750000000  0.5025050000000  0.4275380000000 1.0
C      1  0.4364210000000  0.5028900000000  0.4655080000000 1.0
C      1  0.4477990000000  0.5025250000000  0.5530340000000 1.0
C      1  0.4464390000000  0.4647200000000  0.4718470000000 1.0
C      1  0.4565970000000  0.4648830000000  0.5433270000000 1.0
C      1  0.5276310000000  0.4653430000000  0.5548870000000 1.0
C      1  0.5614230000000  0.4628480000000  0.4915720000000 1.0
C      1  0.5110700000000  0.4628190000000  0.4401670000000 1.0
C      1  0.5316060000000  0.5309950000000  0.5750820000000 1.0
C      1  0.5787060000000  0.5327460000000  0.4921990000000 1.0
C      1  0.5208600000000  0.5309110000000  0.4234060000000 1.0
C      1  0.4346310000000  0.5313240000000  0.4583270000000 1.0
C      1  0.4399590000000  0.5310320000000  0.5534510000000 1.0
C      1  0.4983240000000  0.4450360000000  0.4667550000000 1.0
C      1  0.4673840000000  0.4461230000000  0.4920640000000 1.0
C      1  0.4818610000000  0.4458760000000  0.5296630000000 1.0
C      1  0.5223640000000  0.4457160000000  0.5272260000000 1.0
C      1  0.5323470000000  0.4448080000000  0.4885200000000 1.0
C      1  0.4249540000000  0.5097260000000  0.5077870000000 1.0
C      1  0.4839050000000  0.5084690000000  0.5788640000000 1.0
C      1  0.5661560000000  0.5101470000000  0.5378390000000 1.0
C      1  0.5594750000000  0.5062080000000  0.4484360000000 1.0
C      1  0.4704720000000  0.5070830000000  0.4287960000000 1.0
C      1  0.4658280000000  0.5350220000000  0.5675700000000 1.0
C      1  0.5503820000000  0.5364280000000  0.5526840000000 1.0
C      1  0.5636470000000  0.5357600000000  0.4648100000000 1.0
C      1  0.4900190000000  0.5349460000000  0.4286420000000 1.0
C      1  0.4323470000000  0.5360560000000  0.4874180000000 1.0
C      1  0.4817240000000  0.4892920000000  0.4732320000000 1.0
C      1  0.4687680000000  0.4906920000000  0.5103450000000 1.0
C      1  0.5001330000000  0.4907180000000  0.5338690000000 1.0
C      1  0.5326500000000  0.4901300000000  0.5115190000000 1.0
C      1  0.5210090000000  0.4889980000000  0.4738690000000 1.0
C      1  0.4485630000000  0.4562570000000  0.5112510000000 1.0
C      1  0.4947220000000  0.4562520000000  0.5532530000000 1.0
C      1  0.5492400000000  0.4554890000000  0.5225550000000 1.0
C      1  0.5362590000000  0.4542140000000  0.4615080000000 1.0
C      1  0.4741260000000  0.4549260000000  0.4543860000000 1.0
C      1  0.4571640000000  0.5007440000000  0.4852150000000 1.0
C      1  0.4726940000000  0.5009930000000  0.5380820000000 1.0
C      1  0.5270960000000  0.5016940000000  0.5383720000000 1.0
C      1  0.5457290000000  0.4990450000000  0.4861620000000 1.0
C      1  0.5014120000000  0.4991240000000  0.4535620000000 1.0
C      1  0.5037740000000  0.5363320000000  0.5778030000000 1.0
C      1  0.5696090000000  0.5380960000000  0.5182820000000 1.0
C      1  0.5462060000000  0.5347840000000  0.4355520000000 1.0
C      1  0.4575700000000  0.5366340000000  0.4398380000000 1.0
C      1  0.4316950000000  0.5373020000000  0.5268780000000 1.0
C      1  0.5475860000000  0.5566740000000  0.5299750000000 1.0
C      1  0.5408580000000  0.5578070000000  0.4683340000000 1.0
C      1  0.4805900000000  0.5575480000000  0.4516420000000 1.0
C      1  0.4456590000000  0.5559630000000  0.5068500000000 1.0
C      1  0.4881830000000  0.5534180000000  0.5569530000000 1.0
C      1  0.5000720000000  0.5881940000000  0.5020760000000 1.0
C      1  0.5008250000000  0.4772180000000  0.5008820000000 1.0
C      1  0.4999130000000  0.4098140000000  0.5013850000000 1.0
C      1  0.5004010000000  0.4419440000000  0.5009720000000 1.0
C      1  0.5011020000000  0.5117390000000  0.4999620000000 1.0
END
