TITL C-2782235-7892-532 0.00183379653455737 125000 -488.282172602529 0 0 86 (C1) n - 1
REM
REM in /home/nfs/bkarasulu/CARBON/AIRSS/Generating-Clusters/REBO/Higher-Symm/SD-CG/HFTN-CG
REM
REM
REM
REM
REM
REM ./C.cell (12c818d87b63d06a65506943cc24bca4)
REM
REM compiler GCC version 9.2.1 20190827 (Red Hat 9.2.1-1)
REM options -cpp -mtune=generic -march=x86-64 -g -O0 -fpre-include=/usr/include/finclude/math-vector-fortran.h
REM seed -1731033934 -1124991605 -674873895 43970695 -750189890 177695125 712147067 1425222613 311250243 -1417817782 -826153409 1894937631 1507294545 1759909474 -1762711642 1282144734 -283048630 -167044001 455056640 921181332 -559919218 1052708559 -262059465 1879685577 -147903853 -1807066812 -254631126 -40003230 -806059795 1647236712 -542099467 957557947 642532948
REM
CELL 1.54180   50.00000   50.00000   50.00000   90.00000   90.00000   90.00000
LATT -1
SFAC C  
C      1  0.4820680000000  0.5159430000000  0.5127580000000 1.0
C      1  0.4778320000000  0.4809210000000  0.4777210000000 1.0
C      1  0.5141530000000  0.5260020000000  0.5178160000000 1.0
C      1  0.5085480000000  0.4723570000000  0.4861100000000 1.0
C      1  0.5547010000000  0.4521930000000  0.4506120000000 1.0
C      1  0.5555260000000  0.5543520000000  0.5551150000000 1.0
C      1  0.4474490000000  0.4446740000000  0.4336300000000 1.0
C      1  0.4432270000000  0.5571360000000  0.5559020000000 1.0
C      1  0.5860620000000  0.4991010000000  0.5340510000000 1.0
C      1  0.5852300000000  0.4963040000000  0.4604050000000 1.0
C      1  0.4152140000000  0.4959850000000  0.5340200000000 1.0
C      1  0.4243640000000  0.4971470000000  0.4645770000000 1.0
C      1  0.5662250000000  0.4736660000000  0.5386480000000 1.0
C      1  0.5674680000000  0.5218770000000  0.4513810000000 1.0
C      1  0.4367130000000  0.4716300000000  0.5439170000000 1.0
C      1  0.4368670000000  0.5276170000000  0.4570770000000 1.0
C      1  0.4529970000000  0.5369170000000  0.5715100000000 1.0
C      1  0.4586520000000  0.4678740000000  0.4235330000000 1.0
C      1  0.5434070000000  0.5314340000000  0.5648830000000 1.0
C      1  0.5380490000000  0.4774880000000  0.4398500000000 1.0
C      1  0.5189920000000  0.5288010000000  0.4424320000000 1.0
C      1  0.5198900000000  0.4706790000000  0.5667930000000 1.0
C      1  0.4918230000000  0.5353480000000  0.4469000000000 1.0
C      1  0.4888080000000  0.4639250000000  0.5632650000000 1.0
C      1  0.5370220000000  0.5770020000000  0.4717170000000 1.0
C      1  0.5292290000000  0.4225460000000  0.5318410000000 1.0
C      1  0.4767830000000  0.5765440000000  0.4812990000000 1.0
C      1  0.4761780000000  0.4205440000000  0.5310290000000 1.0
C      1  0.4558170000000  0.4889860000000  0.4994270000000 1.0
C      1  0.4449680000000  0.5169940000000  0.4980140000000 1.0
C      1  0.5533870000000  0.4839150000000  0.5021930000000 1.0
C      1  0.5480020000000  0.5154680000000  0.5035570000000 1.0
C      1  0.4778210000000  0.4383320000000  0.5026340000000 1.0
C      1  0.4564610000000  0.5702870000000  0.5063050000000 1.0
C      1  0.5330200000000  0.4299860000000  0.4986600000000 1.0
C      1  0.5363610000000  0.5708520000000  0.5045920000000 1.0
C      1  0.5147740000000  0.4795860000000  0.5167240000000 1.0
C      1  0.5047690000000  0.5342230000000  0.4859320000000 1.0
C      1  0.4858180000000  0.4880590000000  0.5258030000000 1.0
C      1  0.4802180000000  0.5141370000000  0.4787420000000 1.0
C      1  0.4879760000000  0.5669280000000  0.4510960000000 1.0
C      1  0.4855620000000  0.4318600000000  0.5605660000000 1.0
C      1  0.5210550000000  0.5622700000000  0.4468790000000 1.0
C      1  0.5182400000000  0.4372970000000  0.5604460000000 1.0
C      1  0.4652120000000  0.5054400000000  0.5734240000000 1.0
C      1  0.4691820000000  0.4993480000000  0.4245180000000 1.0
C      1  0.5349500000000  0.5010210000000  0.5714800000000 1.0
C      1  0.5347930000000  0.4933840000000  0.4103630000000 1.0
C      1  0.4854980000000  0.5296160000000  0.5645880000000 1.0
C      1  0.4878510000000  0.4745700000000  0.4346510000000 1.0
C      1  0.5143940000000  0.5288720000000  0.5518500000000 1.0
C      1  0.5107410000000  0.4715150000000  0.4518960000000 1.0
C      1  0.4211110000000  0.4797190000000  0.4819660000000 1.0
C      1  0.4158560000000  0.5160130000000  0.5144890000000 1.0
C      1  0.5799480000000  0.4805890000000  0.4813110000000 1.0
C      1  0.5799750000000  0.5163590000000  0.5141690000000 1.0
C      1  0.4587000000000  0.4342920000000  0.4561510000000 1.0
C      1  0.4589450000000  0.5619670000000  0.5325560000000 1.0
C      1  0.5408120000000  0.4341520000000  0.4678190000000 1.0
C      1  0.5416740000000  0.5685460000000  0.5355500000000 1.0
C      1  0.5110720000000  0.4433410000000  0.4682120000000 1.0
C      1  0.5125130000000  0.5564820000000  0.5329670000000 1.0
C      1  0.4795900000000  0.4474440000000  0.4745260000000 1.0
C      1  0.4816110000000  0.5423640000000  0.5338350000000 1.0
C      1  0.5475170000000  0.4471750000000  0.5458510000000 1.0
C      1  0.5497460000000  0.5476880000000  0.4594350000000 1.0
C      1  0.4575640000000  0.4449770000000  0.5461370000000 1.0
C      1  0.4574400000000  0.5549590000000  0.4588970000000 1.0
C      1  0.5366830000000  0.5408840000000  0.4884960000000 1.0
C      1  0.5394820000000  0.4568350000000  0.5143370000000 1.0
C      1  0.4507730000000  0.5473550000000  0.4886370000000 1.0
C      1  0.4663120000000  0.4626730000000  0.5189190000000 1.0
C      1  0.4874980000000  0.5009650000000  0.5957530000000 1.0
C      1  0.4870800000000  0.5077590000000  0.3998540000000 1.0
C      1  0.5121110000000  0.4990780000000  0.5938360000000 1.0
C      1  0.5131160000000  0.5004580000000  0.3959370000000 1.0
C      1  0.4163970000000  0.5307090000000  0.4842850000000 1.0
C      1  0.4298670000000  0.4705100000000  0.5106160000000 1.0
C      1  0.5735460000000  0.5265660000000  0.4836510000000 1.0
C      1  0.5826760000000  0.4673330000000  0.5102340000000 1.0
C      1  0.4665940000000  0.5177630000000  0.4481200000000 1.0
C      1  0.4661570000000  0.4832530000000  0.5531940000000 1.0
C      1  0.5422210000000  0.5109170000000  0.4373250000000 1.0
C      1  0.5360270000000  0.4850940000000  0.5421890000000 1.0
C      1  0.5034430000000  0.4191570000000  0.5115310000000 1.0
C      1  0.5073190000000  0.5676720000000  0.4860810000000 1.0
END
