TITL C-2782228-2999-657 0.000783473701553425 125000 -508.931442224412 0 0 90 (C1) n - 1
REM
REM in /home/nfs/bkarasulu/CARBON/AIRSS/Generating-Clusters/REBO/Higher-Symm/SD-CG/HFTN-CG
REM
REM
REM
REM
REM
REM ./C.cell (12c818d87b63d06a65506943cc24bca4)
REM
REM compiler GCC version 9.2.1 20190827 (Red Hat 9.2.1-1)
REM options -cpp -mtune=generic -march=x86-64 -g -O0 -fpre-include=/usr/include/finclude/math-vector-fortran.h
REM seed 742691065 792318490 -99610830 -933553575 -1553772381 911086193 -575902153 78339644 -1181819675 -450451461 -1121847961 543877278 -1820750711 -855431244 1184800566 -1107734878 -1612757536 -145449523 -1254528830 1454570457 1224482346 -617412324 -74315959 598822919 1634089012 -554882836 217411566 633397722 1601610848 -423317850 -1726256671 -1457173224 -1799913744
REM
CELL 1.54180   50.00000   50.00000   50.00000   90.00000   90.00000   90.00000
LATT -1
SFAC C  
C      1  0.5197710000000  0.5685180000000  0.5647700000000 1.0
C      1  0.5216410000000  0.5864460000000  0.4542480000000 1.0
C      1  0.5215620000000  0.4778400000000  0.4043000000000 1.0
C      1  0.5219430000000  0.4058340000000  0.4891880000000 1.0
C      1  0.5245650000000  0.4697730000000  0.5710760000000 1.0
C      1  0.5308520000000  0.4481710000000  0.4421980000000 1.0
C      1  0.5243040000000  0.4211960000000  0.5260340000000 1.0
C      1  0.5217070000000  0.4992910000000  0.5816740000000 1.0
C      1  0.5268850000000  0.5742900000000  0.5258920000000 1.0
C      1  0.5287300000000  0.5461630000000  0.4299190000000 1.0
C      1  0.4928240000000  0.5600770000000  0.5656310000000 1.0
C      1  0.4974410000000  0.5811910000000  0.4657720000000 1.0
C      1  0.4984810000000  0.4892220000000  0.4134800000000 1.0
C      1  0.4967770000000  0.4174670000000  0.4855610000000 1.0
C      1  0.4939800000000  0.4584320000000  0.5808440000000 1.0
C      1  0.5167120000000  0.4941360000000  0.4734890000000 1.0
C      1  0.5098200000000  0.4717580000000  0.5058700000000 1.0
C      1  0.5135830000000  0.4927950000000  0.5288310000000 1.0
C      1  0.5020240000000  0.5189910000000  0.5167820000000 1.0
C      1  0.5102280000000  0.5219780000000  0.4869230000000 1.0
C      1  0.4569540000000  0.4505640000000  0.5468100000000 1.0
C      1  0.4515640000000  0.5295300000000  0.5634900000000 1.0
C      1  0.4573660000000  0.5689430000000  0.4929250000000 1.0
C      1  0.4600450000000  0.5144090000000  0.4332640000000 1.0
C      1  0.4580630000000  0.4413990000000  0.4669360000000 1.0
C      1  0.5425020000000  0.4456140000000  0.4670520000000 1.0
C      1  0.5511690000000  0.4286230000000  0.5371760000000 1.0
C      1  0.5421220000000  0.5151030000000  0.5692560000000 1.0
C      1  0.5425320000000  0.5739150000000  0.5027350000000 1.0
C      1  0.5444250000000  0.5239860000000  0.4242250000000 1.0
C      1  0.4706280000000  0.5655740000000  0.4639520000000 1.0
C      1  0.4720820000000  0.4856820000000  0.4294510000000 1.0
C      1  0.4686290000000  0.4280030000000  0.4960840000000 1.0
C      1  0.4678070000000  0.4701240000000  0.5680460000000 1.0
C      1  0.4642050000000  0.5581120000000  0.5499910000000 1.0
C      1  0.5328740000000  0.5474590000000  0.4839450000000 1.0
C      1  0.5373840000000  0.4999870000000  0.4465120000000 1.0
C      1  0.5337540000000  0.4694020000000  0.4868810000000 1.0
C      1  0.5602900000000  0.4550450000000  0.5363050000000 1.0
C      1  0.5342740000000  0.5188220000000  0.5368340000000 1.0
C      1  0.4577980000000  0.5202950000000  0.4723830000000 1.0
C      1  0.4579340000000  0.4805680000000  0.4735070000000 1.0
C      1  0.4568450000000  0.4696000000000  0.5119200000000 1.0
C      1  0.4541380000000  0.5017080000000  0.5352190000000 1.0
C      1  0.4548140000000  0.5341170000000  0.5118470000000 1.0
C      1  0.4325300000000  0.4566160000000  0.4697640000000 1.0
C      1  0.4316170000000  0.4591840000000  0.5334970000000 1.0
C      1  0.4271660000000  0.5188870000000  0.5496410000000 1.0
C      1  0.4310680000000  0.5546160000000  0.4968950000000 1.0
C      1  0.4337310000000  0.5149740000000  0.4478260000000 1.0
C      1  0.4738760000000  0.4581600000000  0.4445190000000 1.0
C      1  0.4722640000000  0.4342490000000  0.5258050000000 1.0
C      1  0.4674210000000  0.5012710000000  0.5727780000000 1.0
C      1  0.4706070000000  0.5695290000000  0.5215350000000 1.0
C      1  0.4738630000000  0.5424800000000  0.4424630000000 1.0
C      1  0.5658870000000  0.5415180000000  0.4622800000000 1.0
C      1  0.5678070000000  0.4706320000000  0.4488540000000 1.0
C      1  0.5654070000000  0.4412650000000  0.4992240000000 1.0
C      1  0.5624190000000  0.4975680000000  0.5550050000000 1.0
C      1  0.5637140000000  0.5428320000000  0.5246370000000 1.0
C      1  0.5614550000000  0.5031290000000  0.5219610000000 1.0
C      1  0.5564430000000  0.5275870000000  0.4987830000000 1.0
C      1  0.5593860000000  0.5125890000000  0.4698030000000 1.0
C      1  0.5627480000000  0.4813470000000  0.4755680000000 1.0
C      1  0.5667050000000  0.4739090000000  0.5086600000000 1.0
C      1  0.5004930000000  0.5604920000000  0.4898450000000 1.0
C      1  0.5036910000000  0.5080390000000  0.4387290000000 1.0
C      1  0.4970080000000  0.4454320000000  0.4744990000000 1.0
C      1  0.5010950000000  0.4603240000000  0.5482110000000 1.0
C      1  0.4911110000000  0.5307750000000  0.5599080000000 1.0
C      1  0.4822020000000  0.4667520000000  0.4916920000000 1.0
C      1  0.4814580000000  0.4815560000000  0.5322900000000 1.0
C      1  0.4775880000000  0.5246440000000  0.5328650000000 1.0
C      1  0.4796530000000  0.5357760000000  0.4888370000000 1.0
C      1  0.4842060000000  0.4999920000000  0.4647860000000 1.0
C      1  0.4245430000000  0.4894740000000  0.5243680000000 1.0
C      1  0.4243840000000  0.5213300000000  0.5172960000000 1.0
C      1  0.4266260000000  0.5246190000000  0.4852580000000 1.0
C      1  0.4270890000000  0.4949250000000  0.4725220000000 1.0
C      1  0.4265720000000  0.4732120000000  0.4969210000000 1.0
C      1  0.5534590000000  0.4706080000000  0.5584800000000 1.0
C      1  0.5389200000000  0.5516270000000  0.5449810000000 1.0
C      1  0.5404630000000  0.5611830000000  0.4536770000000 1.0
C      1  0.5425240000000  0.4725250000000  0.4270030000000 1.0
C      1  0.5459240000000  0.4210390000000  0.4984020000000 1.0
C      1  0.5017680000000  0.5382410000000  0.4335740000000 1.0
C      1  0.5029860000000  0.4487530000000  0.4455980000000 1.0
C      1  0.5005600000000  0.4336390000000  0.5333230000000 1.0
C      1  0.4958470000000  0.5097100000000  0.5800370000000 1.0
C      1  0.4996900000000  0.5728410000000  0.5181710000000 1.0
END
