TITL C-2782233-7966-840 0.00193199465805396 125000 -1129.15071203518 0 0 195 (C1) n - 1
REM
REM in /home/nfs/bkarasulu/CARBON/AIRSS/Generating-Clusters/REBO/Higher-Symm/SD-CG/HFTN-CG
REM
REM
REM
REM
REM
REM ./C.cell (12c818d87b63d06a65506943cc24bca4)
REM
REM compiler GCC version 9.2.1 20190827 (Red Hat 9.2.1-1)
REM options -cpp -mtune=generic -march=x86-64 -g -O0 -fpre-include=/usr/include/finclude/math-vector-fortran.h
REM seed 1509204120 -696260252 -1827739834 1247865133 -1575518456 -1173654433 -608630297 -2086323642 -1887341155 -962195210 1315462655 -442751418 273807803 -73599311 -732133241 -2047380081 -514061050 -1832349281 -1819422209 560543448 64982477 875097888 -1895555734 522873106 1842460542 -1210188407 305920262 1169034149 -1754365459 -2001713175 535231805 -1577764028 -192454484
REM
CELL 1.54180   50.00000   50.00000   50.00000   90.00000   90.00000   90.00000
LATT -1
SFAC C  
C      1  0.6039560000000  0.5304270000000  0.4977830000000 1.0
C      1  0.5015880000000  0.6055660000000  0.4995450000000 1.0
C      1  0.3994390000000  0.5422390000000  0.4967800000000 1.0
C      1  0.4367200000000  0.4092620000000  0.4992770000000 1.0
C      1  0.5652150000000  0.4107260000000  0.4966540000000 1.0
C      1  0.4341380000000  0.4951040000000  0.5729980000000 1.0
C      1  0.4777840000000  0.4277230000000  0.5678330000000 1.0
C      1  0.5630790000000  0.4582310000000  0.5740650000000 1.0
C      1  0.5611300000000  0.5424610000000  0.5705040000000 1.0
C      1  0.4712390000000  0.5667860000000  0.5778650000000 1.0
C      1  0.4773490000000  0.4770710000000  0.3940570000000 1.0
C      1  0.5093730000000  0.4659200000000  0.3966030000000 1.0
C      1  0.5298470000000  0.4930870000000  0.3957290000000 1.0
C      1  0.5080090000000  0.5336970000000  0.3968830000000 1.0
C      1  0.4747560000000  0.5265470000000  0.3942490000000 1.0
C      1  0.4473830000000  0.4376700000000  0.5559510000000 1.0
C      1  0.5476930000000  0.4292620000000  0.5643310000000 1.0
C      1  0.5820900000000  0.5168600000000  0.5611870000000 1.0
C      1  0.5156350000000  0.5868980000000  0.5645160000000 1.0
C      1  0.4282980000000  0.5412240000000  0.5564390000000 1.0
C      1  0.4809480000000  0.5732400000000  0.4890180000000 1.0
C      1  0.4258240000000  0.5149160000000  0.4847330000000 1.0
C      1  0.4673620000000  0.4313330000000  0.4871940000000 1.0
C      1  0.5528810000000  0.4465440000000  0.4844160000000 1.0
C      1  0.5655150000000  0.5315550000000  0.4877650000000 1.0
C      1  0.5074430000000  0.4446190000000  0.5115030000000 1.0
C      1  0.5587440000000  0.4853000000000  0.5162050000000 1.0
C      1  0.5264070000000  0.5446550000000  0.5124740000000 1.0
C      1  0.4462160000000  0.5563170000000  0.5053310000000 1.0
C      1  0.4505410000000  0.4881040000000  0.5083390000000 1.0
C      1  0.5426730000000  0.5833630000000  0.5511680000000 1.0
C      1  0.4301590000000  0.5691000000000  0.5532520000000 1.0
C      1  0.4234610000000  0.4573570000000  0.5475260000000 1.0
C      1  0.5233810000000  0.4107460000000  0.5518270000000 1.0
C      1  0.5953080000000  0.4901770000000  0.5527760000000 1.0
C      1  0.4651370000000  0.4598320000000  0.5377430000000 1.0
C      1  0.5325050000000  0.4482850000000  0.5422710000000 1.0
C      1  0.5536350000000  0.5136600000000  0.5439180000000 1.0
C      1  0.5110990000000  0.5595510000000  0.5460170000000 1.0
C      1  0.4505520000000  0.5224440000000  0.5384550000000 1.0
C      1  0.4477110000000  0.5818250000000  0.5719760000000 1.0
C      1  0.4151940000000  0.4748560000000  0.5673490000000 1.0
C      1  0.5013850000000  0.4067750000000  0.5684410000000 1.0
C      1  0.5922090000000  0.4686240000000  0.5703390000000 1.0
C      1  0.5633890000000  0.5726140000000  0.5658330000000 1.0
C      1  0.4626740000000  0.4068750000000  0.5184310000000 1.0
C      1  0.5762160000000  0.4319590000000  0.5162640000000 1.0
C      1  0.5873930000000  0.5480670000000  0.5168630000000 1.0
C      1  0.4781840000000  0.6004680000000  0.5181780000000 1.0
C      1  0.4021320000000  0.5189230000000  0.5165430000000 1.0
C      1  0.4325910000000  0.5361960000000  0.4201300000000 1.0
C      1  0.4473190000000  0.4521580000000  0.4282630000000 1.0
C      1  0.5342490000000  0.4303280000000  0.4237350000000 1.0
C      1  0.5690510000000  0.5092480000000  0.4267080000000 1.0
C      1  0.5106490000000  0.5735600000000  0.4222220000000 1.0
C      1  0.5202240000000  0.5165280000000  0.4966190000000 1.0
C      1  0.4727510000000  0.5387740000000  0.5075880000000 1.0
C      1  0.4703910000000  0.5106020000000  0.4940190000000 1.0
C      1  0.4949390000000  0.4704090000000  0.4953290000000 1.0
C      1  0.5315430000000  0.4872590000000  0.5003140000000 1.0
C      1  0.4314960000000  0.4818240000000  0.4807910000000 1.0
C      1  0.5009670000000  0.4277880000000  0.4835780000000 1.0
C      1  0.5686570000000  0.4766750000000  0.4847040000000 1.0
C      1  0.5402080000000  0.5539210000000  0.4835080000000 1.0
C      1  0.4491220000000  0.5701420000000  0.4767300000000 1.0
C      1  0.4767340000000  0.4581170000000  0.4742740000000 1.0
C      1  0.5303080000000  0.4688860000000  0.4770440000000 1.0
C      1  0.5429440000000  0.5152710000000  0.4742550000000 1.0
C      1  0.4868910000000  0.5425940000000  0.4767490000000 1.0
C      1  0.4528390000000  0.5136660000000  0.4694940000000 1.0
C      1  0.4333530000000  0.5285780000000  0.5129280000000 1.0
C      1  0.4549760000000  0.4395700000000  0.5167640000000 1.0
C      1  0.5450270000000  0.4392900000000  0.5155820000000 1.0
C      1  0.5705750000000  0.5215230000000  0.5183580000000 1.0
C      1  0.4923410000000  0.5712770000000  0.5200560000000 1.0
C      1  0.4406330000000  0.6074980000000  0.4881170000000 1.0
C      1  0.3770410000000  0.4798380000000  0.5007830000000 1.0
C      1  0.4915700000000  0.3811510000000  0.4887510000000 1.0
C      1  0.6105220000000  0.4520100000000  0.4874210000000 1.0
C      1  0.5767460000000  0.5856150000000  0.4858770000000 1.0
C      1  0.5141830000000  0.4006410000000  0.4841330000000 1.0
C      1  0.5988270000000  0.4796900000000  0.4846170000000 1.0
C      1  0.5467560000000  0.5833310000000  0.4834800000000 1.0
C      1  0.4209750000000  0.5854940000000  0.4796520000000 1.0
C      1  0.4134680000000  0.4579060000000  0.4827040000000 1.0
C      1  0.4349640000000  0.5228510000000  0.5787270000000 1.0
C      1  0.4565790000000  0.4434540000000  0.5874820000000 1.0
C      1  0.5417010000000  0.4425370000000  0.5938690000000 1.0
C      1  0.5717800000000  0.5202970000000  0.5924560000000 1.0
C      1  0.4989310000000  0.5705370000000  0.5842320000000 1.0
C      1  0.4219980000000  0.4939690000000  0.4191170000000 1.0
C      1  0.4840470000000  0.4172970000000  0.4237640000000 1.0
C      1  0.5731270000000  0.4595990000000  0.4219240000000 1.0
C      1  0.5562650000000  0.5557900000000  0.4277710000000 1.0
C      1  0.4623030000000  0.5799960000000  0.4204940000000 1.0
C      1  0.5477140000000  0.4024380000000  0.4266750000000 1.0
C      1  0.6000580000000  0.5117140000000  0.4271120000000 1.0
C      1  0.5169990000000  0.6038360000000  0.4274540000000 1.0
C      1  0.4066000000000  0.5529180000000  0.4232370000000 1.0
C      1  0.4240380000000  0.4314280000000  0.4307100000000 1.0
C      1  0.5311200000000  0.4639860000000  0.4227210000000 1.0
C      1  0.5367140000000  0.5166640000000  0.4188490000000 1.0
C      1  0.4920100000000  0.5456790000000  0.4244560000000 1.0
C      1  0.4572300000000  0.5126080000000  0.4176470000000 1.0
C      1  0.4794710000000  0.4577220000000  0.4212520000000 1.0
C      1  0.5045080000000  0.4362210000000  0.4129260000000 1.0
C      1  0.5572830000000  0.4831350000000  0.4134240000000 1.0
C      1  0.5305470000000  0.5495370000000  0.4147290000000 1.0
C      1  0.4606030000000  0.5517520000000  0.4123680000000 1.0
C      1  0.4486780000000  0.4810860000000  0.4120010000000 1.0
C      1  0.4665790000000  0.4859450000000  0.6133880000000 1.0
C      1  0.5045840000000  0.4666280000000  0.6135340000000 1.0
C      1  0.5307500000000  0.5034440000000  0.6131930000000 1.0
C      1  0.5120980000000  0.5286400000000  0.6121870000000 1.0
C      1  0.4700710000000  0.5169150000000  0.6142410000000 1.0
C      1  0.5347570000000  0.4998570000000  0.4475160000000 1.0
C      1  0.5018720000000  0.5319650000000  0.4509680000000 1.0
C      1  0.4623220000000  0.5294070000000  0.4456390000000 1.0
C      1  0.4731340000000  0.4754720000000  0.4480370000000 1.0
C      1  0.5145920000000  0.4654640000000  0.4492740000000 1.0
C      1  0.4579300000000  0.6193580000000  0.4703860000000 1.0
C      1  0.3863630000000  0.4623510000000  0.4814500000000 1.0
C      1  0.4695660000000  0.3784650000000  0.4723730000000 1.0
C      1  0.6060710000000  0.4310670000000  0.4701850000000 1.0
C      1  0.5956260000000  0.5755040000000  0.4687510000000 1.0
C      1  0.4847560000000  0.5834270000000  0.4409320000000 1.0
C      1  0.4226750000000  0.5133750000000  0.4434080000000 1.0
C      1  0.4651540000000  0.4286360000000  0.4445790000000 1.0
C      1  0.5588480000000  0.4431090000000  0.4425800000000 1.0
C      1  0.5652190000000  0.5345000000000  0.4472670000000 1.0
C      1  0.5905590000000  0.4828500000000  0.5235380000000 1.0
C      1  0.5418420000000  0.5736460000000  0.5218370000000 1.0
C      1  0.4316230000000  0.5776870000000  0.5249630000000 1.0
C      1  0.4233470000000  0.4714110000000  0.5189710000000 1.0
C      1  0.5154800000000  0.4131950000000  0.5219700000000 1.0
C      1  0.4885230000000  0.3969970000000  0.5145370000000 1.0
C      1  0.5957310000000  0.4526690000000  0.5139200000000 1.0
C      1  0.5720440000000  0.5715140000000  0.5120990000000 1.0
C      1  0.4502260000000  0.6011000000000  0.5145650000000 1.0
C      1  0.3979940000000  0.4911180000000  0.5165570000000 1.0
C      1  0.4848060000000  0.5428500000000  0.5362510000000 1.0
C      1  0.4717720000000  0.4987410000000  0.5321900000000 1.0
C      1  0.4956390000000  0.4615700000000  0.5355060000000 1.0
C      1  0.5360260000000  0.4784600000000  0.5390200000000 1.0
C      1  0.5239300000000  0.5231170000000  0.5358450000000 1.0
C      1  0.5277620000000  0.5970280000000  0.5030460000000 1.0
C      1  0.4084890000000  0.5688030000000  0.5015790000000 1.0
C      1  0.4234860000000  0.4396320000000  0.5060980000000 1.0
C      1  0.5390920000000  0.4016110000000  0.5015650000000 1.0
C      1  0.6066350000000  0.5029180000000  0.5026750000000 1.0
C      1  0.5305470000000  0.5387410000000  0.5648000000000 1.0
C      1  0.4676920000000  0.5390420000000  0.5624290000000 1.0
C      1  0.4614470000000  0.4844160000000  0.5609760000000 1.0
C      1  0.5051770000000  0.4462370000000  0.5630450000000 1.0
C      1  0.5505740000000  0.4879370000000  0.5665100000000 1.0
C      1  0.5078660000000  0.6153220000000  0.4477950000000 1.0
C      1  0.3928470000000  0.5493900000000  0.4441820000000 1.0
C      1  0.4261340000000  0.4121310000000  0.4466780000000 1.0
C      1  0.5646800000000  0.3993790000000  0.4451080000000 1.0
C      1  0.6105380000000  0.5257360000000  0.4453320000000 1.0
C      1  0.4954830000000  0.4410100000000  0.4537920000000 1.0
C      1  0.5537850000000  0.4728210000000  0.4543390000000 1.0
C      1  0.5319740000000  0.5390620000000  0.4547170000000 1.0
C      1  0.4684860000000  0.5590300000000  0.4538820000000 1.0
C      1  0.4452120000000  0.4885220000000  0.4511700000000 1.0
C      1  0.4036710000000  0.5298570000000  0.4664460000000 1.0
C      1  0.4491520000000  0.4105000000000  0.4686190000000 1.0
C      1  0.5690670000000  0.4223420000000  0.4667710000000 1.0
C      1  0.5919570000000  0.5374990000000  0.4681610000000 1.0
C      1  0.4908070000000  0.5999240000000  0.4700340000000 1.0
C      1  0.5131050000000  0.5459980000000  0.5905720000000 1.0
C      1  0.4594880000000  0.5315580000000  0.5939060000000 1.0
C      1  0.4609880000000  0.4714270000000  0.5907680000000 1.0
C      1  0.5145050000000  0.4522080000000  0.5929940000000 1.0
C      1  0.5513770000000  0.4997350000000  0.5959140000000 1.0
C      1  0.4986010000000  0.5023680000000  0.3844800000000 1.0
C      1  0.5007320000000  0.5014330000000  0.3267220000000 1.0
C      1  0.4997590000000  0.5018600000000  0.3530910000000 1.0
C      1  0.5007240000000  0.4986920000000  0.7894390000000 1.0
C      1  0.4970320000000  0.4987140000000  0.5910870000000 1.0
C      1  0.5003060000000  0.4986320000000  0.7632350000000 1.0
C      1  0.5026950000000  0.5005710000000  0.2735030000000 1.0
C      1  0.4998810000000  0.4985700000000  0.7366080000000 1.0
C      1  0.4986090000000  0.4983850000000  0.6569660000000 1.0
C      1  0.4981090000000  0.4983130000000  0.6256570000000 1.0
C      1  0.5017140000000  0.5010020000000  0.3001130000000 1.0
C      1  0.5006220000000  0.4973490000000  0.5677110000000 1.0
C      1  0.4994550000000  0.4985080000000  0.7099810000000 1.0
C      1  0.5056480000000  0.4943070000000  0.5359640000000 1.0
C      1  0.4990300000000  0.4984470000000  0.6833530000000 1.0
C      1  0.5046430000000  0.4997160000000  0.2207080000000 1.0
C      1  0.4958530000000  0.5019640000000  0.4192330000000 1.0
C      1  0.5000160000000  0.4973780000000  0.4513420000000 1.0
C      1  0.5036770000000  0.5001400000000  0.2468940000000 1.0
C      1  0.4965700000000  0.4993760000000  0.4854430000000 1.0
END
