TITL C-2782238-9940-1428 0.00261382660730137 125000 -458.292062966371 0 0 79 (C1) n - 1
REM
REM in /home/nfs/bkarasulu/CARBON/AIRSS/Generating-Clusters/REBO/Higher-Symm/SD-CG/HFTN-CG
REM
REM
REM
REM
REM
REM ./C.cell (12c818d87b63d06a65506943cc24bca4)
REM
REM compiler GCC version 9.2.1 20190827 (Red Hat 9.2.1-1)
REM options -cpp -mtune=generic -march=x86-64 -g -O0 -fpre-include=/usr/include/finclude/math-vector-fortran.h
REM seed 272059826 -1065564199 -1704994235 -605217820 -1145272009 677852887 1122750375 894922294 -2028550204 1549340807 203633291 1971837690 -961592736 855096188 1794124681 2056986439 -203445939 -571139873 -1797213521 -439921660 1500927595 -1223451532 1805152774 -1098726113 -1961856687 1076352916 -935143816 1753233866 2120279566 1147523348 -1398840636 604935495 624753990
REM
CELL 1.54180   50.00000   50.00000   50.00000   90.00000   90.00000   90.00000
LATT -1
SFAC C  
C      1  0.4313270000000  0.5658160000000  0.4948790000000 1.0
C      1  0.4614270000000  0.5661070000000  0.4475140000000 1.0
C      1  0.5178530000000  0.5641490000000  0.4376380000000 1.0
C      1  0.5605650000000  0.5657480000000  0.4754480000000 1.0
C      1  0.5533920000000  0.5606640000000  0.5315350000000 1.0
C      1  0.5095670000000  0.5635200000000  0.5647120000000 1.0
C      1  0.4562700000000  0.5669340000000  0.5454940000000 1.0
C      1  0.4884530000000  0.5511780000000  0.4396830000000 1.0
C      1  0.5429390000000  0.5510810000000  0.4532590000000 1.0
C      1  0.5658220000000  0.5504910000000  0.5032960000000 1.0
C      1  0.5355880000000  0.5478050000000  0.5560640000000 1.0
C      1  0.4822190000000  0.5508200000000  0.5548950000000 1.0
C      1  0.4392350000000  0.5525830000000  0.5226190000000 1.0
C      1  0.4436710000000  0.5515970000000  0.4694440000000 1.0
C      1  0.4228330000000  0.4909130000000  0.5303500000000 1.0
C      1  0.4311980000000  0.4902780000000  0.4579170000000 1.0
C      1  0.4868880000000  0.4901520000000  0.4210030000000 1.0
C      1  0.5578600000000  0.4934720000000  0.4403610000000 1.0
C      1  0.5843150000000  0.4941700000000  0.5101900000000 1.0
C      1  0.5455960000000  0.4934830000000  0.5703470000000 1.0
C      1  0.4696620000000  0.4929950000000  0.5761730000000 1.0
C      1  0.5127740000000  0.5076690000000  0.4245640000000 1.0
C      1  0.5735230000000  0.5089650000000  0.4639980000000 1.0
C      1  0.5759410000000  0.5116040000000  0.5360250000000 1.0
C      1  0.5181480000000  0.5060150000000  0.5815390000000 1.0
C      1  0.4510400000000  0.5093930000000  0.5550070000000 1.0
C      1  0.4265570000000  0.5059600000000  0.5029420000000 1.0
C      1  0.4560210000000  0.5072790000000  0.4444420000000 1.0
C      1  0.4932660000000  0.5416760000000  0.5251550000000 1.0
C      1  0.4642680000000  0.5336200000000  0.5144100000000 1.0
C      1  0.4635270000000  0.5301400000000  0.4836750000000 1.0
C      1  0.4926640000000  0.5337140000000  0.4664360000000 1.0
C      1  0.5245690000000  0.5301340000000  0.4704980000000 1.0
C      1  0.5400330000000  0.5306090000000  0.4994210000000 1.0
C      1  0.5257440000000  0.5319770000000  0.5282700000000 1.0
C      1  0.5869810000000  0.5287340000000  0.5107420000000 1.0
C      1  0.5422120000000  0.5269230000000  0.5771510000000 1.0
C      1  0.4717240000000  0.5270300000000  0.5717340000000 1.0
C      1  0.4232450000000  0.5249980000000  0.5278720000000 1.0
C      1  0.4325090000000  0.5245150000000  0.4575440000000 1.0
C      1  0.4863080000000  0.5243660000000  0.4219120000000 1.0
C      1  0.5603000000000  0.5279010000000  0.4410480000000 1.0
C      1  0.4434100000000  0.4634960000000  0.4691530000000 1.0
C      1  0.4878940000000  0.4663420000000  0.4381160000000 1.0
C      1  0.5437140000000  0.4674830000000  0.4527530000000 1.0
C      1  0.5649620000000  0.4683850000000  0.5064700000000 1.0
C      1  0.5356070000000  0.4671370000000  0.5554150000000 1.0
C      1  0.4776860000000  0.4643460000000  0.5637390000000 1.0
C      1  0.4359490000000  0.4647810000000  0.5274180000000 1.0
C      1  0.5067890000000  0.4568460000000  0.5572840000000 1.0
C      1  0.4597440000000  0.4544160000000  0.5424580000000 1.0
C      1  0.4383310000000  0.4563500000000  0.4987290000000 1.0
C      1  0.4674020000000  0.4544480000000  0.4564210000000 1.0
C      1  0.5155100000000  0.4576700000000  0.4479050000000 1.0
C      1  0.5520970000000  0.4592460000000  0.4806970000000 1.0
C      1  0.5476090000000  0.4589190000000  0.5293230000000 1.0
C      1  0.5182220000000  0.4892020000000  0.4745000000000 1.0
C      1  0.5337040000000  0.4913060000000  0.4968990000000 1.0
C      1  0.5264940000000  0.4924070000000  0.5236650000000 1.0
C      1  0.5014470000000  0.4904210000000  0.5362900000000 1.0
C      1  0.4778050000000  0.4879340000000  0.5213470000000 1.0
C      1  0.4720530000000  0.4769910000000  0.4937390000000 1.0
C      1  0.4912620000000  0.4860700000000  0.4727000000000 1.0
C      1  0.4689290000000  0.4452010000000  0.4953070000000 1.0
C      1  0.4817620000000  0.4299580000000  0.4718240000000 1.0
C      1  0.5111020000000  0.4374270000000  0.4687550000000 1.0
C      1  0.5307420000000  0.4398600000000  0.4888450000000 1.0
C      1  0.5277500000000  0.4402530000000  0.5171830000000 1.0
C      1  0.5038990000000  0.4393320000000  0.5329080000000 1.0
C      1  0.4768680000000  0.4388760000000  0.5242250000000 1.0
C      1  0.5469740000000  0.5087440000000  0.5420850000000 1.0
C      1  0.4983980000000  0.4983870000000  0.5637690000000 1.0
C      1  0.4590360000000  0.5074270000000  0.5282630000000 1.0
C      1  0.4502200000000  0.5002250000000  0.4838910000000 1.0
C      1  0.4805900000000  0.5061070000000  0.4569540000000 1.0
C      1  0.5290650000000  0.5044680000000  0.4491310000000 1.0
C      1  0.5615380000000  0.5053370000000  0.4908840000000 1.0
C      1  0.5068880000000  0.5493060000000  0.4981480000000 1.0
C      1  0.4746740000000  0.4035210000000  0.4673440000000 1.0
END
