TITL C-2782232-2968-1285 -0.0032370793315126 125000 -492.270674255613 0 0 84 (C1) n - 1
REM
REM in /home/nfs/bkarasulu/CARBON/AIRSS/Generating-Clusters/REBO/Higher-Symm/SD-CG/HFTN-CG
REM
REM
REM
REM
REM
REM ./C.cell (12c818d87b63d06a65506943cc24bca4)
REM
REM compiler GCC version 9.2.1 20190827 (Red Hat 9.2.1-1)
REM options -cpp -mtune=generic -march=x86-64 -g -O0 -fpre-include=/usr/include/finclude/math-vector-fortran.h
REM seed -125962322 140379111 -1256853805 1063808834 655522191 1578267199 1938209034 -1987447293 234356180 -1608798993 -1128978430 -703860374 -305147216 -656340048 -405096755 1253003149 894811729 -1035999806 -2100871777 -1048902288 -1572152816 602127855 159130336 824233909 521502544 -1178425507 -139326013 1495824994 -593737596 215688370 632091315 -231004293 -146554722
REM
CELL 1.54180   50.00000   50.00000   50.00000   90.00000   90.00000   90.00000
LATT -1
SFAC C  
C      1  0.5220380000000  0.4296900000000  0.5220230000000 1.0
C      1  0.4707340000000  0.4939250000000  0.4878220000000 1.0
C      1  0.4934200000000  0.5571250000000  0.4449630000000 1.0
C      1  0.5349480000000  0.4573620000000  0.4634980000000 1.0
C      1  0.4375490000000  0.5120180000000  0.5289850000000 1.0
C      1  0.4626590000000  0.5640800000000  0.5257900000000 1.0
C      1  0.5637490000000  0.4401750000000  0.4984600000000 1.0
C      1  0.4401210000000  0.5304720000000  0.5522000000000 1.0
C      1  0.5005470000000  0.4751470000000  0.5696790000000 1.0
C      1  0.5295620000000  0.4967410000000  0.4678940000000 1.0
C      1  0.5083670000000  0.4615870000000  0.5418980000000 1.0
C      1  0.4919440000000  0.4705890000000  0.4882900000000 1.0
C      1  0.5676940000000  0.4733790000000  0.4484580000000 1.0
C      1  0.5143930000000  0.5762310000000  0.5154510000000 1.0
C      1  0.5772190000000  0.5187320000000  0.5278080000000 1.0
C      1  0.4730510000000  0.4663340000000  0.5755540000000 1.0
C      1  0.5156140000000  0.5213130000000  0.5399250000000 1.0
C      1  0.5662210000000  0.4555740000000  0.5242310000000 1.0
C      1  0.5906780000000  0.5039370000000  0.5015010000000 1.0
C      1  0.4953000000000  0.4413950000000  0.4813100000000 1.0
C      1  0.4541840000000  0.4850680000000  0.5663810000000 1.0
C      1  0.4611990000000  0.4452420000000  0.5280310000000 1.0
C      1  0.4587340000000  0.5081390000000  0.4402600000000 1.0
C      1  0.4317260000000  0.4512510000000  0.5264680000000 1.0
C      1  0.5268960000000  0.4993360000000  0.4280010000000 1.0
C      1  0.4818100000000  0.4439150000000  0.5532820000000 1.0
C      1  0.5503760000000  0.5181570000000  0.4416420000000 1.0
C      1  0.4940590000000  0.5665040000000  0.5369360000000 1.0
C      1  0.5074420000000  0.5247970000000  0.4302260000000 1.0
C      1  0.5733910000000  0.4552490000000  0.4735380000000 1.0
C      1  0.4152170000000  0.4919510000000  0.4836860000000 1.0
C      1  0.5446850000000  0.5634720000000  0.4720170000000 1.0
C      1  0.5051720000000  0.4723580000000  0.4287210000000 1.0
C      1  0.4398640000000  0.4881830000000  0.4527250000000 1.0
C      1  0.5031980000000  0.5507380000000  0.4980020000000 1.0
C      1  0.5369370000000  0.4517460000000  0.5400470000000 1.0
C      1  0.5041120000000  0.5305940000000  0.4636690000000 1.0
C      1  0.5220610000000  0.4356540000000  0.4753070000000 1.0
C      1  0.5714080000000  0.5017080000000  0.4529570000000 1.0
C      1  0.5387980000000  0.5470610000000  0.5393620000000 1.0
C      1  0.5265700000000  0.5314100000000  0.4873400000000 1.0
C      1  0.4457070000000  0.4862770000000  0.4941890000000 1.0
C      1  0.4223450000000  0.4421230000000  0.5025620000000 1.0
C      1  0.4219450000000  0.5160280000000  0.5059520000000 1.0
C      1  0.4694310000000  0.5531020000000  0.4767090000000 1.0
C      1  0.4858550000000  0.5176780000000  0.5346260000000 1.0
C      1  0.4547170000000  0.5381240000000  0.4540090000000 1.0
C      1  0.4651170000000  0.4921080000000  0.5286390000000 1.0
C      1  0.5874260000000  0.5077150000000  0.4754750000000 1.0
C      1  0.4489850000000  0.5595080000000  0.4975220000000 1.0
C      1  0.5606970000000  0.5443800000000  0.5222570000000 1.0
C      1  0.4845460000000  0.4687180000000  0.5196410000000 1.0
C      1  0.5512730000000  0.4776640000000  0.4846710000000 1.0
C      1  0.4271650000000  0.5415140000000  0.4915740000000 1.0
C      1  0.5239390000000  0.5812240000000  0.4831910000000 1.0
C      1  0.5373870000000  0.4269460000000  0.4977770000000 1.0
C      1  0.4911380000000  0.4294480000000  0.5233720000000 1.0
C      1  0.4306740000000  0.5178620000000  0.4670220000000 1.0
C      1  0.5451990000000  0.5082340000000  0.5292930000000 1.0
C      1  0.5337820000000  0.5327660000000  0.5670590000000 1.0
C      1  0.4465690000000  0.4385780000000  0.4805800000000 1.0
C      1  0.4387270000000  0.4750550000000  0.5423690000000 1.0
C      1  0.4428860000000  0.5571650000000  0.5480300000000 1.0
C      1  0.4791160000000  0.5382330000000  0.5129330000000 1.0
C      1  0.4797100000000  0.5218310000000  0.4835710000000 1.0
C      1  0.5116240000000  0.5006110000000  0.5738770000000 1.0
C      1  0.4987630000000  0.5505980000000  0.5611710000000 1.0
C      1  0.5030850000000  0.4886070000000  0.4651350000000 1.0
C      1  0.4807530000000  0.4585540000000  0.4405860000000 1.0
C      1  0.4561790000000  0.4585660000000  0.4545860000000 1.0
C      1  0.5395960000000  0.5038630000000  0.4999800000000 1.0
C      1  0.4253410000000  0.4628880000000  0.4691630000000 1.0
C      1  0.4750600000000  0.5349160000000  0.4270160000000 1.0
C      1  0.5568260000000  0.4762330000000  0.5501430000000 1.0
C      1  0.4726600000000  0.4274290000000  0.4945490000000 1.0
C      1  0.5548270000000  0.5476650000000  0.4954760000000 1.0
C      1  0.4937090000000  0.5238040000000  0.5731400000000 1.0
C      1  0.5460330000000  0.5457790000000  0.4487880000000 1.0
C      1  0.4885650000000  0.4993400000000  0.4392750000000 1.0
C      1  0.5803520000000  0.4852920000000  0.5280010000000 1.0
C      1  0.5379100000000  0.4684650000000  0.4342810000000 1.0
C      1  0.4649280000000  0.5138320000000  0.5620790000000 1.0
C      1  0.4945070000000  0.5724110000000  0.4730350000000 1.0
C      1  0.5412970000000  0.5005250000000  0.5623640000000 1.0
END
