TITL C-2782232-2968-671 -0.0073269917685008 125000 -799.387659403271 0 0 140 (C1) n - 1
REM
REM in /home/nfs/bkarasulu/CARBON/AIRSS/Generating-Clusters/REBO/Higher-Symm/SD-CG/HFTN-CG
REM
REM
REM
REM
REM
REM ./C.cell (12c818d87b63d06a65506943cc24bca4)
REM
REM compiler GCC version 9.2.1 20190827 (Red Hat 9.2.1-1)
REM options -cpp -mtune=generic -march=x86-64 -g -O0 -fpre-include=/usr/include/finclude/math-vector-fortran.h
REM seed 1787502742 2032956558 1651107263 -1484305087 1205692077 -818284557 338583969 1345107933 326341403 -102061816 274170558 -524570385 -119849921 -468482269 1520186283 -1986905496 1211632575 -484192205 2006645759 -1590508547 -303405788 2017354367 -329902159 1165759165 -403739615 2078153645 -721238149 -709975250 -1661748747 -148870221 -941109442 -189590666 -1251162787
REM
CELL 1.54180   50.00000   50.00000   50.00000   90.00000   90.00000   90.00000
LATT -1
SFAC C  
C      1  0.5360570000000  0.5875050000000  0.4953790000000 1.0
C      1  0.4403970000000  0.5762310000000  0.5052760000000 1.0
C      1  0.4081780000000  0.4895050000000  0.4966980000000 1.0
C      1  0.4651070000000  0.4106960000000  0.5078170000000 1.0
C      1  0.5613870000000  0.4274380000000  0.4942000000000 1.0
C      1  0.5938330000000  0.5144870000000  0.5069930000000 1.0
C      1  0.5336080000000  0.4420470000000  0.5951520000000 1.0
C      1  0.5682970000000  0.5045020000000  0.4008720000000 1.0
C      1  0.5287410000000  0.5560370000000  0.5992340000000 1.0
C      1  0.4656470000000  0.5508390000000  0.4031730000000 1.0
C      1  0.4348830000000  0.4958860000000  0.5971970000000 1.0
C      1  0.4746210000000  0.4416460000000  0.4011340000000 1.0
C      1  0.4177770000000  0.4573560000000  0.5040390000000 1.0
C      1  0.4972420000000  0.4116670000000  0.5006650000000 1.0
C      1  0.5811690000000  0.4525880000000  0.5057920000000 1.0
C      1  0.5893990000000  0.5473570000000  0.4983830000000 1.0
C      1  0.5032990000000  0.5932520000000  0.5044320000000 1.0
C      1  0.4170830000000  0.5526470000000  0.4961740000000 1.0
C      1  0.5027380000000  0.4658520000000  0.4612400000000 1.0
C      1  0.5119960000000  0.4942510000000  0.5437370000000 1.0
C      1  0.5159170000000  0.5092740000000  0.4553210000000 1.0
C      1  0.5055130000000  0.5345930000000  0.5388520000000 1.0
C      1  0.4708550000000  0.5106040000000  0.4655470000000 1.0
C      1  0.4647710000000  0.4853450000000  0.5337690000000 1.0
C      1  0.4072190000000  0.4748140000000  0.4687440000000 1.0
C      1  0.4614630000000  0.4052510000000  0.5346590000000 1.0
C      1  0.5666880000000  0.4259860000000  0.4648050000000 1.0
C      1  0.5992450000000  0.5138930000000  0.5361490000000 1.0
C      1  0.5313070000000  0.5944460000000  0.4661250000000 1.0
C      1  0.4355810000000  0.5765020000000  0.5349960000000 1.0
C      1  0.5836360000000  0.4779640000000  0.5439630000000 1.0
C      1  0.5600470000000  0.5729610000000  0.4487250000000 1.0
C      1  0.4696070000000  0.5912970000000  0.5496260000000 1.0
C      1  0.4120370000000  0.5120580000000  0.4552850000000 1.0
C      1  0.4354920000000  0.4318400000000  0.5493070000000 1.0
C      1  0.5340990000000  0.4098950000000  0.4482530000000 1.0
C      1  0.5030610000000  0.5391180000000  0.4553480000000 1.0
C      1  0.4760390000000  0.5322710000000  0.5452610000000 1.0
C      1  0.4639770000000  0.4852480000000  0.4560480000000 1.0
C      1  0.4860430000000  0.4602040000000  0.5427830000000 1.0
C      1  0.5278940000000  0.4717920000000  0.4494480000000 1.0
C      1  0.5387930000000  0.5125520000000  0.5406420000000 1.0
C      1  0.5248150000000  0.5496380000000  0.4893780000000 1.0
C      1  0.4686760000000  0.5483180000000  0.5079850000000 1.0
C      1  0.4487040000000  0.4991760000000  0.4968280000000 1.0
C      1  0.4786810000000  0.4477700000000  0.5056040000000 1.0
C      1  0.5326310000000  0.4532100000000  0.4844250000000 1.0
C      1  0.5509940000000  0.5040970000000  0.5007850000000 1.0
C      1  0.5437730000000  0.4899560000000  0.3947290000000 1.0
C      1  0.5312680000000  0.5272140000000  0.6020780000000 1.0
C      1  0.4914750000000  0.5385640000000  0.3979040000000 1.0
C      1  0.4584870000000  0.5123500000000  0.6006830000000 1.0
C      1  0.4722580000000  0.4701180000000  0.3970290000000 1.0
C      1  0.5088360000000  0.4561360000000  0.6014310000000 1.0
C      1  0.4736590000000  0.4600500000000  0.4748410000000 1.0
C      1  0.5175240000000  0.4617340000000  0.5354690000000 1.0
C      1  0.5420390000000  0.4927220000000  0.4699400000000 1.0
C      1  0.5327550000000  0.5364970000000  0.5199980000000 1.0
C      1  0.4776120000000  0.5424450000000  0.4754860000000 1.0
C      1  0.4584200000000  0.5152780000000  0.5284040000000 1.0
C      1  0.5893440000000  0.4828310000000  0.4940610000000 1.0
C      1  0.5626250000000  0.5676650000000  0.5041500000000 1.0
C      1  0.4718440000000  0.5856530000000  0.4938850000000 1.0
C      1  0.4095270000000  0.5216460000000  0.5081120000000 1.0
C      1  0.4413610000000  0.4353130000000  0.4951710000000 1.0
C      1  0.5305970000000  0.4165440000000  0.5055130000000 1.0
C      1  0.4746200000000  0.5694740000000  0.5299390000000 1.0
C      1  0.4326710000000  0.5138810000000  0.4766080000000 1.0
C      1  0.4570590000000  0.4463540000000  0.5301410000000 1.0
C      1  0.5273190000000  0.4320790000000  0.4679500000000 1.0
C      1  0.5580040000000  0.4887430000000  0.5283540000000 1.0
C      1  0.5464480000000  0.5565220000000  0.4693990000000 1.0
C      1  0.4948870000000  0.5302360000000  0.5092610000000 1.0
C      1  0.4797430000000  0.5079940000000  0.4956350000000 1.0
C      1  0.4824310000000  0.4800490000000  0.5083300000000 1.0
C      1  0.5087730000000  0.4710060000000  0.4934210000000 1.0
C      1  0.5192340000000  0.4955590000000  0.5103590000000 1.0
C      1  0.5169560000000  0.5189200000000  0.4867380000000 1.0
C      1  0.4194860000000  0.4742740000000  0.4444720000000 1.0
C      1  0.4707500000000  0.4154210000000  0.5584270000000 1.0
C      1  0.5611970000000  0.4384380000000  0.4412450000000 1.0
C      1  0.5851230000000  0.5149410000000  0.5591350000000 1.0
C      1  0.5214290000000  0.5822290000000  0.4441480000000 1.0
C      1  0.4420180000000  0.5636310000000  0.5580340000000 1.0
C      1  0.5625710000000  0.5259420000000  0.4236030000000 1.0
C      1  0.5051190000000  0.5620580000000  0.5786190000000 1.0
C      1  0.4510740000000  0.5348350000000  0.4263820000000 1.0
C      1  0.4410770000000  0.4721640000000  0.5769850000000 1.0
C      1  0.4965930000000  0.4361810000000  0.4230290000000 1.0
C      1  0.5503310000000  0.4592220000000  0.5741580000000 1.0
C      1  0.5601260000000  0.4686010000000  0.4853590000000 1.0
C      1  0.5593020000000  0.5338700000000  0.5015420000000 1.0
C      1  0.4986400000000  0.5652300000000  0.4877620000000 1.0
C      1  0.4397970000000  0.5348540000000  0.5121160000000 1.0
C      1  0.4471290000000  0.4689940000000  0.4933040000000 1.0
C      1  0.5078500000000  0.4387280000000  0.5165680000000 1.0
C      1  0.5026800000000  0.4679050000000  0.4119800000000 1.0
C      1  0.5276810000000  0.4807370000000  0.5876060000000 1.0
C      1  0.5321680000000  0.5164040000000  0.4128130000000 1.0
C      1  0.5018730000000  0.5291350000000  0.5872440000000 1.0
C      1  0.4759280000000  0.5142920000000  0.4154030000000 1.0
C      1  0.4716100000000  0.4846840000000  0.5863700000000 1.0
C      1  0.4134880000000  0.4770620000000  0.5302600000000 1.0
C      1  0.4800970000000  0.4146580000000  0.4741060000000 1.0
C      1  0.5640050000000  0.4382550000000  0.5288990000000 1.0
C      1  0.5895330000000  0.5266140000000  0.4729470000000 1.0
C      1  0.5235490000000  0.5863320000000  0.5293430000000 1.0
C      1  0.4333230000000  0.5659890000000  0.4711360000000 1.0
C      1  0.5431220000000  0.4570390000000  0.4301460000000 1.0
C      1  0.5580450000000  0.5130070000000  0.5656660000000 1.0
C      1  0.5137430000000  0.5566560000000  0.4355630000000 1.0
C      1  0.4623140000000  0.5460840000000  0.5666530000000 1.0
C      1  0.4449790000000  0.4818860000000  0.4348800000000 1.0
C      1  0.4794740000000  0.4408130000000  0.5667500000000 1.0
C      1  0.4538560000000  0.5872750000000  0.4695200000000 1.0
C      1  0.4021350000000  0.5048530000000  0.5328240000000 1.0
C      1  0.4516250000000  0.4202430000000  0.4717230000000 1.0
C      1  0.5503160000000  0.4113700000000  0.5288420000000 1.0
C      1  0.5998910000000  0.4990570000000  0.4708260000000 1.0
C      1  0.5524030000000  0.5789360000000  0.5306240000000 1.0
C      1  0.5153700000000  0.4091780000000  0.4263640000000 1.0
C      1  0.5800260000000  0.4652940000000  0.5654830000000 1.0
C      1  0.5729760000000  0.5570420000000  0.4280520000000 1.0
C      1  0.4876770000000  0.5896750000000  0.5725780000000 1.0
C      1  0.4191310000000  0.5275170000000  0.4314910000000 1.0
C      1  0.4302750000000  0.4426310000000  0.5716330000000 1.0
C      1  0.5453270000000  0.5063480000000  0.5901310000000 1.0
C      1  0.5163760000000  0.5431870000000  0.4100810000000 1.0
C      1  0.4714940000000  0.5353080000000  0.5916240000000 1.0
C      1  0.4572610000000  0.4899250000000  0.4100080000000 1.0
C      1  0.4829840000000  0.4555900000000  0.5908210000000 1.0
C      1  0.5333320000000  0.4656790000000  0.4037950000000 1.0
C      1  0.5042420000000  0.5718660000000  0.5469530000000 1.0
C      1  0.4396770000000  0.5406540000000  0.4567040000000 1.0
C      1  0.4390150000000  0.4714250000000  0.5453270000000 1.0
C      1  0.4980800000000  0.4259460000000  0.4539820000000 1.0
C      1  0.5478930000000  0.4601410000000  0.5422270000000 1.0
C      1  0.5679500000000  0.5344260000000  0.4549140000000 1.0
C      1  0.5009310000000  0.4975420000000  0.5747080000000 1.0
C      1  0.5050780000000  0.4993770000000  0.4248470000000 1.0
END
