TITL C-2782226-7400-633 0.000550880484659953 125000 -378.729084290232 0 0 66 (C3) n - 1
REM
REM in /home/nfs/bkarasulu/CARBON/AIRSS/Generating-Clusters/REBO/Higher-Symm/SD-CG/HFTN-CG
REM
REM
REM
REM
REM
REM ./C.cell (12c818d87b63d06a65506943cc24bca4)
REM
REM compiler GCC version 9.2.1 20190827 (Red Hat 9.2.1-1)
REM options -cpp -mtune=generic -march=x86-64 -g -O0 -fpre-include=/usr/include/finclude/math-vector-fortran.h
REM seed -71847339 -607146852 901993572 1296577161 2040461843 -1052750321 289810957 1845214596 162654839 -1756311159 -1391530202 1876965252 -1853273122 -1006687611 -2070608324 -1187233729 -1934256805 1323035418 1911830199 465498579 1771596444 950954147 -1744034834 828596207 1700718453 -532890983 -1821592494 -1771010482 1979585271 -575389872 1035788107 -557247186 1580899354
REM
CELL 1.54180   50.00000   50.00000   50.00000   90.00000   90.00000   90.00000
LATT -1
SFAC C  
C      1  0.5265520000000  0.5514760000000  0.5356810000000 1.0
C      1  0.5175100000000  0.5514790000000  0.4591190000000 1.0
C      1  0.4557270000000  0.5513850000000  0.5052300000000 1.0
C      1  0.5524570000000  0.4797550000000  0.5546810000000 1.0
C      1  0.5211720000000  0.4797370000000  0.4272490000000 1.0
C      1  0.4264550000000  0.4795900000000  0.5180580000000 1.0
C      1  0.4972610000000  0.5210460000000  0.5747390000000 1.0
C      1  0.5660480000000  0.5211610000000  0.4649840000000 1.0
C      1  0.4366040000000  0.5209850000000  0.4602900000000 1.0
C      1  0.5052830000000  0.4692730000000  0.4776750000000 1.0
C      1  0.4780930000000  0.4692300000000  0.5066150000000 1.0
C      1  0.5167500000000  0.4692810000000  0.5156920000000 1.0
C      1  0.4997920000000  0.5219790000000  0.4180600000000 1.0
C      1  0.4290930000000  0.5218590000000  0.5411300000000 1.0
C      1  0.5710250000000  0.5220530000000  0.5408220000000 1.0
C      1  0.5409930000000  0.5484240000000  0.5046330000000 1.0
C      1  0.4834080000000  0.5483540000000  0.4621390000000 1.0
C      1  0.4754000000000  0.5483290000000  0.5332560000000 1.0
C      1  0.5005850000000  0.4904820000000  0.5622440000000 1.0
C      1  0.5536330000000  0.4905730000000  0.4683800000000 1.0
C      1  0.4458210000000  0.4904260000000  0.4693710000000 1.0
C      1  0.4787280000000  0.4478860000000  0.4800630000000 1.0
C      1  0.4934860000000  0.4478970000000  0.5284370000000 1.0
C      1  0.5280000000000  0.4479510000000  0.4914700000000 1.0
C      1  0.5531800000000  0.4537130000000  0.5124960000000 1.0
C      1  0.4843350000000  0.4536310000000  0.4477390000000 1.0
C      1  0.4626760000000  0.4535840000000  0.5397390000000 1.0
C      1  0.5134930000000  0.5195650000000  0.5143740000000 1.0
C      1  0.5056590000000  0.5195610000000  0.4811100000000 1.0
C      1  0.4807680000000  0.5195230000000  0.5045270000000 1.0
C      1  0.5183670000000  0.4475260000000  0.5491060000000 1.0
C      1  0.5334600000000  0.4475640000000  0.4595870000000 1.0
C      1  0.4483880000000  0.4474420000000  0.4912760000000 1.0
C      1  0.5002520000000  0.5694990000000  0.4809080000000 1.0
C      1  0.4831850000000  0.5694700000000  0.5092660000000 1.0
C      1  0.5162780000000  0.5695150000000  0.5098670000000 1.0
C      1  0.4719800000000  0.4939300000000  0.4880740000000 1.0
C      1  0.5036950000000  0.4939650000000  0.5302340000000 1.0
C      1  0.5243490000000  0.4940030000000  0.4816880000000 1.0
C      1  0.4675270000000  0.4774890000000  0.4383170000000 1.0
C      1  0.4628670000000  0.4774590000000  0.5589840000000 1.0
C      1  0.5696980000000  0.4776160000000  0.5026860000000 1.0
C      1  0.5452490000000  0.5445880000000  0.4757820000000 1.0
C      1  0.4563030000000  0.5444670000000  0.4728830000000 1.0
C      1  0.4982660000000  0.5445090000000  0.5513610000000 1.0
C      1  0.5561930000000  0.4630020000000  0.4553360000000 1.0
C      1  0.4333050000000  0.4628300000000  0.4737010000000 1.0
C      1  0.5106540000000  0.4629170000000  0.5709420000000 1.0
C      1  0.5448790000000  0.4556380000000  0.5404750000000 1.0
C      1  0.5127110000000  0.4556140000000  0.4409360000000 1.0
C      1  0.4425920000000  0.4555030000000  0.5185630000000 1.0
C      1  0.5268360000000  0.5264270000000  0.5587610000000 1.0
C      1  0.5374120000000  0.5264640000000  0.4473560000000 1.0
C      1  0.4356440000000  0.5263150000000  0.4938990000000 1.0
C      1  0.4716960000000  0.4915620000000  0.5315150000000 1.0
C      1  0.5414630000000  0.4916620000000  0.5087620000000 1.0
C      1  0.4868750000000  0.4915970000000  0.4597190000000 1.0
C      1  0.4724480000000  0.4983150000000  0.5796390000000 1.0
C      1  0.5827490000000  0.4984840000000  0.4840430000000 1.0
C      1  0.4448100000000  0.4983050000000  0.4363170000000 1.0
C      1  0.5241080000000  0.5080080000000  0.4274880000000 1.0
C      1  0.4251310000000  0.5078560000000  0.5153710000000 1.0
C      1  0.5507280000000  0.5080190000000  0.5571460000000 1.0
C      1  0.5463030000000  0.5208100000000  0.5196280000000 1.0
C      1  0.4938010000000  0.5207520000000  0.4500680000000 1.0
C      1  0.4598110000000  0.5206900000000  0.5303160000000 1.0
END
