TITL C-2782229-3092-862 7.08742537220487e-07 125000 -220.455920840566 0 0 38 (Cs) n - 1
REM
REM in /home/nfs/bkarasulu/CARBON/AIRSS/Generating-Clusters/REBO/Higher-Symm/SD-CG/HFTN-CG
REM
REM
REM
REM
REM
REM ./C.cell (12c818d87b63d06a65506943cc24bca4)
REM
REM compiler GCC version 9.2.1 20190827 (Red Hat 9.2.1-1)
REM options -cpp -mtune=generic -march=x86-64 -g -O0 -fpre-include=/usr/include/finclude/math-vector-fortran.h
REM seed 1408229713 883060989 -1466248220 -1793232203 -721182295 356982012 2098596591 -1506109132 1139590426 960277443 -1605152638 -1176681739 1025060678 2121859449 -1281099832 727950829 1704628462 -318581216 -419127830 -1244564550 -415497670 -767544161 -1861691439 -680459677 -800337771 1608084224 1241896415 481863304 1049042529 216230831 863285042 72885321 -139564502
REM
CELL 1.54180   50.00000   50.00000   50.00000   90.00000   90.00000   90.00000
LATT -1
SFAC C  
C      1  0.5517940000000  0.5216700000000  0.4671690000000 1.0
C      1  0.5375010000000  0.4607270000000  0.4738470000000 1.0
C      1  0.4669070000000  0.4604770000000  0.4737930000000 1.0
C      1  0.4521930000000  0.5213170000000  0.4670940000000 1.0
C      1  0.5018800000000  0.5546400000000  0.4619580000000 1.0
C      1  0.5427680000000  0.4479340000000  0.4981300000000 1.0
C      1  0.4616940000000  0.4476470000000  0.4980680000000 1.0
C      1  0.4410650000000  0.5178840000000  0.4927130000000 1.0
C      1  0.5018300000000  0.5630000000000  0.4888680000000 1.0
C      1  0.5629070000000  0.5183150000000  0.4928050000000 1.0
C      1  0.4588520000000  0.5123190000000  0.5425680000000 1.0
C      1  0.5018580000000  0.5444260000000  0.5393360000000 1.0
C      1  0.5450840000000  0.5126240000000  0.5426330000000 1.0
C      1  0.5290350000000  0.4616260000000  0.5469890000000 1.0
C      1  0.4752560000000  0.4614360000000  0.5469480000000 1.0
C      1  0.5021560000000  0.4569600000000  0.5542530000000 1.0
C      1  0.4634340000000  0.4864160000000  0.5527740000000 1.0
C      1  0.4777100000000  0.5326130000000  0.5478490000000 1.0
C      1  0.5260750000000  0.5327840000000  0.5478860000000 1.0
C      1  0.5406700000000  0.4866890000000  0.5528330000000 1.0
C      1  0.5188350000000  0.4837460000000  0.4755670000000 1.0
C      1  0.4854070000000  0.4836280000000  0.4755410000000 1.0
C      1  0.4782460000000  0.5107460000000  0.4633360000000 1.0
C      1  0.5019850000000  0.5258370000000  0.4581270000000 1.0
C      1  0.5258220000000  0.5109150000000  0.4633720000000 1.0
C      1  0.5608770000000  0.5155140000000  0.5194760000000 1.0
C      1  0.5395580000000  0.4475750000000  0.5248990000000 1.0
C      1  0.4648650000000  0.4473100000000  0.5248430000000 1.0
C      1  0.4430740000000  0.5150970000000  0.5193860000000 1.0
C      1  0.5018220000000  0.5594780000000  0.5155170000000 1.0
C      1  0.5018350000000  0.5718280000000  0.4409040000000 1.0
C      1  0.5639100000000  0.5368270000000  0.4480950000000 1.0
C      1  0.5483740000000  0.4532270000000  0.4496020000000 1.0
C      1  0.4561240000000  0.4529000000000  0.4495320000000 1.0
C      1  0.4399980000000  0.5363880000000  0.4480010000000 1.0
C      1  0.5020140000000  0.4969410000000  0.5552640000000 1.0
C      1  0.5020540000000  0.4909890000000  0.5297350000000 1.0
C      1  0.5020900000000  0.4863240000000  0.5042600000000 1.0
END
