TITL C-2782240-8521-1195 -0.00103937577279168 125000 -238.548111701283 0 0 43 (C1) n - 1
REM
REM in /home/nfs/bkarasulu/CARBON/AIRSS/Generating-Clusters/REBO/Higher-Symm/SD-CG/HFTN-CG
REM
REM
REM
REM
REM
REM ./C.cell (12c818d87b63d06a65506943cc24bca4)
REM
REM compiler GCC version 9.2.1 20190827 (Red Hat 9.2.1-1)
REM options -cpp -mtune=generic -march=x86-64 -g -O0 -fpre-include=/usr/include/finclude/math-vector-fortran.h
REM seed -1483779633 1719618631 1547125330 1280882501 76919802 426208344 -2146354494 782115224 914430044 1208494216 -1026566388 118816336 80817304 -121906538 -2021958565 1766046055 1544012423 -231907221 -863001595 1818055151 -1481777172 2037417910 514456376 -411153376 264395374 -1819864593 -221389614 -698871017 1812613563 630997561 712775196 517709139 1648493148
REM
CELL 1.54180   50.00000   50.00000   50.00000   90.00000   90.00000   90.00000
LATT -1
SFAC C  
C      1  0.5387590000000  0.5544460000000  0.5034900000000 1.0
C      1  0.5331910000000  0.4467340000000  0.5005410000000 1.0
C      1  0.5615930000000  0.4578870000000  0.5122750000000 1.0
C      1  0.5644950000000  0.5356690000000  0.5125570000000 1.0
C      1  0.5277020000000  0.4883290000000  0.5759720000000 1.0
C      1  0.5302230000000  0.5137440000000  0.5751140000000 1.0
C      1  0.5287890000000  0.5253900000000  0.5459080000000 1.0
C      1  0.5256560000000  0.4748360000000  0.5477000000000 1.0
C      1  0.4990400000000  0.5181920000000  0.5380300000000 1.0
C      1  0.4968950000000  0.4862830000000  0.5341700000000 1.0
C      1  0.4707400000000  0.4687390000000  0.5440410000000 1.0
C      1  0.4712900000000  0.5350260000000  0.5428430000000 1.0
C      1  0.4507620000000  0.4685490000000  0.4494270000000 1.0
C      1  0.4500760000000  0.5263980000000  0.4524080000000 1.0
C      1  0.5568750000000  0.5114910000000  0.5322810000000 1.0
C      1  0.5577530000000  0.4782580000000  0.5361280000000 1.0
C      1  0.4733600000000  0.5139590000000  0.4448790000000 1.0
C      1  0.4736780000000  0.4824000000000  0.4432820000000 1.0
C      1  0.5522270000000  0.4668560000000  0.4827410000000 1.0
C      1  0.5530800000000  0.5328080000000  0.4827460000000 1.0
C      1  0.5322480000000  0.4847300000000  0.5157430000000 1.0
C      1  0.5295580000000  0.5165830000000  0.5124240000000 1.0
C      1  0.4358940000000  0.5242720000000  0.4813630000000 1.0
C      1  0.4343460000000  0.4651740000000  0.4772960000000 1.0
C      1  0.5455120000000  0.5146140000000  0.4628770000000 1.0
C      1  0.5459080000000  0.4854130000000  0.4627480000000 1.0
C      1  0.4869860000000  0.4485410000000  0.5260540000000 1.0
C      1  0.4894550000000  0.5554170000000  0.5272540000000 1.0
C      1  0.5066050000000  0.4885610000000  0.4955250000000 1.0
C      1  0.5050350000000  0.5225820000000  0.4928860000000 1.0
C      1  0.4757360000000  0.4816040000000  0.5068110000000 1.0
C      1  0.4796720000000  0.5139180000000  0.5102100000000 1.0
C      1  0.5100890000000  0.5510020000000  0.5074400000000 1.0
C      1  0.5064420000000  0.4560610000000  0.5059570000000 1.0
C      1  0.5252990000000  0.5216020000000  0.4431980000000 1.0
C      1  0.5264280000000  0.4778930000000  0.4425670000000 1.0
C      1  0.4214350000000  0.4825590000000  0.4533740000000 1.0
C      1  0.4213030000000  0.5111740000000  0.4556640000000 1.0
C      1  0.4434280000000  0.4764280000000  0.5026260000000 1.0
C      1  0.4473530000000  0.5096630000000  0.5043050000000 1.0
C      1  0.4478920000000  0.4846110000000  0.5352210000000 1.0
C      1  0.4500670000000  0.5166620000000  0.5369250000000 1.0
C      1  0.5022300000000  0.4990750000000  0.4367640000000 1.0
END
