TITL C-2782238-9940-267 -1.15480128117686e-05 125000 -126.86491596493 0 0 23 (C1) n - 1
REM
REM in /home/nfs/bkarasulu/CARBON/AIRSS/Generating-Clusters/REBO/Higher-Symm/SD-CG/HFTN-CG
REM
REM
REM
REM
REM
REM ./C.cell (12c818d87b63d06a65506943cc24bca4)
REM
REM compiler GCC version 9.2.1 20190827 (Red Hat 9.2.1-1)
REM options -cpp -mtune=generic -march=x86-64 -g -O0 -fpre-include=/usr/include/finclude/math-vector-fortran.h
REM seed 1435006332 -608935918 -1577561304 757806896 280460140 -2011050781 -545896765 1587684515 1761187554 1347833115 1397665395 552568549 -869788068 -1995255050 691094377 67334448 -825771710 -1752599037 -946853668 673494268 1346784723 1194039071 510622708 -1765869101 -340159152 -2072737755 1695486309 -1058769498 319047692 1029349664 -1837742023 935715850 171610907
REM
CELL 1.54180   50.00000   50.00000   50.00000   90.00000   90.00000   90.00000
LATT -1
SFAC C  
C      1  0.5198580000000  0.5386640000000  0.4433040000000 1.0
C      1  0.5427560000000  0.5257770000000  0.5398090000000 1.0
C      1  0.5414430000000  0.4955700000000  0.4488690000000 1.0
C      1  0.5286020000000  0.4731010000000  0.5613990000000 1.0
C      1  0.5079730000000  0.4572420000000  0.4472890000000 1.0
C      1  0.4815740000000  0.4620620000000  0.5492170000000 1.0
C      1  0.4626140000000  0.4731110000000  0.4406010000000 1.0
C      1  0.4563710000000  0.5035420000000  0.5578900000000 1.0
C      1  0.4658620000000  0.5281360000000  0.4397620000000 1.0
C      1  0.4925510000000  0.5352660000000  0.5622310000000 1.0
C      1  0.4720730000000  0.4873760000000  0.5401380000000 1.0
C      1  0.4685570000000  0.4989720000000  0.4501110000000 1.0
C      1  0.4671630000000  0.5267290000000  0.5685490000000 1.0
C      1  0.4946750000000  0.5288810000000  0.4513440000000 1.0
C      1  0.5094580000000  0.5189450000000  0.5420530000000 1.0
C      1  0.5422310000000  0.5224190000000  0.4423370000000 1.0
C      1  0.5339950000000  0.4992120000000  0.5543040000000 1.0
C      1  0.5179330000000  0.4819610000000  0.4568380000000 1.0
C      1  0.5067280000000  0.4568760000000  0.5589380000000 1.0
C      1  0.4817670000000  0.4531790000000  0.4394820000000 1.0
C      1  0.4910790000000  0.5026300000000  0.5242810000000 1.0
C      1  0.4962170000000  0.5004750000000  0.4677170000000 1.0
C      1  0.4934850000000  0.5016210000000  0.4978010000000 1.0
END
