TITL C-2782227-3064-939 0.00171769174796268 125000 -560.459022901876 0 0 100 (C1) n - 1
REM
REM in /home/nfs/bkarasulu/CARBON/AIRSS/Generating-Clusters/REBO/Higher-Symm/SD-CG/HFTN-CG
REM
REM
REM
REM
REM
REM ./C.cell (12c818d87b63d06a65506943cc24bca4)
REM
REM compiler GCC version 9.2.1 20190827 (Red Hat 9.2.1-1)
REM options -cpp -mtune=generic -march=x86-64 -g -O0 -fpre-include=/usr/include/finclude/math-vector-fortran.h
REM seed 990989192 1759771627 -357382770 -726624231 165177848 1910699981 -388528286 -1641118646 369307001 -1268005374 472240770 459125005 -2046752094 802692529 -858628426 -767889574 327415992 1971120593 1468546739 -2127238650 1808576737 -214556449 -1687415959 -1723778853 -320283936 1562600255 -271669819 -1244959594 1216342257 -971045798 -1004441153 1280291677 500435693
REM
CELL 1.54180   50.00000   50.00000   50.00000   90.00000   90.00000   90.00000
LATT -1
SFAC C  
C      1  0.4876220000000  0.5213230000000  0.5180100000000 1.0
C      1  0.5131750000000  0.5276760000000  0.4820690000000 1.0
C      1  0.4889530000000  0.4721080000000  0.5212700000000 1.0
C      1  0.5110160000000  0.4784230000000  0.4794170000000 1.0
C      1  0.5207210000000  0.5274330000000  0.5211390000000 1.0
C      1  0.4794390000000  0.5233560000000  0.4790620000000 1.0
C      1  0.5224790000000  0.4765050000000  0.5174970000000 1.0
C      1  0.4775890000000  0.4725640000000  0.4830280000000 1.0
C      1  0.4260160000000  0.5393560000000  0.4785930000000 1.0
C      1  0.5735850000000  0.5433500000000  0.5171420000000 1.0
C      1  0.4235730000000  0.4594540000000  0.4828050000000 1.0
C      1  0.5748730000000  0.4625950000000  0.5188090000000 1.0
C      1  0.5712230000000  0.5364530000000  0.4855780000000 1.0
C      1  0.4327370000000  0.5340410000000  0.5105840000000 1.0
C      1  0.5671090000000  0.4663250000000  0.4862870000000 1.0
C      1  0.4319360000000  0.4623550000000  0.5145720000000 1.0
C      1  0.5282200000000  0.5705340000000  0.4588160000000 1.0
C      1  0.4758940000000  0.5647860000000  0.5417900000000 1.0
C      1  0.5222190000000  0.4333010000000  0.4596150000000 1.0
C      1  0.4733280000000  0.4272740000000  0.5420750000000 1.0
C      1  0.4777680000000  0.5685970000000  0.4554330000000 1.0
C      1  0.5277870000000  0.5712520000000  0.5466510000000 1.0
C      1  0.4697860000000  0.4288630000000  0.4563070000000 1.0
C      1  0.5239800000000  0.4309440000000  0.5446500000000 1.0
C      1  0.4854160000000  0.5407750000000  0.5642450000000 1.0
C      1  0.5193880000000  0.5464150000000  0.4359940000000 1.0
C      1  0.4826620000000  0.4514600000000  0.5644080000000 1.0
C      1  0.5121570000000  0.4570560000000  0.4373160000000 1.0
C      1  0.5183210000000  0.5447890000000  0.5662460000000 1.0
C      1  0.4856240000000  0.5417600000000  0.4359900000000 1.0
C      1  0.5161780000000  0.4573300000000  0.5644660000000 1.0
C      1  0.4796280000000  0.4539800000000  0.4351200000000 1.0
C      1  0.4473590000000  0.4839350000000  0.4800250000000 1.0
C      1  0.5517920000000  0.4877530000000  0.5201020000000 1.0
C      1  0.4488760000000  0.5139380000000  0.4785350000000 1.0
C      1  0.5512510000000  0.5177300000000  0.5211170000000 1.0
C      1  0.5417860000000  0.4873240000000  0.4804930000000 1.0
C      1  0.4578900000000  0.4828640000000  0.5194480000000 1.0
C      1  0.5441690000000  0.5170780000000  0.4802770000000 1.0
C      1  0.4573930000000  0.5125230000000  0.5176660000000 1.0
C      1  0.4367740000000  0.4743230000000  0.5441410000000 1.0
C      1  0.5616540000000  0.4766080000000  0.4558550000000 1.0
C      1  0.4357630000000  0.5246100000000  0.5412000000000 1.0
C      1  0.5665560000000  0.5259990000000  0.4559270000000 1.0
C      1  0.5675740000000  0.4772740000000  0.5475080000000 1.0
C      1  0.4295240000000  0.4721340000000  0.4534720000000 1.0
C      1  0.5700640000000  0.5302750000000  0.5465950000000 1.0
C      1  0.4333580000000  0.5246630000000  0.4506090000000 1.0
C      1  0.4710180000000  0.5171320000000  0.4172380000000 1.0
C      1  0.5347470000000  0.5188020000000  0.5813610000000 1.0
C      1  0.4672780000000  0.4830800000000  0.4214610000000 1.0
C      1  0.5296450000000  0.4846800000000  0.5801380000000 1.0
C      1  0.5310580000000  0.5163210000000  0.4234940000000 1.0
C      1  0.4694750000000  0.5128000000000  0.5766650000000 1.0
C      1  0.5273480000000  0.4820490000000  0.4195730000000 1.0
C      1  0.4696110000000  0.4784360000000  0.5809840000000 1.0
C      1  0.5739930000000  0.5679370000000  0.4858570000000 1.0
C      1  0.4338110000000  0.5653740000000  0.5076490000000 1.0
C      1  0.5659430000000  0.4355830000000  0.4909230000000 1.0
C      1  0.4300130000000  0.4314320000000  0.5103570000000 1.0
C      1  0.4277350000000  0.5718110000000  0.4769730000000 1.0
C      1  0.5724760000000  0.5759460000000  0.5163810000000 1.0
C      1  0.4215130000000  0.4267680000000  0.4802460000000 1.0
C      1  0.5739850000000  0.4299730000000  0.5212820000000 1.0
C      1  0.4575080000000  0.5820620000000  0.4815150000000 1.0
C      1  0.5451840000000  0.5885250000000  0.5206980000000 1.0
C      1  0.4504740000000  0.4134610000000  0.4821350000000 1.0
C      1  0.5446750000000  0.4181460000000  0.5185270000000 1.0
C      1  0.5464070000000  0.5825020000000  0.4871380000000 1.0
C      1  0.4601350000000  0.5784640000000  0.5152980000000 1.0
C      1  0.5392680000000  0.4220100000000  0.4851370000000 1.0
C      1  0.4550340000000  0.4152970000000  0.5159240000000 1.0
C      1  0.4847380000000  0.4414480000000  0.5158900000000 1.0
C      1  0.5089650000000  0.4478900000000  0.4849380000000 1.0
C      1  0.4899520000000  0.5523330000000  0.5154430000000 1.0
C      1  0.5165090000000  0.5588440000000  0.4864440000000 1.0
C      1  0.5176150000000  0.4448320000000  0.5158030000000 1.0
C      1  0.4769580000000  0.4407370000000  0.4851940000000 1.0
C      1  0.5214860000000  0.5587370000000  0.5181650000000 1.0
C      1  0.4836270000000  0.5544210000000  0.4838670000000 1.0
C      1  0.5662840000000  0.5194090000000  0.5718840000000 1.0
C      1  0.4400860000000  0.5117580000000  0.4268550000000 1.0
C      1  0.5606180000000  0.4899460000000  0.5716050000000 1.0
C      1  0.4350850000000  0.4822540000000  0.4281800000000 1.0
C      1  0.4382680000000  0.5157660000000  0.5674980000000 1.0
C      1  0.5625170000000  0.5163810000000  0.4301830000000 1.0
C      1  0.4407950000000  0.4859740000000  0.5692820000000 1.0
C      1  0.5573520000000  0.4869350000000  0.4300720000000 1.0
C      1  0.4842760000000  0.5127400000000  0.5472540000000 1.0
C      1  0.5154710000000  0.5187210000000  0.4525820000000 1.0
C      1  0.4829470000000  0.4825150000000  0.5505420000000 1.0
C      1  0.5159890000000  0.4884760000000  0.4500000000000 1.0
C      1  0.5240020000000  0.5152140000000  0.5502370000000 1.0
C      1  0.4763890000000  0.5118300000000  0.4496690000000 1.0
C      1  0.5226360000000  0.4847970000000  0.5473040000000 1.0
C      1  0.4768980000000  0.4813700000000  0.4532780000000 1.0
C      1  0.5007080000000  0.4128440000000  0.5519520000000 1.0
C      1  0.4971410000000  0.4192430000000  0.4443670000000 1.0
C      1  0.4997300000000  0.5793190000000  0.5583950000000 1.0
C      1  0.5024390000000  0.5852110000000  0.4482130000000 1.0
END
