TITL C-2782234-8014-310 0.00424410955268108 125000 -1140.87227199664 0 0 195 (C1) n - 1
REM
REM in /home/nfs/bkarasulu/CARBON/AIRSS/Generating-Clusters/REBO/Higher-Symm/SD-CG/HFTN-CG
REM
REM
REM
REM
REM
REM ./C.cell (12c818d87b63d06a65506943cc24bca4)
REM
REM compiler GCC version 9.2.1 20190827 (Red Hat 9.2.1-1)
REM options -cpp -mtune=generic -march=x86-64 -g -O0 -fpre-include=/usr/include/finclude/math-vector-fortran.h
REM seed 373363372 840023019 -1935441273 2089373917 -661237578 6934663 -1664299413 425758818 666593279 -1320221408 2137499351 -1424803719 -810929130 169918841 -1883404715 -1973916877 273482976 -1589358474 1836919614 -597865340 -655040472 -711056197 1838309712 -1658255075 1740911543 1994980673 196517038 -1114653059 -2109225118 1632859544 -306553417 552160005 -1077510082
REM
CELL 1.54180   50.00000   50.00000   50.00000   90.00000   90.00000   90.00000
LATT -1
SFAC C  
C      1  0.5389710000000  0.5384150000000  0.5865570000000 1.0
C      1  0.5151200000000  0.4484740000000  0.5761340000000 1.0
C      1  0.4484320000000  0.5084720000000  0.5748250000000 1.0
C      1  0.5415380000000  0.5436110000000  0.4141220000000 1.0
C      1  0.5156090000000  0.4416010000000  0.4212050000000 1.0
C      1  0.4477640000000  0.5111410000000  0.4102530000000 1.0
C      1  0.4632840000000  0.5391340000000  0.5701130000000 1.0
C      1  0.4806140000000  0.4481330000000  0.5744060000000 1.0
C      1  0.5561180000000  0.5088870000000  0.5826380000000 1.0
C      1  0.4614220000000  0.5405920000000  0.4204710000000 1.0
C      1  0.4824900000000  0.4399220000000  0.4253300000000 1.0
C      1  0.5548130000000  0.5144810000000  0.4115990000000 1.0
C      1  0.5249590000000  0.5531670000000  0.4851230000000 1.0
C      1  0.5341830000000  0.4527910000000  0.4894910000000 1.0
C      1  0.4436940000000  0.4968160000000  0.4823860000000 1.0
C      1  0.5251000000000  0.5555850000000  0.5174420000000 1.0
C      1  0.5306630000000  0.4554110000000  0.5201960000000 1.0
C      1  0.4409360000000  0.5002480000000  0.5141970000000 1.0
C      1  0.4719830000000  0.5519090000000  0.4886810000000 1.0
C      1  0.4718040000000  0.4505570000000  0.4893800000000 1.0
C      1  0.5592550000000  0.4994310000000  0.4818870000000 1.0
C      1  0.4707490000000  0.5556940000000  0.5190050000000 1.0
C      1  0.4673810000000  0.4545740000000  0.5201360000000 1.0
C      1  0.5575000000000  0.4992940000000  0.5128210000000 1.0
C      1  0.5653780000000  0.4252660000000  0.5702950000000 1.0
C      1  0.4024680000000  0.4779590000000  0.5629590000000 1.0
C      1  0.5344460000000  0.5892710000000  0.5694920000000 1.0
C      1  0.5606000000000  0.4291740000000  0.4320050000000 1.0
C      1  0.4085040000000  0.4821010000000  0.4315200000000 1.0
C      1  0.5312040000000  0.5875680000000  0.4343390000000 1.0
C      1  0.4322100000000  0.4260590000000  0.5671700000000 1.0
C      1  0.5967390000000  0.4764600000000  0.5671250000000 1.0
C      1  0.4743750000000  0.5933790000000  0.5723110000000 1.0
C      1  0.4346030000000  0.4297120000000  0.4308270000000 1.0
C      1  0.5881560000000  0.4787690000000  0.4238400000000 1.0
C      1  0.4655110000000  0.5888640000000  0.4333510000000 1.0
C      1  0.5164180000000  0.5271760000000  0.4749460000000 1.0
C      1  0.5168230000000  0.4752730000000  0.4808490000000 1.0
C      1  0.4722800000000  0.5002470000000  0.4746550000000 1.0
C      1  0.5108530000000  0.5285130000000  0.5139900000000 1.0
C      1  0.5122930000000  0.4787360000000  0.5208460000000 1.0
C      1  0.4664100000000  0.5043060000000  0.5272610000000 1.0
C      1  0.4861440000000  0.5264320000000  0.4819170000000 1.0
C      1  0.4869160000000  0.4735840000000  0.4785380000000 1.0
C      1  0.5313510000000  0.5002270000000  0.4703840000000 1.0
C      1  0.4830860000000  0.5301720000000  0.5253480000000 1.0
C      1  0.4828130000000  0.4773050000000  0.5291690000000 1.0
C      1  0.5270920000000  0.5046450000000  0.5177580000000 1.0
C      1  0.3969510000000  0.5254730000000  0.5173420000000 1.0
C      1  0.5827650000000  0.5761220000000  0.5226180000000 1.0
C      1  0.5263430000000  0.3893880000000  0.5212590000000 1.0
C      1  0.3911690000000  0.5300130000000  0.4720950000000 1.0
C      1  0.5749250000000  0.5772850000000  0.4802040000000 1.0
C      1  0.5328950000000  0.3907030000000  0.4889960000000 1.0
C      1  0.6014150000000  0.5268620000000  0.5172630000000 1.0
C      1  0.4241190000000  0.5860520000000  0.5202890000000 1.0
C      1  0.4726560000000  0.3887690000000  0.5205050000000 1.0
C      1  0.6047700000000  0.5317110000000  0.4772330000000 1.0
C      1  0.4159040000000  0.5775800000000  0.4892980000000 1.0
C      1  0.4672590000000  0.3923530000000  0.4880300000000 1.0
C      1  0.5384630000000  0.5020850000000  0.5475560000000 1.0
C      1  0.4984130000000  0.4799070000000  0.5582360000000 1.0
C      1  0.5017760000000  0.5312390000000  0.5527970000000 1.0
C      1  0.5319980000000  0.4962310000000  0.4382890000000 1.0
C      1  0.4810480000000  0.4740730000000  0.4459470000000 1.0
C      1  0.4860810000000  0.5277250000000  0.4491280000000 1.0
C      1  0.4839200000000  0.5059810000000  0.5565890000000 1.0
C      1  0.5267090000000  0.4809300000000  0.5601720000000 1.0
C      1  0.5294980000000  0.5298220000000  0.5492180000000 1.0
C      1  0.4669400000000  0.5029600000000  0.4422350000000 1.0
C      1  0.5128340000000  0.4726130000000  0.4482730000000 1.0
C      1  0.5193560000000  0.5260330000000  0.4423360000000 1.0
C      1  0.4255580000000  0.4044470000000  0.5444800000000 1.0
C      1  0.4637120000000  0.6113450000000  0.5481290000000 1.0
C      1  0.6166350000000  0.4792090000000  0.5424960000000 1.0
C      1  0.4251020000000  0.4115740000000  0.4557650000000 1.0
C      1  0.4534830000000  0.6058210000000  0.4580850000000 1.0
C      1  0.6029950000000  0.4836400000000  0.4530580000000 1.0
C      1  0.5720200000000  0.4045440000000  0.5466580000000 1.0
C      1  0.5485620000000  0.6070890000000  0.5468380000000 1.0
C      1  0.3815510000000  0.4790240000000  0.5388040000000 1.0
C      1  0.5720480000000  0.4132780000000  0.4581060000000 1.0
C      1  0.5382910000000  0.6087770000000  0.4588740000000 1.0
C      1  0.3833630000000  0.4842930000000  0.4511890000000 1.0
C      1  0.5134000000000  0.5592300000000  0.4374560000000 1.0
C      1  0.5420740000000  0.4572360000000  0.4373400000000 1.0
C      1  0.4393560000000  0.4838430000000  0.4355100000000 1.0
C      1  0.5187450000000  0.5619220000000  0.5722750000000 1.0
C      1  0.5486480000000  0.4511060000000  0.5687590000000 1.0
C      1  0.4338440000000  0.4811400000000  0.5628000000000 1.0
C      1  0.4795510000000  0.5610230000000  0.4412270000000 1.0
C      1  0.4546180000000  0.4531480000000  0.4389950000000 1.0
C      1  0.5586730000000  0.4833040000000  0.4230300000000 1.0
C      1  0.4850810000000  0.5638390000000  0.5682620000000 1.0
C      1  0.4489660000000  0.4521010000000  0.5665930000000 1.0
C      1  0.5659860000000  0.4806090000000  0.5668850000000 1.0
C      1  0.4027200000000  0.5410730000000  0.4481380000000 1.0
C      1  0.5747150000000  0.5645160000000  0.4491940000000 1.0
C      1  0.5170080000000  0.3924420000000  0.4614660000000 1.0
C      1  0.4058260000000  0.5376260000000  0.5448290000000 1.0
C      1  0.5832350000000  0.5614260000000  0.5482910000000 1.0
C      1  0.5134180000000  0.4003770000000  0.5457710000000 1.0
C      1  0.5946910000000  0.5400730000000  0.4504590000000 1.0
C      1  0.4145660000000  0.5689440000000  0.4573760000000 1.0
C      1  0.4855640000000  0.3926030000000  0.4628430000000 1.0
C      1  0.5951300000000  0.5345070000000  0.5476550000000 1.0
C      1  0.4176770000000  0.5668580000000  0.5411480000000 1.0
C      1  0.4851620000000  0.3981570000000  0.5465540000000 1.0
C      1  0.4195440000000  0.5214330000000  0.5624800000000 1.0
C      1  0.5540620000000  0.5503240000000  0.5581110000000 1.0
C      1  0.5217350000000  0.4292720000000  0.5488620000000 1.0
C      1  0.4281830000000  0.5222650000000  0.4353450000000 1.0
C      1  0.5523260000000  0.5643580000000  0.4303880000000 1.0
C      1  0.5262890000000  0.4217710000000  0.4469780000000 1.0
C      1  0.5837600000000  0.5166540000000  0.5653780000000 1.0
C      1  0.4437250000000  0.5494370000000  0.5473440000000 1.0
C      1  0.4749520000000  0.4259820000000  0.5519510000000 1.0
C      1  0.5674560000000  0.5261960000000  0.4409210000000 1.0
C      1  0.4408760000000  0.5520580000000  0.4451970000000 1.0
C      1  0.4932150000000  0.4227530000000  0.4513140000000 1.0
C      1  0.4896290000000  0.6011940000000  0.5196350000000 1.0
C      1  0.5902540000000  0.4615960000000  0.5187080000000 1.0
C      1  0.4244110000000  0.4320950000000  0.5159570000000 1.0
C      1  0.4784690000000  0.6015650000000  0.4885580000000 1.0
C      1  0.6005980000000  0.4658150000000  0.4883480000000 1.0
C      1  0.4203280000000  0.4393170000000  0.4839710000000 1.0
C      1  0.5233690000000  0.5955120000000  0.5184010000000 1.0
C      1  0.4072400000000  0.4617020000000  0.5139600000000 1.0
C      1  0.5715930000000  0.4329410000000  0.5187750000000 1.0
C      1  0.5125910000000  0.5988660000000  0.4871880000000 1.0
C      1  0.4037560000000  0.4692480000000  0.4818630000000 1.0
C      1  0.5781440000000  0.4400640000000  0.4869880000000 1.0
C      1  0.5161440000000  0.4274840000000  0.5146200000000 1.0
C      1  0.4252800000000  0.5250180000000  0.5033050000000 1.0
C      1  0.5544740000000  0.5483380000000  0.5241380000000 1.0
C      1  0.5204690000000  0.4272060000000  0.4802440000000 1.0
C      1  0.4302820000000  0.5221200000000  0.4694440000000 1.0
C      1  0.5546380000000  0.5558990000000  0.4906240000000 1.0
C      1  0.4840130000000  0.4270170000000  0.5190750000000 1.0
C      1  0.5715570000000  0.5257480000000  0.5090240000000 1.0
C      1  0.4404230000000  0.5503950000000  0.5130350000000 1.0
C      1  0.4891620000000  0.4253750000000  0.4852920000000 1.0
C      1  0.5651720000000  0.5292550000000  0.4748100000000 1.0
C      1  0.4429040000000  0.5506800000000  0.4786800000000 1.0
C      1  0.5553540000000  0.4547840000000  0.5369350000000 1.0
C      1  0.4255810000000  0.4818840000000  0.5306410000000 1.0
C      1  0.5124150000000  0.5728410000000  0.5405760000000 1.0
C      1  0.5560510000000  0.4548080000000  0.4674390000000 1.0
C      1  0.4316450000000  0.4735440000000  0.4668950000000 1.0
C      1  0.5137720000000  0.5733610000000  0.4672150000000 1.0
C      1  0.4407410000000  0.4533650000000  0.5340780000000 1.0
C      1  0.5702990000000  0.4826630000000  0.5331790000000 1.0
C      1  0.4806280000000  0.5758420000000  0.5370420000000 1.0
C      1  0.4488370000000  0.4472670000000  0.4715090000000 1.0
C      1  0.5755610000000  0.4780280000000  0.4712020000000 1.0
C      1  0.4828870000000  0.5746890000000  0.4726520000000 1.0
C      1  0.5561440000000  0.4025900000000  0.5192440000000 1.0
C      1  0.3909170000000  0.4924680000000  0.5117120000000 1.0
C      1  0.5574790000000  0.5945220000000  0.5187680000000 1.0
C      1  0.5611130000000  0.4099770000000  0.4872200000000 1.0
C      1  0.3878700000000  0.4993310000000  0.4785400000000 1.0
C      1  0.5474070000000  0.5966070000000  0.4866010000000 1.0
C      1  0.4419830000000  0.4027610000000  0.5171740000000 1.0
C      1  0.6060420000000  0.4931210000000  0.5163510000000 1.0
C      1  0.4545750000000  0.6011230000000  0.5202840000000 1.0
C      1  0.4381510000000  0.4096880000000  0.4845030000000 1.0
C      1  0.6071740000000  0.4994590000000  0.4828810000000 1.0
C      1  0.4444140000000  0.5966000000000  0.4879930000000 1.0
C      1  0.6094200000000  0.4494970000000  0.5551560000000 1.0
C      1  0.4028600000000  0.4262060000000  0.5542360000000 1.0
C      1  0.4924080000000  0.6180960000000  0.5617190000000 1.0
C      1  0.6053590000000  0.4545050000000  0.4358220000000 1.0
C      1  0.4039360000000  0.4309460000000  0.4398320000000 1.0
C      1  0.4828070000000  0.6136180000000  0.4439940000000 1.0
C      1  0.3889380000000  0.4503920000000  0.5526910000000 1.0
C      1  0.5948660000000  0.4256420000000  0.5569690000000 1.0
C      1  0.5202000000000  0.6164090000000  0.5602220000000 1.0
C      1  0.3910520000000  0.4556680000000  0.4384270000000 1.0
C      1  0.5922130000000  0.4302920000000  0.4391910000000 1.0
C      1  0.5103910000000  0.6130060000000  0.4432270000000 1.0
C      1  0.5187790000000  0.4707500000000  0.4036650000000 1.0
C      1  0.4743900000000  0.4920300000000  0.4045860000000 1.0
C      1  0.5162300000000  0.5237710000000  0.4028770000000 1.0
C      1  0.5158750000000  0.4754450000000  0.5976720000000 1.0
C      1  0.4707400000000  0.4945920000000  0.5945210000000 1.0
C      1  0.5088890000000  0.5250400000000  0.5951860000000 1.0
C      1  0.4890790000000  0.4680490000000  0.4073330000000 1.0
C      1  0.5296870000000  0.4955620000000  0.3984830000000 1.0
C      1  0.4862420000000  0.5213680000000  0.4071060000000 1.0
C      1  0.4864740000000  0.4715830000000  0.5953130000000 1.0
C      1  0.5274830000000  0.5012530000000  0.5956940000000 1.0
C      1  0.4813490000000  0.5225440000000  0.5926480000000 1.0
C      1  0.3959720000000  0.5502220000000  0.4940370000000 1.0
C      1  0.5952030000000  0.5560290000000  0.4987240000000 1.0
C      1  0.4998560000000  0.3876160000000  0.4997080000000 1.0
END
