TITL C-2782238-9940-968 0.00691310067508948 125000 -936.670414482 0 0 153 (C1) n - 1
REM
REM in /home/nfs/bkarasulu/CARBON/AIRSS/Generating-Clusters/REBO/Higher-Symm/SD-CG/HFTN-CG
REM
REM
REM
REM
REM
REM ./C.cell (12c818d87b63d06a65506943cc24bca4)
REM
REM compiler GCC version 9.2.1 20190827 (Red Hat 9.2.1-1)
REM options -cpp -mtune=generic -march=x86-64 -g -O0 -fpre-include=/usr/include/finclude/math-vector-fortran.h
REM seed -818283326 1500378477 -541422222 -857943189 1557784991 -2098719434 525851246 2031314339 409937281 -475066928 934646849 -1972801318 -857064809 1949007236 -1973353206 -1436625641 -1856194775 203731404 -865073367 570742977 -1750818290 449037291 147026137 -359325379 890713911 1235017559 -1260806215 -749789028 -1065878501 -1012707694 -1781894885 -1751404383 -1142468645
REM
CELL 1.54180   50.00000   50.00000   50.00000   90.00000   90.00000   90.00000
LATT -1
SFAC C  
C      1  0.5873230000000  0.4997000000000  0.4291060000000 1.0
C      1  0.5899640000000  0.5456500000000  0.4419830000000 1.0
C      1  0.5872590000000  0.5724510000000  0.4839960000000 1.0
C      1  0.5868550000000  0.5633060000000  0.5313720000000 1.0
C      1  0.5726180000000  0.5275330000000  0.5566750000000 1.0
C      1  0.5926160000000  0.4822190000000  0.5693580000000 1.0
C      1  0.5845330000000  0.4450580000000  0.5362870000000 1.0
C      1  0.5849200000000  0.4358730000000  0.4898160000000 1.0
C      1  0.5862790000000  0.4565650000000  0.4482970000000 1.0
C      1  0.5547030000000  0.5193080000000  0.4565250000000 1.0
C      1  0.5536150000000  0.5394260000000  0.4758810000000 1.0
C      1  0.5514200000000  0.5411040000000  0.5039490000000 1.0
C      1  0.5467800000000  0.5236210000000  0.5256450000000 1.0
C      1  0.5440300000000  0.4972560000000  0.5362860000000 1.0
C      1  0.5511630000000  0.4709520000000  0.5297810000000 1.0
C      1  0.5540040000000  0.4564970000000  0.5058280000000 1.0
C      1  0.5463010000000  0.4625100000000  0.4762130000000 1.0
C      1  0.5497130000000  0.4890830000000  0.4565870000000 1.0
C      1  0.5153020000000  0.5446620000000  0.5908110000000 1.0
C      1  0.5156380000000  0.4817860000000  0.5958560000000 1.0
C      1  0.5155560000000  0.4242570000000  0.5608520000000 1.0
C      1  0.5179190000000  0.4014220000000  0.4970200000000 1.0
C      1  0.5159690000000  0.4315450000000  0.4322950000000 1.0
C      1  0.5148480000000  0.4860660000000  0.4064070000000 1.0
C      1  0.5173650000000  0.5500550000000  0.4170560000000 1.0
C      1  0.5151130000000  0.5942930000000  0.4714380000000 1.0
C      1  0.5147130000000  0.5859730000000  0.5373180000000 1.0
C      1  0.4254430000000  0.4655860000000  0.4186220000000 1.0
C      1  0.4301900000000  0.5260170000000  0.4155190000000 1.0
C      1  0.4257660000000  0.5783350000000  0.4529310000000 1.0
C      1  0.4268740000000  0.5885520000000  0.5191100000000 1.0
C      1  0.4241500000000  0.5597070000000  0.5664980000000 1.0
C      1  0.4258670000000  0.5034040000000  0.5908610000000 1.0
C      1  0.4254750000000  0.4425430000000  0.5724680000000 1.0
C      1  0.4241360000000  0.4148330000000  0.5190870000000 1.0
C      1  0.4071340000000  0.4269400000000  0.4543160000000 1.0
C      1  0.4499620000000  0.4095540000000  0.5157520000000 1.0
C      1  0.4322890000000  0.4294230000000  0.4456210000000 1.0
C      1  0.4502390000000  0.4726440000000  0.4111400000000 1.0
C      1  0.4568550000000  0.5298750000000  0.4146780000000 1.0
C      1  0.4524590000000  0.5815220000000  0.4562610000000 1.0
C      1  0.4533320000000  0.5891160000000  0.5255910000000 1.0
C      1  0.4506210000000  0.5529130000000  0.5703210000000 1.0
C      1  0.4521530000000  0.4978770000000  0.5923110000000 1.0
C      1  0.4543580000000  0.4315370000000  0.5715590000000 1.0
C      1  0.5966820000000  0.4674370000000  0.5226010000000 1.0
C      1  0.5966050000000  0.4620050000000  0.4937610000000 1.0
C      1  0.5979430000000  0.4751250000000  0.4676490000000 1.0
C      1  0.5993960000000  0.5018100000000  0.4558300000000 1.0
C      1  0.6008560000000  0.5299580000000  0.4643570000000 1.0
C      1  0.6007460000000  0.5454940000000  0.4897880000000 1.0
C      1  0.5986880000000  0.5398070000000  0.5186750000000 1.0
C      1  0.5920840000000  0.5182140000000  0.5373850000000 1.0
C      1  0.5980010000000  0.4901260000000  0.5413560000000 1.0
C      1  0.3990660000000  0.5297880000000  0.5315260000000 1.0
C      1  0.4002120000000  0.5036320000000  0.5437550000000 1.0
C      1  0.4012130000000  0.4761290000000  0.5358130000000 1.0
C      1  0.3979810000000  0.4611800000000  0.5116060000000 1.0
C      1  0.3930990000000  0.4653930000000  0.4834080000000 1.0
C      1  0.3997530000000  0.4852320000000  0.4632800000000 1.0
C      1  0.4022570000000  0.5137130000000  0.4606550000000 1.0
C      1  0.4012520000000  0.5370440000000  0.4775030000000 1.0
C      1  0.4007440000000  0.5429780000000  0.5057360000000 1.0
C      1  0.4647580000000  0.5672090000000  0.4828300000000 1.0
C      1  0.4662990000000  0.5605340000000  0.5343860000000 1.0
C      1  0.4595960000000  0.5255240000000  0.5637180000000 1.0
C      1  0.4648460000000  0.4806810000000  0.5683260000000 1.0
C      1  0.4637160000000  0.4380170000000  0.5402000000000 1.0
C      1  0.4661590000000  0.4238330000000  0.4925810000000 1.0
C      1  0.4586410000000  0.4438960000000  0.4460020000000 1.0
C      1  0.4637460000000  0.4939940000000  0.4308770000000 1.0
C      1  0.4704050000000  0.5375340000000  0.4428550000000 1.0
C      1  0.4608090000000  0.4859470000000  0.5387310000000 1.0
C      1  0.4614300000000  0.4624180000000  0.5231570000000 1.0
C      1  0.4621550000000  0.4549200000000  0.4957480000000 1.0
C      1  0.4608990000000  0.4672440000000  0.4703510000000 1.0
C      1  0.4623010000000  0.4937900000000  0.4604700000000 1.0
C      1  0.4645190000000  0.5213140000000  0.4679910000000 1.0
C      1  0.4628370000000  0.5382230000000  0.4904350000000 1.0
C      1  0.4616700000000  0.5351400000000  0.5182330000000 1.0
C      1  0.4594120000000  0.5142200000000  0.5370610000000 1.0
C      1  0.5608500000000  0.4800720000000  0.4283680000000 1.0
C      1  0.5631900000000  0.5314350000000  0.4279730000000 1.0
C      1  0.5639860000000  0.5646120000000  0.4655370000000 1.0
C      1  0.5593730000000  0.5708240000000  0.5147450000000 1.0
C      1  0.5421240000000  0.5432310000000  0.5504580000000 1.0
C      1  0.5339630000000  0.4998660000000  0.5654980000000 1.0
C      1  0.5587660000000  0.4529120000000  0.5556380000000 1.0
C      1  0.5611530000000  0.4252810000000  0.5107120000000 1.0
C      1  0.5598130000000  0.4396830000000  0.4589210000000 1.0
C      1  0.5459110000000  0.4818020000000  0.5904630000000 1.0
C      1  0.5427140000000  0.4243020000000  0.5582540000000 1.0
C      1  0.5451740000000  0.4034500000000  0.4926600000000 1.0
C      1  0.5435730000000  0.4335030000000  0.4304680000000 1.0
C      1  0.5416520000000  0.4920960000000  0.4043000000000 1.0
C      1  0.5441740000000  0.5564450000000  0.4195240000000 1.0
C      1  0.5404750000000  0.6017790000000  0.4799100000000 1.0
C      1  0.5414870000000  0.5818780000000  0.5403480000000 1.0
C      1  0.5418790000000  0.5373810000000  0.5977200000000 1.0
C      1  0.4812970000000  0.4828680000000  0.4014520000000 1.0
C      1  0.4865740000000  0.5546670000000  0.4176060000000 1.0
C      1  0.4829650000000  0.5955860000000  0.4751570000000 1.0
C      1  0.4852120000000  0.5863000000000  0.5471930000000 1.0
C      1  0.4924100000000  0.5350920000000  0.6027060000000 1.0
C      1  0.4841410000000  0.4757670000000  0.5967470000000 1.0
C      1  0.4826290000000  0.4157060000000  0.5606390000000 1.0
C      1  0.4893400000000  0.3983400000000  0.4866540000000 1.0
C      1  0.4832010000000  0.4294090000000  0.4269020000000 1.0
C      1  0.4812340000000  0.4134600000000  0.5279960000000 1.0
C      1  0.4836800000000  0.4200290000000  0.4657930000000 1.0
C      1  0.4846950000000  0.4602510000000  0.4341400000000 1.0
C      1  0.4858740000000  0.5128050000000  0.4156380000000 1.0
C      1  0.4799760000000  0.5681710000000  0.4461330000000 1.0
C      1  0.4775840000000  0.5853770000000  0.5053670000000 1.0
C      1  0.4830930000000  0.5578560000000  0.5632100000000 1.0
C      1  0.4793080000000  0.5141680000000  0.5845550000000 1.0
C      1  0.4782160000000  0.4530210000000  0.5742030000000 1.0
C      1  0.5015520000000  0.4502910000000  0.5554330000000 1.0
C      1  0.5049880000000  0.4237340000000  0.5129740000000 1.0
C      1  0.5045960000000  0.4368730000000  0.4596630000000 1.0
C      1  0.5048270000000  0.4781080000000  0.4334210000000 1.0
C      1  0.5082380000000  0.5244960000000  0.4313280000000 1.0
C      1  0.5045680000000  0.5657500000000  0.4648350000000 1.0
C      1  0.5020920000000  0.5704290000000  0.5150240000000 1.0
C      1  0.5116410000000  0.5438710000000  0.5591420000000 1.0
C      1  0.5018270000000  0.4998810000000  0.5708520000000 1.0
C      1  0.4070560000000  0.5608530000000  0.4621800000000 1.0
C      1  0.4082550000000  0.5707050000000  0.5103580000000 1.0
C      1  0.4033710000000  0.5497790000000  0.5520800000000 1.0
C      1  0.4066190000000  0.5058950000000  0.5718540000000 1.0
C      1  0.4100500000000  0.4589660000000  0.5574640000000 1.0
C      1  0.4049000000000  0.4336050000000  0.5164240000000 1.0
C      1  0.3892140000000  0.4400150000000  0.4700780000000 1.0
C      1  0.4080920000000  0.4720970000000  0.4386750000000 1.0
C      1  0.4110410000000  0.5206370000000  0.4340180000000 1.0
C      1  0.5046110000000  0.4680510000000  0.5320980000000 1.0
C      1  0.5076940000000  0.4520660000000  0.5082830000000 1.0
C      1  0.5144580000000  0.4587730000000  0.4789420000000 1.0
C      1  0.5178930000000  0.4860320000000  0.4608060000000 1.0
C      1  0.5112300000000  0.5175770000000  0.4594040000000 1.0
C      1  0.5086700000000  0.5394760000000  0.4781030000000 1.0
C      1  0.5069880000000  0.5423240000000  0.5075320000000 1.0
C      1  0.5072390000000  0.5249530000000  0.5311440000000 1.0
C      1  0.5041750000000  0.4965790000000  0.5389080000000 1.0
C      1  0.5672210000000  0.4132890000000  0.4735800000000 1.0
C      1  0.5677340000000  0.4504540000000  0.4217980000000 1.0
C      1  0.5667020000000  0.5110920000000  0.4048470000000 1.0
C      1  0.5669990000000  0.5700370000000  0.4359300000000 1.0
C      1  0.5636140000000  0.5930660000000  0.4932690000000 1.0
C      1  0.5658600000000  0.5665010000000  0.5536610000000 1.0
C      1  0.5546160000000  0.5193690000000  0.5798660000000 1.0
C      1  0.5683790000000  0.4694380000000  0.5784730000000 1.0
C      1  0.5667030000000  0.4174640000000  0.5400450000000 1.0
END
