TITL C-2782239-8622-2 -0.00538261972857474 125000 -542.305842697118 0 0 96 (C1) n - 1
REM
REM in /home/nfs/bkarasulu/CARBON/AIRSS/Generating-Clusters/REBO/Higher-Symm/SD-CG/HFTN-CG
REM
REM
REM
REM
REM
REM ./C.cell (12c818d87b63d06a65506943cc24bca4)
REM
REM compiler GCC version 9.2.1 20190827 (Red Hat 9.2.1-1)
REM options -cpp -mtune=generic -march=x86-64 -g -O0 -fpre-include=/usr/include/finclude/math-vector-fortran.h
REM seed -862595257 -373318300 1727998102 136464223 1319450010 353755053 1282491141 1491381446 496192977 -1270213518 1482426677 -1305949988 -1036336393 -1828554412 -112149288 -1861739011 -1225930350 52042675 1554928965 1115485099 13566094 1593858302 1795121760 257512798 -1982799064 1828759128 -290118058 1340595718 1940095473 722341074 586830560 -1403331557 -436458128
REM
CELL 1.54180   50.00000   50.00000   50.00000   90.00000   90.00000   90.00000
LATT -1
SFAC C  
C      1  0.5754190000000  0.4756770000000  0.5022780000000 1.0
C      1  0.4189650000000  0.4904780000000  0.5169380000000 1.0
C      1  0.5771650000000  0.5035780000000  0.5180450000000 1.0
C      1  0.4189860000000  0.5224020000000  0.5048800000000 1.0
C      1  0.5771280000000  0.5258840000000  0.4939670000000 1.0
C      1  0.4239460000000  0.5010650000000  0.4788350000000 1.0
C      1  0.5736300000000  0.4974380000000  0.4787750000000 1.0
C      1  0.4230520000000  0.4691480000000  0.4906150000000 1.0
C      1  0.5054810000000  0.4200300000000  0.4822280000000 1.0
C      1  0.4831970000000  0.4582230000000  0.5252090000000 1.0
C      1  0.4950660000000  0.4917120000000  0.5565050000000 1.0
C      1  0.4904600000000  0.5358590000000  0.5458950000000 1.0
C      1  0.5077910000000  0.5608360000000  0.5199320000000 1.0
C      1  0.4991200000000  0.5386200000000  0.4706890000000 1.0
C      1  0.5024580000000  0.5162940000000  0.4277780000000 1.0
C      1  0.4917520000000  0.4679070000000  0.4576000000000 1.0
C      1  0.4265960000000  0.5391380000000  0.5318810000000 1.0
C      1  0.5705310000000  0.5512590000000  0.4733590000000 1.0
C      1  0.4396260000000  0.5227970000000  0.4585250000000 1.0
C      1  0.5540550000000  0.4796060000000  0.4578730000000 1.0
C      1  0.4460040000000  0.4519430000000  0.4719850000000 1.0
C      1  0.5537050000000  0.4542810000000  0.5142920000000 1.0
C      1  0.4327030000000  0.4700940000000  0.5405180000000 1.0
C      1  0.5615980000000  0.5228800000000  0.5405250000000 1.0
C      1  0.4756890000000  0.4577520000000  0.5764760000000 1.0
C      1  0.5255600000000  0.5181590000000  0.5766330000000 1.0
C      1  0.4744990000000  0.5724960000000  0.5454280000000 1.0
C      1  0.5207170000000  0.5712040000000  0.4835450000000 1.0
C      1  0.4756250000000  0.5450400000000  0.4236430000000 1.0
C      1  0.5198150000000  0.4805020000000  0.4256270000000 1.0
C      1  0.4660770000000  0.4258540000000  0.4629330000000 1.0
C      1  0.5170940000000  0.4202020000000  0.5202790000000 1.0
C      1  0.5040970000000  0.4649830000000  0.5032870000000 1.0
C      1  0.4753330000000  0.4971120000000  0.5308000000000 1.0
C      1  0.5090620000000  0.5216600000000  0.5278280000000 1.0
C      1  0.4623670000000  0.5265860000000  0.5192860000000 1.0
C      1  0.5087600000000  0.5170170000000  0.4939080000000 1.0
C      1  0.4668650000000  0.5228480000000  0.4876540000000 1.0
C      1  0.5074390000000  0.4884110000000  0.4808700000000 1.0
C      1  0.4720640000000  0.4947040000000  0.4983270000000 1.0
C      1  0.5272730000000  0.5333550000000  0.4348720000000 1.0
C      1  0.4805580000000  0.4767400000000  0.4313870000000 1.0
C      1  0.5295440000000  0.4300560000000  0.4622160000000 1.0
C      1  0.4781550000000  0.4244490000000  0.5274840000000 1.0
C      1  0.5229140000000  0.4721290000000  0.5574690000000 1.0
C      1  0.4707380000000  0.5236980000000  0.5602720000000 1.0
C      1  0.5288420000000  0.5725220000000  0.5407490000000 1.0
C      1  0.4818490000000  0.5671270000000  0.4752130000000 1.0
C      1  0.4543110000000  0.4891960000000  0.4356070000000 1.0
C      1  0.5627840000000  0.4298090000000  0.4696880000000 1.0
C      1  0.4522930000000  0.4360300000000  0.5130890000000 1.0
C      1  0.5563260000000  0.4769280000000  0.5626080000000 1.0
C      1  0.4435520000000  0.5069000000000  0.5617810000000 1.0
C      1  0.5592580000000  0.5704420000000  0.5256240000000 1.0
C      1  0.4510750000000  0.5595290000000  0.4877130000000 1.0
C      1  0.5594990000000  0.5243430000000  0.4317180000000 1.0
C      1  0.4247020000000  0.5110330000000  0.5425440000000 1.0
C      1  0.5713230000000  0.5579660000000  0.5041480000000 1.0
C      1  0.4313790000000  0.5402150000000  0.4819260000000 1.0
C      1  0.5734270000000  0.5025670000000  0.4451100000000 1.0
C      1  0.4394010000000  0.4814000000000  0.4569370000000 1.0
C      1  0.5752820000000  0.4431770000000  0.4922160000000 1.0
C      1  0.4308730000000  0.4524310000000  0.5162980000000 1.0
C      1  0.5753860000000  0.4957660000000  0.5512180000000 1.0
C      1  0.4661560000000  0.5128190000000  0.4226300000000 1.0
C      1  0.5513410000000  0.4500210000000  0.4465560000000 1.0
C      1  0.4772110000000  0.4370030000000  0.4920220000000 1.0
C      1  0.5470820000000  0.4521900000000  0.5438040000000 1.0
C      1  0.4689690000000  0.4965570000000  0.5788550000000 1.0
C      1  0.5536130000000  0.5512190000000  0.5513110000000 1.0
C      1  0.4778040000000  0.5612790000000  0.5075790000000 1.0
C      1  0.5524660000000  0.5505950000000  0.4504320000000 1.0
C      1  0.4873970000000  0.4767970000000  0.5979640000000 1.0
C      1  0.5290190000000  0.5475670000000  0.5715260000000 1.0
C      1  0.4834630000000  0.5919980000000  0.5216430000000 1.0
C      1  0.5258390000000  0.5669370000000  0.4560200000000 1.0
C      1  0.4863190000000  0.5236970000000  0.3985680000000 1.0
C      1  0.5369970000000  0.4594700000000  0.4198970000000 1.0
C      1  0.4714130000000  0.3993860000000  0.4803170000000 1.0
C      1  0.5213780000000  0.4336970000000  0.5466390000000 1.0
C      1  0.4539320000000  0.5520590000000  0.5377700000000 1.0
C      1  0.5245390000000  0.5457670000000  0.5002040000000 1.0
C      1  0.4693240000000  0.5346220000000  0.4556550000000 1.0
C      1  0.5250770000000  0.4889280000000  0.4533810000000 1.0
C      1  0.4706990000000  0.4726640000000  0.4808020000000 1.0
C      1  0.5254320000000  0.4453460000000  0.5057200000000 1.0
C      1  0.4619510000000  0.4712860000000  0.5484140000000 1.0
C      1  0.5313870000000  0.5172860000000  0.5455550000000 1.0
C      1  0.4918900000000  0.4031790000000  0.5072590000000 1.0
C      1  0.4964640000000  0.4519030000000  0.5541270000000 1.0
C      1  0.5078430000000  0.4982650000000  0.5868380000000 1.0
C      1  0.5023610000000  0.5626270000000  0.5591940000000 1.0
C      1  0.4988260000000  0.5912580000000  0.4928190000000 1.0
C      1  0.5006450000000  0.5540020000000  0.4401560000000 1.0
C      1  0.4958640000000  0.4915320000000  0.4064740000000 1.0
C      1  0.4970560000000  0.4385580000000  0.4563330000000 1.0
END
