TITL C-2782231-7322-1394 0.00119016720998206 125000 -715.07864361034 0 0 121 (C1) n - 1
REM
REM in /home/nfs/bkarasulu/CARBON/AIRSS/Generating-Clusters/REBO/Higher-Symm/SD-CG/HFTN-CG
REM
REM
REM
REM
REM
REM ./C.cell (12c818d87b63d06a65506943cc24bca4)
REM
REM compiler GCC version 9.2.1 20190827 (Red Hat 9.2.1-1)
REM options -cpp -mtune=generic -march=x86-64 -g -O0 -fpre-include=/usr/include/finclude/math-vector-fortran.h
REM seed 1748541288 1793827267 1653558375 -965780384 96163623 -402289827 -20510775 -498103209 207057175 -1250005905 -668735505 -1899559246 299646985 -2111510261 465235857 -1141796261 829621436 -1404554141 -1300379038 -1394647689 558941299 2064704185 1875210512 1880617581 2011599518 1901247680 1523095389 -517416088 -1510215323 -1652870679 1037737790 1587799962 1221804214
REM
CELL 1.54180   50.00000   50.00000   50.00000   90.00000   90.00000   90.00000
LATT -1
SFAC C  
C      1  0.5017180000000  0.4009330000000  0.5098400000000 1.0
C      1  0.4160390000000  0.5461760000000  0.5095830000000 1.0
C      1  0.5937520000000  0.5563020000000  0.5153560000000 1.0
C      1  0.5000140000000  0.4019540000000  0.4817480000000 1.0
C      1  0.4181270000000  0.5392960000000  0.4820110000000 1.0
C      1  0.5920990000000  0.5567370000000  0.4864810000000 1.0
C      1  0.4319140000000  0.4301110000000  0.5253640000000 1.0
C      1  0.4722350000000  0.5888520000000  0.5154430000000 1.0
C      1  0.5950590000000  0.4833400000000  0.5117270000000 1.0
C      1  0.4293930000000  0.4271000000000  0.4927410000000 1.0
C      1  0.4693330000000  0.5815210000000  0.4835150000000 1.0
C      1  0.5959980000000  0.4808130000000  0.4792730000000 1.0
C      1  0.5175250000000  0.6075790000000  0.5019710000000 1.0
C      1  0.5774400000000  0.4459710000000  0.4856860000000 1.0
C      1  0.3840440000000  0.4566260000000  0.5010480000000 1.0
C      1  0.4966510000000  0.6076890000000  0.5153000000000 1.0
C      1  0.5776360000000  0.4445330000000  0.5133630000000 1.0
C      1  0.3860310000000  0.4681170000000  0.5257610000000 1.0
C      1  0.4257590000000  0.4512790000000  0.4746620000000 1.0
C      1  0.5220990000000  0.5629630000000  0.4752010000000 1.0
C      1  0.5305410000000  0.4607370000000  0.4853720000000 1.0
C      1  0.4307600000000  0.4863570000000  0.5355060000000 1.0
C      1  0.5220790000000  0.5593790000000  0.5278360000000 1.0
C      1  0.5303630000000  0.4576370000000  0.5167950000000 1.0
C      1  0.4450410000000  0.5161430000000  0.4205900000000 1.0
C      1  0.5507790000000  0.5394390000000  0.4349850000000 1.0
C      1  0.5125600000000  0.4380560000000  0.4325820000000 1.0
C      1  0.4402810000000  0.5145300000000  0.5739550000000 1.0
C      1  0.5451320000000  0.5430780000000  0.5720000000000 1.0
C      1  0.5142000000000  0.4391630000000  0.5668900000000 1.0
C      1  0.3887540000000  0.5149550000000  0.5362160000000 1.0
C      1  0.5627850000000  0.5898460000000  0.5302170000000 1.0
C      1  0.5457590000000  0.4133680000000  0.5323700000000 1.0
C      1  0.3966500000000  0.4908260000000  0.4699590000000 1.0
C      1  0.5616130000000  0.5949390000000  0.4731830000000 1.0
C      1  0.5439840000000  0.4196240000000  0.4614360000000 1.0
C      1  0.5789410000000  0.5276240000000  0.4442200000000 1.0
C      1  0.4979830000000  0.4177220000000  0.4421430000000 1.0
C      1  0.4297430000000  0.5356640000000  0.4310010000000 1.0
C      1  0.5710810000000  0.5370510000000  0.5619470000000 1.0
C      1  0.4987550000000  0.4197870000000  0.5566770000000 1.0
C      1  0.4296740000000  0.5346510000000  0.5591770000000 1.0
C      1  0.5861380000000  0.4757340000000  0.4539710000000 1.0
C      1  0.4338360000000  0.4452320000000  0.4465920000000 1.0
C      1  0.4951150000000  0.5716970000000  0.4644300000000 1.0
C      1  0.5788190000000  0.4788550000000  0.5338450000000 1.0
C      1  0.4368910000000  0.4571070000000  0.5432350000000 1.0
C      1  0.4976650000000  0.5727930000000  0.5389670000000 1.0
C      1  0.5364760000000  0.5858100000000  0.4877510000000 1.0
C      1  0.5522650000000  0.4439620000000  0.4726280000000 1.0
C      1  0.3986800000000  0.4641210000000  0.4781150000000 1.0
C      1  0.5410970000000  0.5796460000000  0.5179370000000 1.0
C      1  0.5527480000000  0.4399030000000  0.5264060000000 1.0
C      1  0.4009880000000  0.4899510000000  0.5355080000000 1.0
C      1  0.4694430000000  0.5205950000000  0.5174980000000 1.0
C      1  0.5461930000000  0.5153100000000  0.5158130000000 1.0
C      1  0.4804180000000  0.4696350000000  0.5169340000000 1.0
C      1  0.4752580000000  0.5241050000000  0.4886650000000 1.0
C      1  0.5465110000000  0.5175610000000  0.4863320000000 1.0
C      1  0.4787970000000  0.4670360000000  0.4856140000000 1.0
C      1  0.4037600000000  0.5163610000000  0.4740540000000 1.0
C      1  0.5849160000000  0.5812470000000  0.4743710000000 1.0
C      1  0.5243790000000  0.4019030000000  0.4675950000000 1.0
C      1  0.3915910000000  0.5378740000000  0.5219250000000 1.0
C      1  0.5885580000000  0.5809860000000  0.5283350000000 1.0
C      1  0.5271370000000  0.3968480000000  0.5214440000000 1.0
C      1  0.5355420000000  0.5323410000000  0.5352720000000 1.0
C      1  0.5027510000000  0.4640680000000  0.5312930000000 1.0
C      1  0.4560890000000  0.5080870000000  0.5379550000000 1.0
C      1  0.5379500000000  0.5371190000000  0.4649600000000 1.0
C      1  0.5022340000000  0.4645070000000  0.4717540000000 1.0
C      1  0.4659600000000  0.5131520000000  0.4660550000000 1.0
C      1  0.5308890000000  0.4912620000000  0.4793120000000 1.0
C      1  0.4474120000000  0.4706030000000  0.4836750000000 1.0
C      1  0.5038590000000  0.5388700000000  0.4854870000000 1.0
C      1  0.5310460000000  0.4890330000000  0.5189980000000 1.0
C      1  0.4515060000000  0.4778120000000  0.5124170000000 1.0
C      1  0.4997160000000  0.5356190000000  0.5180820000000 1.0
C      1  0.5783740000000  0.5061310000000  0.5532430000000 1.0
C      1  0.4594130000000  0.4314410000000  0.5461130000000 1.0
C      1  0.4647610000000  0.5680690000000  0.5416480000000 1.0
C      1  0.5822710000000  0.5011890000000  0.4352050000000 1.0
C      1  0.4597290000000  0.4275300000000  0.4416500000000 1.0
C      1  0.4637890000000  0.5643550000000  0.4541760000000 1.0
C      1  0.4736210000000  0.4096400000000  0.4645730000000 1.0
C      1  0.4337500000000  0.5524070000000  0.4567080000000 1.0
C      1  0.5919500000000  0.5332920000000  0.4698090000000 1.0
C      1  0.4813750000000  0.4104910000000  0.5306880000000 1.0
C      1  0.4364540000000  0.5536700000000  0.5347870000000 1.0
C      1  0.5912490000000  0.5316760000000  0.5347880000000 1.0
C      1  0.5396690000000  0.4565900000000  0.5721140000000 1.0
C      1  0.4466810000000  0.4848520000000  0.5845460000000 1.0
C      1  0.5157310000000  0.5508100000000  0.5822980000000 1.0
C      1  0.5372640000000  0.4548640000000  0.4256230000000 1.0
C      1  0.4505230000000  0.4871180000000  0.4131010000000 1.0
C      1  0.5214370000000  0.5507290000000  0.4218250000000 1.0
C      1  0.5609520000000  0.4762740000000  0.4322660000000 1.0
C      1  0.4552170000000  0.4560580000000  0.4240190000000 1.0
C      1  0.4910340000000  0.5591220000000  0.4346170000000 1.0
C      1  0.5604160000000  0.4799010000000  0.5612850000000 1.0
C      1  0.4552760000000  0.4553340000000  0.5700110000000 1.0
C      1  0.4868250000000  0.5591900000000  0.5661850000000 1.0
C      1  0.5298870000000  0.4872780000000  0.4353550000000 1.0
C      1  0.4792870000000  0.4783860000000  0.4293960000000 1.0
C      1  0.4973950000000  0.5272790000000  0.4297240000000 1.0
C      1  0.5293620000000  0.4892750000000  0.5668200000000 1.0
C      1  0.4787130000000  0.4781170000000  0.5734780000000 1.0
C      1  0.4938380000000  0.5272700000000  0.5701840000000 1.0
C      1  0.6025280000000  0.5107830000000  0.4839800000000 1.0
C      1  0.4513410000000  0.4062780000000  0.4849050000000 1.0
C      1  0.4365380000000  0.5745800000000  0.4808740000000 1.0
C      1  0.6059370000000  0.5128870000000  0.5140510000000 1.0
C      1  0.4536780000000  0.4067240000000  0.5157010000000 1.0
C      1  0.4410770000000  0.5770390000000  0.5112180000000 1.0
C      1  0.5038430000000  0.4684540000000  0.4417330000000 1.0
C      1  0.4737890000000  0.5097510000000  0.4359480000000 1.0
C      1  0.5260170000000  0.5162190000000  0.4403810000000 1.0
C      1  0.5041110000000  0.4700610000000  0.5615610000000 1.0
C      1  0.4722780000000  0.5082940000000  0.5658530000000 1.0
C      1  0.5238600000000  0.5178970000000  0.5621610000000 1.0
C      1  0.5102130000000  0.5085410000000  0.5001060000000 1.0
END
