TITL C-2782230-7391-829 0.000907818850532854 125000 -1137.87037816156 0 0 195 (C1) n - 1
REM
REM in /home/nfs/bkarasulu/CARBON/AIRSS/Generating-Clusters/REBO/Higher-Symm/SD-CG/HFTN-CG
REM
REM
REM
REM
REM
REM ./C.cell (12c818d87b63d06a65506943cc24bca4)
REM
REM compiler GCC version 9.2.1 20190827 (Red Hat 9.2.1-1)
REM options -cpp -mtune=generic -march=x86-64 -g -O0 -fpre-include=/usr/include/finclude/math-vector-fortran.h
REM seed -60896474 -1635472156 -522235683 -2136269107 749388667 -2146387634 -1298836031 -69801351 392774899 -348305157 -162491661 553230646 1862687140 885468117 -234729659 2082260449 -1102970509 -1262468297 -390266597 -1507562875 1994938514 -2095984475 -1387420724 1746432190 66284553 410194996 -746362045 2065803892 -1545753527 -556521685 -1329500004 -1658697888 1027243036
REM
CELL 1.54180   50.00000   50.00000   50.00000   90.00000   90.00000   90.00000
LATT -1
SFAC C  
C      1  0.5804890000000  0.5103120000000  0.4364740000000 1.0
C      1  0.5632680000000  0.5106420000000  0.5804520000000 1.0
C      1  0.4184500000000  0.5102660000000  0.5640150000000 1.0
C      1  0.4340300000000  0.5105100000000  0.4191500000000 1.0
C      1  0.4156050000000  0.4911350000000  0.4354640000000 1.0
C      1  0.4360990000000  0.4907510000000  0.5803060000000 1.0
C      1  0.5798010000000  0.4905730000000  0.5636440000000 1.0
C      1  0.5636460000000  0.4909130000000  0.4188060000000 1.0
C      1  0.5317620000000  0.4642880000000  0.4525610000000 1.0
C      1  0.5416770000000  0.4645890000000  0.5291130000000 1.0
C      1  0.4695600000000  0.4636750000000  0.5451110000000 1.0
C      1  0.4535470000000  0.4630090000000  0.4683300000000 1.0
C      1  0.4696220000000  0.5340060000000  0.4569130000000 1.0
C      1  0.4580020000000  0.5354010000000  0.5263840000000 1.0
C      1  0.5291460000000  0.5375740000000  0.5431150000000 1.0
C      1  0.5425340000000  0.5364590000000  0.4708980000000 1.0
C      1  0.5307660000000  0.5529750000000  0.4482000000000 1.0
C      1  0.5527980000000  0.5542420000000  0.5328000000000 1.0
C      1  0.4686750000000  0.5517740000000  0.5493290000000 1.0
C      1  0.4471410000000  0.5522120000000  0.4679010000000 1.0
C      1  0.4691640000000  0.4456190000000  0.4457020000000 1.0
C      1  0.4472120000000  0.4487350000000  0.5314450000000 1.0
C      1  0.5287810000000  0.4482120000000  0.5519310000000 1.0
C      1  0.5527750000000  0.4467850000000  0.4679420000000 1.0
C      1  0.3837460000000  0.4939320000000  0.4848920000000 1.0
C      1  0.5141450000000  0.4933760000000  0.3874640000000 1.0
C      1  0.6143200000000  0.4936170000000  0.5159020000000 1.0
C      1  0.4836440000000  0.4954040000000  0.6146070000000 1.0
C      1  0.6145830000000  0.5070200000000  0.4845150000000 1.0
C      1  0.4831880000000  0.5075750000000  0.3870190000000 1.0
C      1  0.3840290000000  0.5073070000000  0.5162770000000 1.0
C      1  0.5152140000000  0.5082900000000  0.6143520000000 1.0
C      1  0.5021340000000  0.5510810000000  0.5543330000000 1.0
C      1  0.4447480000000  0.5513370000000  0.5014130000000 1.0
C      1  0.4975850000000  0.5489640000000  0.4445580000000 1.0
C      1  0.5540420000000  0.5524920000000  0.4987660000000 1.0
C      1  0.4965170000000  0.4497060000000  0.5604740000000 1.0
C      1  0.5533440000000  0.4511250000000  0.5017100000000 1.0
C      1  0.5026130000000  0.4506630000000  0.4410670000000 1.0
C      1  0.4444750000000  0.4504250000000  0.4978740000000 1.0
C      1  0.4541760000000  0.5850500000000  0.4647110000000 1.0
C      1  0.5333790000000  0.5847490000000  0.4549670000000 1.0
C      1  0.5485320000000  0.5878850000000  0.5353000000000 1.0
C      1  0.4685900000000  0.5852980000000  0.5438290000000 1.0
C      1  0.5467970000000  0.4132610000000  0.4678740000000 1.0
C      1  0.4671980000000  0.4144600000000  0.4520030000000 1.0
C      1  0.4557020000000  0.4173010000000  0.5304340000000 1.0
C      1  0.5330770000000  0.4146610000000  0.5477100000000 1.0
C      1  0.4650970000000  0.5535480000000  0.4089020000000 1.0
C      1  0.5904500000000  0.5536120000000  0.4669880000000 1.0
C      1  0.5334050000000  0.5543400000000  0.5908520000000 1.0
C      1  0.4086820000000  0.5536720000000  0.5337360000000 1.0
C      1  0.5343850000000  0.4473970000000  0.4058750000000 1.0
C      1  0.4077820000000  0.4477350000000  0.4668370000000 1.0
C      1  0.4656730000000  0.4480570000000  0.5950160000000 1.0
C      1  0.5898210000000  0.4471810000000  0.5334540000000 1.0
C      1  0.4157500000000  0.5593410000000  0.5063780000000 1.0
C      1  0.4928800000000  0.5580200000000  0.4156120000000 1.0
C      1  0.5837380000000  0.5594080000000  0.4945710000000 1.0
C      1  0.5058020000000  0.5595400000000  0.5835170000000 1.0
C      1  0.5828910000000  0.4421680000000  0.5056760000000 1.0
C      1  0.5060280000000  0.4423110000000  0.4116880000000 1.0
C      1  0.4149040000000  0.4423030000000  0.4946340000000 1.0
C      1  0.4931460000000  0.4432970000000  0.5882150000000 1.0
C      1  0.5962960000000  0.4350730000000  0.4752440000000 1.0
C      1  0.5243590000000  0.4367540000000  0.6000240000000 1.0
C      1  0.4032550000000  0.4344230000000  0.5253610000000 1.0
C      1  0.4740670000000  0.4360960000000  0.4018410000000 1.0
C      1  0.4024980000000  0.5665270000000  0.4764940000000 1.0
C      1  0.4750910000000  0.5662200000000  0.5965000000000 1.0
C      1  0.5975790000000  0.5656480000000  0.5245400000000 1.0
C      1  0.5232480000000  0.5653210000000  0.4032960000000 1.0
C      1  0.4805180000000  0.4117140000000  0.5484000000000 1.0
C      1  0.4555270000000  0.4059660000000  0.4802430000000 1.0
C      1  0.5198160000000  0.4031700000000  0.4537110000000 1.0
C      1  0.5490230000000  0.4008990000000  0.5239690000000 1.0
C      1  0.5230180000000  0.5983700000000  0.5505130000000 1.0
C      1  0.5509250000000  0.5920030000000  0.4801020000000 1.0
C      1  0.4818680000000  0.5968050000000  0.4531120000000 1.0
C      1  0.4544060000000  0.5942540000000  0.5169890000000 1.0
C      1  0.4615750000000  0.3968300000000  0.4277770000000 1.0
C      1  0.5716060000000  0.3965000000000  0.4600890000000 1.0
C      1  0.5355020000000  0.3980780000000  0.5734300000000 1.0
C      1  0.4328350000000  0.3973000000000  0.5344010000000 1.0
C      1  0.5379170000000  0.6027410000000  0.4304310000000 1.0
C      1  0.4296210000000  0.6030860000000  0.4601210000000 1.0
C      1  0.4599390000000  0.6024160000000  0.5682390000000 1.0
C      1  0.5738230000000  0.6046120000000  0.5401700000000 1.0
C      1  0.4304630000000  0.5371420000000  0.5741690000000 1.0
C      1  0.4250250000000  0.5376060000000  0.4318830000000 1.0
C      1  0.5677780000000  0.5371100000000  0.4268560000000 1.0
C      1  0.5736820000000  0.5375740000000  0.5686270000000 1.0
C      1  0.5676580000000  0.4636640000000  0.5739030000000 1.0
C      1  0.5734360000000  0.4639300000000  0.4308070000000 1.0
C      1  0.4289260000000  0.4642680000000  0.4256460000000 1.0
C      1  0.4271580000000  0.4633640000000  0.5685890000000 1.0
C      1  0.5376350000000  0.5092750000000  0.4064980000000 1.0
C      1  0.5944560000000  0.5092250000000  0.5390770000000 1.0
C      1  0.4606740000000  0.5101770000000  0.5938880000000 1.0
C      1  0.4033780000000  0.5095640000000  0.4615500000000 1.0
C      1  0.4593800000000  0.4918770000000  0.4058950000000 1.0
C      1  0.4036350000000  0.4915950000000  0.5396150000000 1.0
C      1  0.5383170000000  0.4922350000000  0.5947430000000 1.0
C      1  0.5948470000000  0.4915710000000  0.4611190000000 1.0
C      1  0.5220530000000  0.5613760000000  0.5084880000000 1.0
C      1  0.4970160000000  0.5644860000000  0.5243320000000 1.0
C      1  0.4752270000000  0.5630350000000  0.5032560000000 1.0
C      1  0.4903240000000  0.5636290000000  0.4736750000000 1.0
C      1  0.4782680000000  0.4477040000000  0.4952040000000 1.0
C      1  0.5034600000000  0.4401880000000  0.5142280000000 1.0
C      1  0.5274650000000  0.4339780000000  0.4959900000000 1.0
C      1  0.5084570000000  0.4374590000000  0.4705620000000 1.0
C      1  0.5730680000000  0.5620790000000  0.4456980000000 1.0
C      1  0.5551940000000  0.5628200000000  0.5740000000000 1.0
C      1  0.4254280000000  0.5621960000000  0.5553910000000 1.0
C      1  0.4441840000000  0.5623270000000  0.4264530000000 1.0
C      1  0.4248800000000  0.4394910000000  0.4450860000000 1.0
C      1  0.4450910000000  0.4385430000000  0.5768860000000 1.0
C      1  0.5728640000000  0.4385830000000  0.5551990000000 1.0
C      1  0.5553930000000  0.4387300000000  0.4238820000000 1.0
C      1  0.5594090000000  0.4941760000000  0.4862260000000 1.0
C      1  0.5128010000000  0.4937620000000  0.5593250000000 1.0
C      1  0.4398620000000  0.4921040000000  0.5119130000000 1.0
C      1  0.4866790000000  0.4888280000000  0.4460840000000 1.0
C      1  0.4379100000000  0.5053610000000  0.4848570000000 1.0
C      1  0.4853880000000  0.5067350000000  0.5592090000000 1.0
C      1  0.5594620000000  0.5070500000000  0.5139320000000 1.0
C      1  0.5119160000000  0.5072790000000  0.4424070000000 1.0
C      1  0.4185450000000  0.4353970000000  0.5558430000000 1.0
C      1  0.4432490000000  0.4370250000000  0.4165610000000 1.0
C      1  0.5828420000000  0.4365450000000  0.4439020000000 1.0
C      1  0.5544480000000  0.4362120000000  0.5837120000000 1.0
C      1  0.5836530000000  0.5649760000000  0.5557000000000 1.0
C      1  0.5541140000000  0.5643550000000  0.4178250000000 1.0
C      1  0.4166840000000  0.5651810000000  0.4454500000000 1.0
C      1  0.4434700000000  0.5645330000000  0.5836640000000 1.0
C      1  0.5062280000000  0.5907910000000  0.4696000000000 1.0
C      1  0.5370250000000  0.5899130000000  0.5047860000000 1.0
C      1  0.4988880000000  0.5947060000000  0.5357920000000 1.0
C      1  0.4715590000000  0.5939830000000  0.4915740000000 1.0
C      1  0.4939210000000  0.4086670000000  0.4694040000000 1.0
C      1  0.4709140000000  0.4161330000000  0.5023340000000 1.0
C      1  0.5044910000000  0.4152370000000  0.5335390000000 1.0
C      1  0.5358570000000  0.4036460000000  0.4986250000000 1.0
C      1  0.4087490000000  0.4042650000000  0.5327280000000 1.0
C      1  0.4651390000000  0.4058100000000  0.4045190000000 1.0
C      1  0.5946260000000  0.4051080000000  0.4655770000000 1.0
C      1  0.5315380000000  0.4062000000000  0.5967860000000 1.0
C      1  0.5965100000000  0.5958050000000  0.5337690000000 1.0
C      1  0.5316970000000  0.5956320000000  0.4071170000000 1.0
C      1  0.4064810000000  0.5967240000000  0.4676950000000 1.0
C      1  0.4661490000000  0.5963250000000  0.5918570000000 1.0
C      1  0.4487580000000  0.5064060000000  0.5329150000000 1.0
C      1  0.4627240000000  0.5064130000000  0.4467430000000 1.0
C      1  0.5515920000000  0.5085520000000  0.4647120000000 1.0
C      1  0.5349800000000  0.5075870000000  0.5523470000000 1.0
C      1  0.5512860000000  0.4932190000000  0.5356560000000 1.0
C      1  0.5358750000000  0.4944590000000  0.4473120000000 1.0
C      1  0.4447140000000  0.4918260000000  0.4626760000000 1.0
C      1  0.4636880000000  0.4928470000000  0.5511900000000 1.0
C      1  0.4724880000000  0.5377930000000  0.5801830000000 1.0
C      1  0.4170240000000  0.5370110000000  0.4732740000000 1.0
C      1  0.5261670000000  0.5362150000000  0.4189430000000 1.0
C      1  0.5817740000000  0.5369750000000  0.5276190000000 1.0
C      1  0.5266460000000  0.4642940000000  0.5820880000000 1.0
C      1  0.5817450000000  0.4642690000000  0.4724070000000 1.0
C      1  0.4713600000000  0.4649700000000  0.4178270000000 1.0
C      1  0.4169230000000  0.4641530000000  0.5284820000000 1.0
C      1  0.5992170000000  0.5254700000000  0.4608170000000 1.0
C      1  0.5394240000000  0.5261070000000  0.5995050000000 1.0
C      1  0.3998110000000  0.5255750000000  0.5397270000000 1.0
C      1  0.4581650000000  0.5255580000000  0.4000570000000 1.0
C      1  0.3982310000000  0.4757190000000  0.4605990000000 1.0
C      1  0.4589530000000  0.4768310000000  0.6016330000000 1.0
C      1  0.5987380000000  0.4753070000000  0.5395850000000 1.0
C      1  0.5405390000000  0.4761330000000  0.3983060000000 1.0
C      1  0.4780010000000  0.5178260000000  0.5081300000000 1.0
C      1  0.4889170000000  0.5313050000000  0.4831330000000 1.0
C      1  0.5188180000000  0.5358100000000  0.4904590000000 1.0
C      1  0.5211570000000  0.5211370000000  0.5174880000000 1.0
C      1  0.5198530000000  0.4760890000000  0.5085730000000 1.0
C      1  0.5161730000000  0.4691620000000  0.4810410000000 1.0
C      1  0.4862680000000  0.4706810000000  0.4714370000000 1.0
C      1  0.4928940000000  0.4684920000000  0.5258950000000 1.0
C      1  0.4105320000000  0.4819030000000  0.5016060000000 1.0
C      1  0.4972770000000  0.4830720000000  0.4148150000000 1.0
C      1  0.5871240000000  0.4826130000000  0.4991680000000 1.0
C      1  0.5001670000000  0.4832620000000  0.5876820000000 1.0
C      1  0.5873070000000  0.5183540000000  0.5009700000000 1.0
C      1  0.4995690000000  0.5181480000000  0.4148000000000 1.0
C      1  0.4117510000000  0.5176020000000  0.4997110000000 1.0
C      1  0.4988220000000  0.5189650000000  0.5866910000000 1.0
C      1  0.5037780000000  0.5972260000000  0.5023990000000 1.0
C      1  0.5020250000000  0.4023980000000  0.5018410000000 1.0
C      1  0.4995000000000  0.4995360000000  0.5201100000000 1.0
END
