TITL C-2782233-7966-1101 0.00504972541911492 125000 -870.354779530687 0 0 147 (C1) n - 1
REM
REM in /home/nfs/bkarasulu/CARBON/AIRSS/Generating-Clusters/REBO/Higher-Symm/SD-CG/HFTN-CG
REM
REM
REM
REM
REM
REM ./C.cell (12c818d87b63d06a65506943cc24bca4)
REM
REM compiler GCC version 9.2.1 20190827 (Red Hat 9.2.1-1)
REM options -cpp -mtune=generic -march=x86-64 -g -O0 -fpre-include=/usr/include/finclude/math-vector-fortran.h
REM seed 929273822 1865475725 -119212112 -709246573 -993463849 1870114174 1032982472 -863773005 802875268 -1127387769 -1459579543 -748624644 97140761 -409060234 928451961 -470626609 -551189357 -2146393557 1160215362 1402696831 1551812310 2026129646 952479352 -1627916001 1120995972 -448894827 -257741699 -1576969783 1746272369 1193420337 1015462840 -2111446163 -1147961341
REM
CELL 1.54180   50.00000   50.00000   50.00000   90.00000   90.00000   90.00000
LATT -1
SFAC C  
C      1  0.5675850000000  0.4775370000000  0.4221770000000 1.0
C      1  0.5840280000000  0.4781290000000  0.5430490000000 1.0
C      1  0.4832410000000  0.4801630000000  0.5967190000000 1.0
C      1  0.4076910000000  0.4787440000000  0.5105410000000 1.0
C      1  0.4519980000000  0.4754290000000  0.4117960000000 1.0
C      1  0.4320690000000  0.5290580000000  0.4215850000000 1.0
C      1  0.4127360000000  0.5229950000000  0.5449160000000 1.0
C      1  0.5176730000000  0.5268200000000  0.5916560000000 1.0
C      1  0.5973510000000  0.5229740000000  0.5107090000000 1.0
C      1  0.5419730000000  0.5259710000000  0.4176390000000 1.0
C      1  0.4623260000000  0.5987850000000  0.4709220000000 1.0
C      1  0.5204340000000  0.5959020000000  0.4605450000000 1.0
C      1  0.5498630000000  0.5932320000000  0.5119910000000 1.0
C      1  0.5136480000000  0.5958800000000  0.5580430000000 1.0
C      1  0.4541840000000  0.5937380000000  0.5288730000000 1.0
C      1  0.5359960000000  0.4034850000000  0.4665860000000 1.0
C      1  0.4787580000000  0.4016230000000  0.4563230000000 1.0
C      1  0.4488220000000  0.4035650000000  0.5074920000000 1.0
C      1  0.4908650000000  0.4077300000000  0.5524360000000 1.0
C      1  0.5449400000000  0.4059630000000  0.5279580000000 1.0
C      1  0.4530390000000  0.5086580000000  0.4038360000000 1.0
C      1  0.5727290000000  0.5115180000000  0.4241800000000 1.0
C      1  0.5943780000000  0.5109900000000  0.5429060000000 1.0
C      1  0.4869220000000  0.5140610000000  0.5998320000000 1.0
C      1  0.3941960000000  0.5087420000000  0.5199600000000 1.0
C      1  0.5533790000000  0.4991460000000  0.3997440000000 1.0
C      1  0.4263780000000  0.4955100000000  0.4217670000000 1.0
C      1  0.4074780000000  0.4891010000000  0.5433850000000 1.0
C      1  0.5140870000000  0.4941910000000  0.6011970000000 1.0
C      1  0.6048940000000  0.4906670000000  0.5189910000000 1.0
C      1  0.4578190000000  0.5394440000000  0.5203840000000 1.0
C      1  0.4591510000000  0.5339250000000  0.4702860000000 1.0
C      1  0.5105290000000  0.5427940000000  0.4593430000000 1.0
C      1  0.5476740000000  0.5385990000000  0.5022930000000 1.0
C      1  0.5092480000000  0.5399280000000  0.5393700000000 1.0
C      1  0.5379550000000  0.4574230000000  0.5228590000000 1.0
C      1  0.5367090000000  0.4582550000000  0.4679400000000 1.0
C      1  0.4859580000000  0.4550960000000  0.4561020000000 1.0
C      1  0.4553910000000  0.4556150000000  0.5018600000000 1.0
C      1  0.4870630000000  0.4615190000000  0.5476190000000 1.0
C      1  0.5304770000000  0.4342200000000  0.4916000000000 1.0
C      1  0.5147750000000  0.4360120000000  0.5355280000000 1.0
C      1  0.4832060000000  0.4358680000000  0.5250740000000 1.0
C      1  0.4709870000000  0.4317440000000  0.4844690000000 1.0
C      1  0.5075180000000  0.4315450000000  0.4665220000000 1.0
C      1  0.4622500000000  0.5611670000000  0.4871970000000 1.0
C      1  0.4810280000000  0.5626800000000  0.5230590000000 1.0
C      1  0.5269680000000  0.5598760000000  0.5285590000000 1.0
C      1  0.5249560000000  0.5635360000000  0.4958520000000 1.0
C      1  0.4852800000000  0.5628700000000  0.4624820000000 1.0
C      1  0.4328630000000  0.5098230000000  0.5104630000000 1.0
C      1  0.4694220000000  0.5103130000000  0.4399420000000 1.0
C      1  0.5485900000000  0.5114170000000  0.4555290000000 1.0
C      1  0.5575490000000  0.5097650000000  0.5281200000000 1.0
C      1  0.4900170000000  0.5108580000000  0.5602920000000 1.0
C      1  0.5661240000000  0.4909240000000  0.5096670000000 1.0
C      1  0.5356880000000  0.4902890000000  0.4425630000000 1.0
C      1  0.4540580000000  0.4886940000000  0.4494280000000 1.0
C      1  0.4437050000000  0.4907200000000  0.5272920000000 1.0
C      1  0.5107400000000  0.4908300000000  0.5616580000000 1.0
C      1  0.5209130000000  0.4827100000000  0.4788740000000 1.0
C      1  0.5237510000000  0.4822250000000  0.5122490000000 1.0
C      1  0.4937140000000  0.4828630000000  0.5264140000000 1.0
C      1  0.4727340000000  0.4798420000000  0.5020450000000 1.0
C      1  0.4893740000000  0.4802610000000  0.4733250000000 1.0
C      1  0.4773200000000  0.5117260000000  0.4791260000000 1.0
C      1  0.4727140000000  0.5131090000000  0.5113110000000 1.0
C      1  0.5040390000000  0.5151470000000  0.5231960000000 1.0
C      1  0.5281700000000  0.5144520000000  0.5014500000000 1.0
C      1  0.5092740000000  0.5148190000000  0.4738960000000 1.0
C      1  0.5369070000000  0.4828330000000  0.5820710000000 1.0
C      1  0.4346630000000  0.4804310000000  0.5585590000000 1.0
C      1  0.4214860000000  0.4912890000000  0.4553340000000 1.0
C      1  0.5266090000000  0.4874040000000  0.4129670000000 1.0
C      1  0.5919450000000  0.4816200000000  0.4916930000000 1.0
C      1  0.4640150000000  0.5225000000000  0.5790370000000 1.0
C      1  0.5678210000000  0.5194650000000  0.5591930000000 1.0
C      1  0.5811370000000  0.5125680000000  0.4572060000000 1.0
C      1  0.4861540000000  0.5124190000000  0.4120330000000 1.0
C      1  0.4063870000000  0.5175030000000  0.4916390000000 1.0
C      1  0.5011130000000  0.5601260000000  0.4246190000000 1.0
C      1  0.5750200000000  0.5566330000000  0.4793750000000 1.0
C      1  0.5487390000000  0.5605420000000  0.5691950000000 1.0
C      1  0.4490920000000  0.5555400000000  0.5621690000000 1.0
C      1  0.4298210000000  0.5623500000000  0.4637450000000 1.0
C      1  0.4927360000000  0.4413870000000  0.4192090000000 1.0
C      1  0.4247460000000  0.4453900000000  0.4780520000000 1.0
C      1  0.4561010000000  0.4464460000000  0.5689290000000 1.0
C      1  0.5518180000000  0.4447470000000  0.5653660000000 1.0
C      1  0.5732910000000  0.4427980000000  0.4639130000000 1.0
C      1  0.4555270000000  0.4732040000000  0.5849190000000 1.0
C      1  0.4137360000000  0.4714060000000  0.4797870000000 1.0
C      1  0.4823000000000  0.4649600000000  0.4083590000000 1.0
C      1  0.5813040000000  0.4651400000000  0.4487820000000 1.0
C      1  0.5662430000000  0.4728410000000  0.5677370000000 1.0
C      1  0.5469790000000  0.5321130000000  0.5831070000000 1.0
C      1  0.5892230000000  0.5321410000000  0.4801260000000 1.0
C      1  0.5091070000000  0.5343370000000  0.4146020000000 1.0
C      1  0.4184240000000  0.5399530000000  0.4494740000000 1.0
C      1  0.4324200000000  0.5295890000000  0.5675380000000 1.0
C      1  0.4777910000000  0.5596010000000  0.5539820000000 1.0
C      1  0.4306380000000  0.5601570000000  0.4942650000000 1.0
C      1  0.4711180000000  0.5661380000000  0.4324020000000 1.0
C      1  0.5464430000000  0.5605290000000  0.4695900000000 1.0
C      1  0.5527030000000  0.5587530000000  0.5411120000000 1.0
C      1  0.5223050000000  0.4417460000000  0.5642250000000 1.0
C      1  0.5625510000000  0.4411390000000  0.4927460000000 1.0
C      1  0.5170740000000  0.4398630000000  0.4364470000000 1.0
C      1  0.4499770000000  0.4397040000000  0.4639830000000 1.0
C      1  0.4536310000000  0.4415590000000  0.5391680000000 1.0
C      1  0.5540010000000  0.4307010000000  0.5380440000000 1.0
C      1  0.4826940000000  0.4313130000000  0.5646150000000 1.0
C      1  0.4353530000000  0.4273530000000  0.5017060000000 1.0
C      1  0.4782750000000  0.4243270000000  0.4405000000000 1.0
C      1  0.5482410000000  0.4264620000000  0.4569730000000 1.0
C      1  0.4437490000000  0.5688080000000  0.5352840000000 1.0
C      1  0.5299820000000  0.5814140000000  0.5748810000000 1.0
C      1  0.5632210000000  0.5704650000000  0.5043520000000 1.0
C      1  0.5188750000000  0.5737160000000  0.4440760000000 1.0
C      1  0.4503040000000  0.5799230000000  0.4535500000000 1.0
C      1  0.4570070000000  0.5394500000000  0.4398740000000 1.0
C      1  0.5392600000000  0.5398770000000  0.4474160000000 1.0
C      1  0.5723220000000  0.5392950000000  0.5252660000000 1.0
C      1  0.4982880000000  0.5414120000000  0.5693480000000 1.0
C      1  0.4238990000000  0.5407530000000  0.5184400000000 1.0
C      1  0.5428220000000  0.4586130000000  0.4351120000000 1.0
C      1  0.4584170000000  0.4586610000000  0.4399930000000 1.0
C      1  0.4322120000000  0.4597420000000  0.5244800000000 1.0
C      1  0.5029120000000  0.4628160000000  0.5771690000000 1.0
C      1  0.5709040000000  0.4596950000000  0.5175190000000 1.0
C      1  0.5242130000000  0.6042720000000  0.5105000000000 1.0
C      1  0.5045510000000  0.6035970000000  0.5322730000000 1.0
C      1  0.4781440000000  0.6044180000000  0.5191930000000 1.0
C      1  0.4816620000000  0.6059340000000  0.4901630000000 1.0
C      1  0.5103170000000  0.6055530000000  0.4849320000000 1.0
C      1  0.4753020000000  0.3936110000000  0.5063430000000 1.0
C      1  0.4956710000000  0.3958450000000  0.5273880000000 1.0
C      1  0.5221990000000  0.3953970000000  0.5147560000000 1.0
C      1  0.5181100000000  0.3933400000000  0.4857880000000 1.0
C      1  0.4892460000000  0.3918490000000  0.4805820000000 1.0
C      1  0.4393400000000  0.5015700000000  0.5828420000000 1.0
C      1  0.4998630000000  0.4864820000000  0.4063990000000 1.0
C      1  0.5913070000000  0.4855630000000  0.4647070000000 1.0
C      1  0.5625860000000  0.5018380000000  0.5853000000000 1.0
C      1  0.4106030000000  0.5179010000000  0.4648070000000 1.0
C      1  0.4991030000000  0.4260720000000  0.4987220000000 1.0
C      1  0.4950070000000  0.5676070000000  0.4944930000000 1.0
END
