TITL C-2782232-2968-657 -0.00499481010618385 125000 -851.954755904046 0 0 151 (C1) n - 1
REM
REM in /home/nfs/bkarasulu/CARBON/AIRSS/Generating-Clusters/REBO/Higher-Symm/SD-CG/HFTN-CG
REM
REM
REM
REM
REM
REM ./C.cell (12c818d87b63d06a65506943cc24bca4)
REM
REM compiler GCC version 9.2.1 20190827 (Red Hat 9.2.1-1)
REM options -cpp -mtune=generic -march=x86-64 -g -O0 -fpre-include=/usr/include/finclude/math-vector-fortran.h
REM seed 1259117970 1545854589 647495417 570377950 1929899295 1045718300 -1993276923 1518017699 1595000030 -548327712 -869852549 232905807 1960891738 1552797885 601260305 -2020579389 835701913 1875142881 -1625032322 1853220195 649603737 -1624615707 -2125131878 -1690534349 666367712 1633487908 1105330902 -960156925 -2120953075 1668190945 1567165563 -1594399860 1266339250
REM
CELL 1.54180   50.00000   50.00000   50.00000   90.00000   90.00000   90.00000
LATT -1
SFAC C  
C      1  0.4167810000000  0.4427970000000  0.4926630000000 1.0
C      1  0.3942900000000  0.5344580000000  0.4552740000000 1.0
C      1  0.4218200000000  0.5226070000000  0.5527560000000 1.0
C      1  0.5671920000000  0.4186660000000  0.5171170000000 1.0
C      1  0.5674890000000  0.5292230000000  0.4384530000000 1.0
C      1  0.5590650000000  0.5527400000000  0.5630580000000 1.0
C      1  0.5630840000000  0.5047690000000  0.6215740000000 1.0
C      1  0.5379370000000  0.4090020000000  0.4546450000000 1.0
C      1  0.5381330000000  0.5945700000000  0.4460450000000 1.0
C      1  0.4690010000000  0.5265290000000  0.5872560000000 1.0
C      1  0.4653610000000  0.4022760000000  0.4738520000000 1.0
C      1  0.4712510000000  0.5605530000000  0.4344440000000 1.0
C      1  0.5242520000000  0.4571290000000  0.4833940000000 1.0
C      1  0.5392960000000  0.5427800000000  0.4753390000000 1.0
C      1  0.5301910000000  0.5008860000000  0.5529600000000 1.0
C      1  0.4104250000000  0.4788370000000  0.5283140000000 1.0
C      1  0.4096750000000  0.4851530000000  0.4678680000000 1.0
C      1  0.4033220000000  0.5324560000000  0.5077210000000 1.0
C      1  0.4832940000000  0.5063930000000  0.5630730000000 1.0
C      1  0.4809850000000  0.4464970000000  0.4679900000000 1.0
C      1  0.4914100000000  0.5422850000000  0.4552330000000 1.0
C      1  0.4951820000000  0.5578120000000  0.5086120000000 1.0
C      1  0.4926460000000  0.4596640000000  0.5380780000000 1.0
C      1  0.4871520000000  0.4796190000000  0.4362270000000 1.0
C      1  0.6002070000000  0.5244470000000  0.5196150000000 1.0
C      1  0.6043860000000  0.4699540000000  0.5184750000000 1.0
C      1  0.5915800000000  0.5064480000000  0.4674550000000 1.0
C      1  0.4270960000000  0.5713550000000  0.5259970000000 1.0
C      1  0.4354980000000  0.4409870000000  0.5504470000000 1.0
C      1  0.4238990000000  0.4942600000000  0.4165330000000 1.0
C      1  0.4215970000000  0.4489270000000  0.5202930000000 1.0
C      1  0.4105710000000  0.5069230000000  0.4436560000000 1.0
C      1  0.4228960000000  0.5396920000000  0.5288710000000 1.0
C      1  0.4867730000000  0.4219890000000  0.5273310000000 1.0
C      1  0.4891870000000  0.5111780000000  0.4118250000000 1.0
C      1  0.4880430000000  0.5675480000000  0.5485210000000 1.0
C      1  0.4907090000000  0.5816550000000  0.4487990000000 1.0
C      1  0.4980680000000  0.5208520000000  0.5978860000000 1.0
C      1  0.4926740000000  0.4083880000000  0.4704940000000 1.0
C      1  0.3979290000000  0.5004750000000  0.5066920000000 1.0
C      1  0.4250830000000  0.4815690000000  0.4978520000000 1.0
C      1  0.4169150000000  0.5153700000000  0.4819820000000 1.0
C      1  0.5392580000000  0.4173800000000  0.5455290000000 1.0
C      1  0.5378340000000  0.5074750000000  0.4107380000000 1.0
C      1  0.5395730000000  0.5712380000000  0.5529520000000 1.0
C      1  0.4644850000000  0.5710800000000  0.5124150000000 1.0
C      1  0.4645330000000  0.4570920000000  0.5531510000000 1.0
C      1  0.4580170000000  0.4796700000000  0.4286990000000 1.0
C      1  0.5138140000000  0.5653320000000  0.5652920000000 1.0
C      1  0.5172800000000  0.4072010000000  0.5237190000000 1.0
C      1  0.5176360000000  0.5300020000000  0.4165270000000 1.0
C      1  0.4487690000000  0.4681110000000  0.5245140000000 1.0
C      1  0.4429030000000  0.4989920000000  0.4512690000000 1.0
C      1  0.4527990000000  0.5399800000000  0.5178900000000 1.0
C      1  0.4820270000000  0.5960810000000  0.4717570000000 1.0
C      1  0.4821190000000  0.4911740000000  0.6000190000000 1.0
C      1  0.5001330000000  0.4174720000000  0.4447880000000 1.0
C      1  0.5206380000000  0.6057430000000  0.5154980000000 1.0
C      1  0.5195980000000  0.4426120000000  0.5834650000000 1.0
C      1  0.5195310000000  0.4527540000000  0.4058940000000 1.0
C      1  0.5549890000000  0.4898560000000  0.5476950000000 1.0
C      1  0.5535060000000  0.4551780000000  0.4757720000000 1.0
C      1  0.5598550000000  0.5315680000000  0.4894490000000 1.0
C      1  0.4211120000000  0.4654760000000  0.4345690000000 1.0
C      1  0.4249290000000  0.5770990000000  0.4959110000000 1.0
C      1  0.4312270000000  0.4666020000000  0.5726880000000 1.0
C      1  0.5670960000000  0.4624120000000  0.4270950000000 1.0
C      1  0.5684940000000  0.5694870000000  0.5011350000000 1.0
C      1  0.5689230000000  0.4600100000000  0.5697480000000 1.0
C      1  0.5060900000000  0.4572120000000  0.4633390000000 1.0
C      1  0.5327720000000  0.5696870000000  0.4833400000000 1.0
C      1  0.5059100000000  0.4875060000000  0.5632850000000 1.0
C      1  0.5746300000000  0.4934240000000  0.5739360000000 1.0
C      1  0.5804270000000  0.4554020000000  0.4580010000000 1.0
C      1  0.5722230000000  0.5649110000000  0.4711870000000 1.0
C      1  0.4369440000000  0.4186060000000  0.4647060000000 1.0
C      1  0.4398950000000  0.5580310000000  0.4402630000000 1.0
C      1  0.4366590000000  0.5188410000000  0.5874500000000 1.0
C      1  0.4712410000000  0.4859970000000  0.4657930000000 1.0
C      1  0.4730810000000  0.5388130000000  0.4905920000000 1.0
C      1  0.4768820000000  0.4863850000000  0.5291650000000 1.0
C      1  0.4600580000000  0.5222910000000  0.4690650000000 1.0
C      1  0.4779740000000  0.5174460000000  0.5236420000000 1.0
C      1  0.4648090000000  0.4699610000000  0.4951730000000 1.0
C      1  0.5017150000000  0.6086210000000  0.4870240000000 1.0
C      1  0.5025090000000  0.4667240000000  0.5879440000000 1.0
C      1  0.5058710000000  0.4311750000000  0.4225960000000 1.0
C      1  0.4534850000000  0.4470280000000  0.4552270000000 1.0
C      1  0.4269160000000  0.5391910000000  0.4605080000000 1.0
C      1  0.4510230000000  0.5059430000000  0.5582880000000 1.0
C      1  0.4539720000000  0.5692390000000  0.5451270000000 1.0
C      1  0.4531090000000  0.4211670000000  0.5293600000000 1.0
C      1  0.4548530000000  0.5059870000000  0.4080370000000 1.0
C      1  0.5882520000000  0.5113450000000  0.5487340000000 1.0
C      1  0.5900270000000  0.4583900000000  0.4907460000000 1.0
C      1  0.5856350000000  0.5394820000000  0.4600270000000 1.0
C      1  0.4702360000000  0.4656680000000  0.5804680000000 1.0
C      1  0.4480960000000  0.4494690000000  0.4217310000000 1.0
C      1  0.4563920000000  0.5863160000000  0.4854040000000 1.0
C      1  0.5301150000000  0.5018800000000  0.4515070000000 1.0
C      1  0.5414480000000  0.5261090000000  0.5241280000000 1.0
C      1  0.5439290000000  0.4655200000000  0.5170490000000 1.0
C      1  0.4965150000000  0.5876260000000  0.5249430000000 1.0
C      1  0.5030350000000  0.4323560000000  0.5555090000000 1.0
C      1  0.5016310000000  0.4801240000000  0.4054530000000 1.0
C      1  0.5687000000000  0.5362650000000  0.5405100000000 1.0
C      1  0.5711280000000  0.4489600000000  0.5175170000000 1.0
C      1  0.5593870000000  0.5032770000000  0.4441500000000 1.0
C      1  0.4916520000000  0.4883230000000  0.4999530000000 1.0
C      1  0.5027170000000  0.4989970000000  0.4702460000000 1.0
C      1  0.4990290000000  0.5200690000000  0.4967670000000 1.0
C      1  0.5844230000000  0.5526810000000  0.5174100000000 1.0
C      1  0.5877070000000  0.4563440000000  0.5448430000000 1.0
C      1  0.5846560000000  0.4841770000000  0.4450430000000 1.0
C      1  0.5846710000000  0.5197940000000  0.4947490000000 1.0
C      1  0.5803930000000  0.4901430000000  0.5250270000000 1.0
C      1  0.5697700000000  0.4847080000000  0.4827960000000 1.0
C      1  0.5468800000000  0.5469970000000  0.4298200000000 1.0
C      1  0.5509280000000  0.5366570000000  0.5858430000000 1.0
C      1  0.5447350000000  0.4108830000000  0.5039420000000 1.0
C      1  0.5391260000000  0.4802430000000  0.4191730000000 1.0
C      1  0.5425090000000  0.5801880000000  0.5205720000000 1.0
C      1  0.5412010000000  0.4436320000000  0.5579950000000 1.0
C      1  0.5518260000000  0.4454990000000  0.4060660000000 1.0
C      1  0.5307530000000  0.5966590000000  0.4852870000000 1.0
C      1  0.5509140000000  0.4476110000000  0.5958560000000 1.0
C      1  0.4487970000000  0.5449770000000  0.5678390000000 1.0
C      1  0.4463730000000  0.4166100000000  0.4974700000000 1.0
C      1  0.4540370000000  0.5377330000000  0.4168410000000 1.0
C      1  0.5235890000000  0.4635110000000  0.5417980000000 1.0
C      1  0.5171180000000  0.4745750000000  0.4414960000000 1.0
C      1  0.5262980000000  0.5514330000000  0.5119950000000 1.0
C      1  0.5435920000000  0.4226900000000  0.4779610000000 1.0
C      1  0.5517240000000  0.5711820000000  0.4481970000000 1.0
C      1  0.5632870000000  0.5125560000000  0.5950220000000 1.0
C      1  0.4737630000000  0.5211320000000  0.4393050000000 1.0
C      1  0.4766860000000  0.5369850000000  0.5496730000000 1.0
C      1  0.4733070000000  0.4373350000000  0.4998480000000 1.0
C      1  0.5110550000000  0.5584560000000  0.4341520000000 1.0
C      1  0.5181880000000  0.5388710000000  0.5849580000000 1.0
C      1  0.5068990000000  0.4169870000000  0.4933750000000 1.0
C      1  0.5182950000000  0.4438830000000  0.5086710000000 1.0
C      1  0.5213880000000  0.5314040000000  0.4562580000000 1.0
C      1  0.5275220000000  0.5298090000000  0.5543600000000 1.0
C      1  0.4049380000000  0.5532870000000  0.4820260000000 1.0
C      1  0.4215190000000  0.4896160000000  0.5527650000000 1.0
C      1  0.4228800000000  0.4558180000000  0.4676220000000 1.0
C      1  0.4230420000000  0.4311850000000  0.4363400000000 1.0
C      1  0.4327760000000  0.5786340000000  0.4628440000000 1.0
C      1  0.4485950000000  0.4874880000000  0.5934580000000 1.0
C      1  0.5516740000000  0.4975700000000  0.5087120000000 1.0
END
