TITL C-2782233-7966-463 0.000932512232219839 125000 -526.25453202038 0 0 92 (C1) n - 1
REM
REM in /home/nfs/bkarasulu/CARBON/AIRSS/Generating-Clusters/REBO/Higher-Symm/SD-CG/HFTN-CG
REM
REM
REM
REM
REM
REM ./C.cell (12c818d87b63d06a65506943cc24bca4)
REM
REM compiler GCC version 9.2.1 20190827 (Red Hat 9.2.1-1)
REM options -cpp -mtune=generic -march=x86-64 -g -O0 -fpre-include=/usr/include/finclude/math-vector-fortran.h
REM seed -181116013 -785914731 1903504470 1683076699 -207216400 716223513 -1987968490 378757626 -430305427 1696914414 1277226019 -1830272961 -2141073835 1319682576 430297352 1502751225 -312911893 371885335 -2126979914 317174322 109286533 1706035062 -1632313684 -1807004866 -1874670122 -1487116798 211909483 1976238135 1682718312 -1061867748 116457804 1072514686 815989641
REM
CELL 1.54180   50.00000   50.00000   50.00000   90.00000   90.00000   90.00000
LATT -1
SFAC C  
C      1  0.5064270000000  0.5403510000000  0.4909020000000 1.0
C      1  0.4933500000000  0.4590820000000  0.5092500000000 1.0
C      1  0.4821820000000  0.4738400000000  0.5379690000000 1.0
C      1  0.5175520000000  0.5257420000000  0.4620550000000 1.0
C      1  0.4925240000000  0.4767000000000  0.4229460000000 1.0
C      1  0.5068470000000  0.5235570000000  0.5771700000000 1.0
C      1  0.5077090000000  0.5855450000000  0.5284770000000 1.0
C      1  0.4934080000000  0.4135690000000  0.4723670000000 1.0
C      1  0.4737000000000  0.5581420000000  0.4624100000000 1.0
C      1  0.5256410000000  0.4416310000000  0.5401520000000 1.0
C      1  0.4223040000000  0.5445030000000  0.5205530000000 1.0
C      1  0.5810900000000  0.4566660000000  0.4767400000000 1.0
C      1  0.5488630000000  0.4365810000000  0.5229630000000 1.0
C      1  0.4509830000000  0.5636770000000  0.4809170000000 1.0
C      1  0.4858200000000  0.4565500000000  0.4486050000000 1.0
C      1  0.5146360000000  0.5426130000000  0.5512210000000 1.0
C      1  0.4839270000000  0.5331100000000  0.4417410000000 1.0
C      1  0.5151920000000  0.4671480000000  0.5594520000000 1.0
C      1  0.4973390000000  0.5749040000000  0.4729300000000 1.0
C      1  0.5023720000000  0.4252330000000  0.5285550000000 1.0
C      1  0.4881630000000  0.5137510000000  0.4678610000000 1.0
C      1  0.5117490000000  0.4855050000000  0.5324040000000 1.0
C      1  0.5526120000000  0.5223430000000  0.4834340000000 1.0
C      1  0.4470600000000  0.4776170000000  0.5162860000000 1.0
C      1  0.4173680000000  0.4849090000000  0.4909040000000 1.0
C      1  0.5826250000000  0.5149700000000  0.5084070000000 1.0
C      1  0.5720520000000  0.4521110000000  0.5054550000000 1.0
C      1  0.4267810000000  0.5462660000000  0.4908700000000 1.0
C      1  0.4590800000000  0.4466800000000  0.5558260000000 1.0
C      1  0.5399920000000  0.5536700000000  0.4445150000000 1.0
C      1  0.5070820000000  0.4785450000000  0.4598310000000 1.0
C      1  0.4934490000000  0.5205920000000  0.5399230000000 1.0
C      1  0.5889320000000  0.4836230000000  0.4691820000000 1.0
C      1  0.4128060000000  0.5179810000000  0.5293830000000 1.0
C      1  0.4388210000000  0.4407850000000  0.5283350000000 1.0
C      1  0.5606380000000  0.5593670000000  0.4718180000000 1.0
C      1  0.4889720000000  0.5086990000000  0.5092440000000 1.0
C      1  0.5109830000000  0.4904550000000  0.4906530000000 1.0
C      1  0.4276410000000  0.4351960000000  0.4762570000000 1.0
C      1  0.5726400000000  0.5643220000000  0.5237310000000 1.0
C      1  0.4348440000000  0.4689190000000  0.5471700000000 1.0
C      1  0.5644780000000  0.5315490000000  0.4525510000000 1.0
C      1  0.5150790000000  0.5397380000000  0.4313750000000 1.0
C      1  0.4839130000000  0.4606010000000  0.5691840000000 1.0
C      1  0.5724860000000  0.5449560000000  0.4995970000000 1.0
C      1  0.4271990000000  0.4548940000000  0.5002600000000 1.0
C      1  0.4730420000000  0.4823680000000  0.5000460000000 1.0
C      1  0.5268620000000  0.5169600000000  0.4998550000000 1.0
C      1  0.4463100000000  0.5638170000000  0.5294200000000 1.0
C      1  0.5522590000000  0.4397330000000  0.4729850000000 1.0
C      1  0.5232070000000  0.5008280000000  0.5587560000000 1.0
C      1  0.4764850000000  0.4992420000000  0.4412720000000 1.0
C      1  0.5341610000000  0.4470740000000  0.4451500000000 1.0
C      1  0.4655250000000  0.5533700000000  0.5536220000000 1.0
C      1  0.4815070000000  0.4362910000000  0.4947430000000 1.0
C      1  0.5185020000000  0.5633920000000  0.5049950000000 1.0
C      1  0.5226520000000  0.5166880000000  0.4149140000000 1.0
C      1  0.4763610000000  0.4837850000000  0.5853660000000 1.0
C      1  0.4815810000000  0.4054390000000  0.5092280000000 1.0
C      1  0.5187850000000  0.5947680000000  0.4916000000000 1.0
C      1  0.4017960000000  0.5012250000000  0.5084120000000 1.0
C      1  0.5991660000000  0.5000420000000  0.4906430000000 1.0
C      1  0.4591800000000  0.5774680000000  0.5056220000000 1.0
C      1  0.5413850000000  0.4240290000000  0.4964730000000 1.0
C      1  0.4788800000000  0.5070750000000  0.5682710000000 1.0
C      1  0.5208120000000  0.4929900000000  0.4315790000000 1.0
C      1  0.4819580000000  0.5465290000000  0.5738210000000 1.0
C      1  0.5175790000000  0.4537570000000  0.4245870000000 1.0
C      1  0.4381120000000  0.4983120000000  0.4774490000000 1.0
C      1  0.5617990000000  0.5006080000000  0.5208200000000 1.0
C      1  0.4786050000000  0.4233020000000  0.4484060000000 1.0
C      1  0.5223900000000  0.5756580000000  0.5521970000000 1.0
C      1  0.4472080000000  0.4278410000000  0.4559800000000 1.0
C      1  0.5533830000000  0.5711370000000  0.5443880000000 1.0
C      1  0.4596510000000  0.4994900000000  0.5409510000000 1.0
C      1  0.5404310000000  0.5003600000000  0.4587270000000 1.0
C      1  0.4628190000000  0.4830420000000  0.4676240000000 1.0
C      1  0.5373540000000  0.5160320000000  0.5320290000000 1.0
C      1  0.5733150000000  0.4991550000000  0.4504720000000 1.0
C      1  0.4270240000000  0.5019400000000  0.5488310000000 1.0
C      1  0.5258460000000  0.4694990000000  0.5093350000000 1.0
C      1  0.4738640000000  0.5300440000000  0.4908520000000 1.0
C      1  0.4870870000000  0.5879610000000  0.5027180000000 1.0
C      1  0.5134760000000  0.4126970000000  0.4988030000000 1.0
C      1  0.5360450000000  0.5485110000000  0.5267250000000 1.0
C      1  0.4642650000000  0.4508700000000  0.4729990000000 1.0
C      1  0.5380340000000  0.4694890000000  0.4701730000000 1.0
C      1  0.4626680000000  0.5306230000000  0.5296280000000 1.0
C      1  0.4685870000000  0.4256360000000  0.5326040000000 1.0
C      1  0.5309810000000  0.5745620000000  0.4679430000000 1.0
C      1  0.4447220000000  0.5243580000000  0.4835300000000 1.0
C      1  0.5550280000000  0.4748150000000  0.5136290000000 1.0
END
