TITL C-2782225-7408-1357 -0.00135543438650874 125000 -943.543244645064 0 0 163 (C1) n - 1
REM
REM in /home/nfs/bkarasulu/CARBON/AIRSS/Generating-Clusters/REBO/Higher-Symm/SD-CG/HFTN-CG
REM
REM
REM
REM
REM
REM ./C.cell (12c818d87b63d06a65506943cc24bca4)
REM
REM compiler GCC version 9.2.1 20190827 (Red Hat 9.2.1-1)
REM options -cpp -mtune=generic -march=x86-64 -g -O0 -fpre-include=/usr/include/finclude/math-vector-fortran.h
REM seed -218950606 1049703530 -1311395583 2010283510 1872546846 85751567 -707796944 -599385861 889152139 -1489344963 -690667713 1988989368 -277655987 254383881 2056490257 1923118613 -1314911090 -825979659 -1677832768 -1395731513 1668792294 103706798 1869375136 2081322274 -1768650935 -1323273610 1171137029 258156788 1341752648 -498737198 86976005 -1439444415 1440144640
REM
CELL 1.54180   50.00000   50.00000   50.00000   90.00000   90.00000   90.00000
LATT -1
SFAC C  
C      1  0.3976780000000  0.4953390000000  0.4822550000000 1.0
C      1  0.5981750000000  0.5098610000000  0.4823710000000 1.0
C      1  0.3971240000000  0.5234150000000  0.5010060000000 1.0
C      1  0.6072030000000  0.5057910000000  0.5137270000000 1.0
C      1  0.3989600000000  0.4933780000000  0.5158400000000 1.0
C      1  0.5940630000000  0.4800960000000  0.4992480000000 1.0
C      1  0.4876020000000  0.5499270000000  0.4074770000000 1.0
C      1  0.5144870000000  0.6128220000000  0.5140680000000 1.0
C      1  0.4889950000000  0.5470460000000  0.6013430000000 1.0
C      1  0.5109840000000  0.4505010000000  0.5913080000000 1.0
C      1  0.4845920000000  0.3795640000000  0.4917970000000 1.0
C      1  0.5053440000000  0.4455190000000  0.4071340000000 1.0
C      1  0.4899320000000  0.6007620000000  0.5180100000000 1.0
C      1  0.5002130000000  0.5291080000000  0.5832230000000 1.0
C      1  0.4975220000000  0.4430940000000  0.5678990000000 1.0
C      1  0.5100380000000  0.3967290000000  0.4818320000000 1.0
C      1  0.4925750000000  0.4635710000000  0.4252250000000 1.0
C      1  0.5012360000000  0.5522400000000  0.4320540000000 1.0
C      1  0.5608170000000  0.5702650000000  0.4970560000000 1.0
C      1  0.4356420000000  0.5390980000000  0.5560690000000 1.0
C      1  0.5649410000000  0.4723280000000  0.5633480000000 1.0
C      1  0.4407850000000  0.4276200000000  0.4936740000000 1.0
C      1  0.5671900000000  0.4639690000000  0.4403950000000 1.0
C      1  0.4269550000000  0.5350270000000  0.4274290000000 1.0
C      1  0.5209550000000  0.5503150000000  0.4959210000000 1.0
C      1  0.4791220000000  0.5492940000000  0.5316580000000 1.0
C      1  0.5271810000000  0.5106050000000  0.5429130000000 1.0
C      1  0.4807830000000  0.4469280000000  0.5188160000000 1.0
C      1  0.5239420000000  0.4485740000000  0.4703450000000 1.0
C      1  0.4709620000000  0.4993700000000  0.4500910000000 1.0
C      1  0.5356330000000  0.4613270000000  0.5870440000000 1.0
C      1  0.4602910000000  0.3930810000000  0.4962590000000 1.0
C      1  0.5322560000000  0.4432730000000  0.4098310000000 1.0
C      1  0.4608680000000  0.5445880000000  0.4098930000000 1.0
C      1  0.5368360000000  0.6012960000000  0.5044360000000 1.0
C      1  0.4646830000000  0.5563890000000  0.5932000000000 1.0
C      1  0.5445550000000  0.5114730000000  0.6013030000000 1.0
C      1  0.4708230000000  0.4330320000000  0.5618480000000 1.0
C      1  0.5357580000000  0.4031830000000  0.4652800000000 1.0
C      1  0.4719170000000  0.4806230000000  0.4138990000000 1.0
C      1  0.5246580000000  0.5677300000000  0.4378210000000 1.0
C      1  0.4607200000000  0.5971010000000  0.5290630000000 1.0
C      1  0.5977360000000  0.5385990000000  0.4701510000000 1.0
C      1  0.4048540000000  0.5469090000000  0.5195320000000 1.0
C      1  0.5989960000000  0.5056950000000  0.5441790000000 1.0
C      1  0.4050180000000  0.4638570000000  0.5256770000000 1.0
C      1  0.6020570000000  0.4559150000000  0.4796170000000 1.0
C      1  0.3963440000000  0.5026830000000  0.4504710000000 1.0
C      1  0.5553210000000  0.5383390000000  0.5364670000000 1.0
C      1  0.4514740000000  0.4841260000000  0.5419720000000 1.0
C      1  0.5775520000000  0.4376140000000  0.5057840000000 1.0
C      1  0.4397760000000  0.4634870000000  0.4560430000000 1.0
C      1  0.5442340000000  0.5240430000000  0.4607270000000 1.0
C      1  0.4472420000000  0.5408180000000  0.4869770000000 1.0
C      1  0.5909650000000  0.5577060000000  0.4974460000000 1.0
C      1  0.4032840000000  0.5364560000000  0.5505660000000 1.0
C      1  0.5921340000000  0.4745420000000  0.5485930000000 1.0
C      1  0.4127870000000  0.4448690000000  0.4983850000000 1.0
C      1  0.5985020000000  0.4672270000000  0.4485270000000 1.0
C      1  0.3978390000000  0.5353750000000  0.4437280000000 1.0
C      1  0.5675540000000  0.5742800000000  0.5486090000000 1.0
C      1  0.4293230000000  0.5031450000000  0.5843150000000 1.0
C      1  0.5688670000000  0.4268610000000  0.5425970000000 1.0
C      1  0.4410270000000  0.4176660000000  0.4376900000000 1.0
C      1  0.5644040000000  0.4995940000000  0.4191080000000 1.0
C      1  0.4281460000000  0.5779520000000  0.4563380000000 1.0
C      1  0.5161540000000  0.5327800000000  0.5596770000000 1.0
C      1  0.4780870000000  0.4661380000000  0.5406260000000 1.0
C      1  0.5180650000000  0.4286870000000  0.4901750000000 1.0
C      1  0.4696930000000  0.4705250000000  0.4656170000000 1.0
C      1  0.5191750000000  0.5276700000000  0.4723690000000 1.0
C      1  0.4844530000000  0.5699340000000  0.5119250000000 1.0
C      1  0.4621370000000  0.5275000000000  0.4635500000000 1.0
C      1  0.5299960000000  0.5205020000000  0.5102040000000 1.0
C      1  0.4846740000000  0.5159180000000  0.5264190000000 1.0
C      1  0.5221490000000  0.4788140000000  0.5322440000000 1.0
C      1  0.4807460000000  0.4737120000000  0.4976770000000 1.0
C      1  0.5207390000000  0.4814250000000  0.4794250000000 1.0
C      1  0.6066460000000  0.5368960000000  0.5479970000000 1.0
C      1  0.3965170000000  0.4780420000000  0.5525520000000 1.0
C      1  0.6155660000000  0.4472890000000  0.5063560000000 1.0
C      1  0.3895640000000  0.4719070000000  0.4510090000000 1.0
C      1  0.6047240000000  0.5220670000000  0.4448740000000 1.0
C      1  0.3941310000000  0.5628610000000  0.4950170000000 1.0
C      1  0.5043900000000  0.5838650000000  0.5512380000000 1.0
C      1  0.4921560000000  0.4914390000000  0.5934760000000 1.0
C      1  0.5070470000000  0.4126300000000  0.5392250000000 1.0
C      1  0.4990390000000  0.4208580000000  0.4379320000000 1.0
C      1  0.5065520000000  0.5111700000000  0.4282390000000 1.0
C      1  0.4906970000000  0.5884800000000  0.4632440000000 1.0
C      1  0.5666730000000  0.5095420000000  0.5491390000000 1.0
C      1  0.4362410000000  0.4583900000000  0.5278160000000 1.0
C      1  0.5692570000000  0.4468580000000  0.4763140000000 1.0
C      1  0.4269090000000  0.4910710000000  0.4409460000000 1.0
C      1  0.5672120000000  0.5465630000000  0.4661340000000 1.0
C      1  0.4364740000000  0.5480870000000  0.5172660000000 1.0
C      1  0.4543400000000  0.5149530000000  0.4243210000000 1.0
C      1  0.5324590000000  0.5785980000000  0.4832940000000 1.0
C      1  0.4623980000000  0.5575390000000  0.5602760000000 1.0
C      1  0.5367510000000  0.4901620000000  0.5684650000000 1.0
C      1  0.4635700000000  0.4191310000000  0.5152550000000 1.0
C      1  0.5419970000000  0.4451190000000  0.4417380000000 1.0
C      1  0.5577610000000  0.5356390000000  0.4970870000000 1.0
C      1  0.4511890000000  0.5208060000000  0.5315510000000 1.0
C      1  0.5542240000000  0.4831590000000  0.5333920000000 1.0
C      1  0.4495480000000  0.4602100000000  0.4985180000000 1.0
C      1  0.5528900000000  0.4757620000000  0.4695060000000 1.0
C      1  0.4319920000000  0.5194960000000  0.4568170000000 1.0
C      1  0.4788610000000  0.4141350000000  0.5416300000000 1.0
C      1  0.5267240000000  0.4178980000000  0.4426300000000 1.0
C      1  0.4838110000000  0.5077720000000  0.4120830000000 1.0
C      1  0.5184560000000  0.5860090000000  0.4585670000000 1.0
C      1  0.4761850000000  0.5843740000000  0.5516830000000 1.0
C      1  0.5190360000000  0.4963960000000  0.5961870000000 1.0
C      1  0.5855560000000  0.5293480000000  0.5148690000000 1.0
C      1  0.4185910000000  0.5117550000000  0.5326450000000 1.0
C      1  0.5684410000000  0.4760180000000  0.5106280000000 1.0
C      1  0.4236230000000  0.4766550000000  0.4897770000000 1.0
C      1  0.5808250000000  0.4927900000000  0.4639920000000 1.0
C      1  0.4101090000000  0.5322880000000  0.4749270000000 1.0
C      1  0.4829460000000  0.5664800000000  0.4845300000000 1.0
C      1  0.5150680000000  0.5565170000000  0.5475240000000 1.0
C      1  0.4829590000000  0.4799900000000  0.5659810000000 1.0
C      1  0.5173910000000  0.4314660000000  0.5166160000000 1.0
C      1  0.4829490000000  0.4428080000000  0.4577180000000 1.0
C      1  0.4996470000000  0.5158090000000  0.4569350000000 1.0
C      1  0.5113990000000  0.4762710000000  0.4468910000000 1.0
C      1  0.4803770000000  0.5507980000000  0.4553110000000 1.0
C      1  0.5351950000000  0.5574920000000  0.5248050000000 1.0
C      1  0.4826020000000  0.5113160000000  0.5601170000000 1.0
C      1  0.5152690000000  0.4516260000000  0.5415760000000 1.0
C      1  0.4843340000000  0.4153840000000  0.4741130000000 1.0
C      1  0.4631020000000  0.5067890000000  0.5878280000000 1.0
C      1  0.5359060000000  0.4260760000000  0.5513640000000 1.0
C      1  0.4699840000000  0.4051170000000  0.4455030000000 1.0
C      1  0.5314980000000  0.4921930000000  0.4255480000000 1.0
C      1  0.4616060000000  0.5786600000000  0.4507260000000 1.0
C      1  0.5370590000000  0.5888120000000  0.5424150000000 1.0
C      1  0.5505630000000  0.5560050000000  0.4379430000000 1.0
C      1  0.4434600000000  0.5812030000000  0.5136460000000 1.0
C      1  0.5617120000000  0.5203410000000  0.5811120000000 1.0
C      1  0.4470800000000  0.4484470000000  0.5586070000000 1.0
C      1  0.5554970000000  0.4160090000000  0.4813270000000 1.0
C      1  0.4444740000000  0.4735270000000  0.4182100000000 1.0
C      1  0.4420050000000  0.4771590000000  0.5716670000000 1.0
C      1  0.5607040000000  0.4120430000000  0.5128640000000 1.0
C      1  0.4420220000000  0.4442040000000  0.4288820000000 1.0
C      1  0.5520930000000  0.5258580000000  0.4300850000000 1.0
C      1  0.4414270000000  0.5708880000000  0.4850210000000 1.0
C      1  0.5646500000000  0.5457140000000  0.5658690000000 1.0
C      1  0.4410810000000  0.5648300000000  0.4276440000000 1.0
C      1  0.5627270000000  0.5919190000000  0.5209340000000 1.0
C      1  0.4441390000000  0.5335170000000  0.5865040000000 1.0
C      1  0.5573570000000  0.4420380000000  0.5708600000000 1.0
C      1  0.4456530000000  0.4065200000000  0.4695280000000 1.0
C      1  0.5511120000000  0.4694010000000  0.4114990000000 1.0
C      1  0.5938470000000  0.4480320000000  0.5325330000000 1.0
C      1  0.4083940000000  0.4575070000000  0.4669780000000 1.0
C      1  0.5912140000000  0.4969420000000  0.4331920000000 1.0
C      1  0.4020470000000  0.5623740000000  0.4645200000000 1.0
C      1  0.5916170000000  0.5581750000000  0.5318570000000 1.0
C      1  0.4067410000000  0.5048490000000  0.5633370000000 1.0
C      1  0.5054950000000  0.4956990000000  0.5073080000000 1.0
END
