TITL C-2782233-7966-254 -0.00071539141863868 125000 -216.795705136303 0 0 38 (C1) n - 1
REM
REM in /home/nfs/bkarasulu/CARBON/AIRSS/Generating-Clusters/REBO/Higher-Symm/SD-CG/HFTN-CG
REM
REM
REM
REM
REM
REM ./C.cell (12c818d87b63d06a65506943cc24bca4)
REM
REM compiler GCC version 9.2.1 20190827 (Red Hat 9.2.1-1)
REM options -cpp -mtune=generic -march=x86-64 -g -O0 -fpre-include=/usr/include/finclude/math-vector-fortran.h
REM seed -1547384864 908436728 -2109319607 -881139052 949836298 774172805 1244707657 -1634605792 -1497184815 196205119 58864863 -1823904309 240401752 973068171 -1208359812 255995610 2114415869 2117683817 -3477665 -388088669 1074128247 -1753979320 -686945342 -1530190103 778757615 1937510997 568034382 1931223080 598997184 1018173997 744036201 1882516220 692843623
REM
CELL 1.54180   50.00000   50.00000   50.00000   90.00000   90.00000   90.00000
LATT -1
SFAC C  
C      1  0.4496810000000  0.5142970000000  0.5175110000000 1.0
C      1  0.5138710000000  0.5179630000000  0.4497490000000 1.0
C      1  0.5407000000000  0.5099100000000  0.5389700000000 1.0
C      1  0.4738250000000  0.5811580000000  0.4413470000000 1.0
C      1  0.5587620000000  0.5800930000000  0.5179600000000 1.0
C      1  0.4582010000000  0.5862440000000  0.5357030000000 1.0
C      1  0.4886450000000  0.5318460000000  0.4573780000000 1.0
C      1  0.5459500000000  0.5277810000000  0.5159990000000 1.0
C      1  0.4670200000000  0.5331510000000  0.5315820000000 1.0
C      1  0.4904300000000  0.4903730000000  0.4783320000000 1.0
C      1  0.5324340000000  0.4864020000000  0.5046060000000 1.0
C      1  0.4871340000000  0.4906460000000  0.5288940000000 1.0
C      1  0.4904890000000  0.5192190000000  0.5424720000000 1.0
C      1  0.4734090000000  0.5136190000000  0.4744090000000 1.0
C      1  0.5415170000000  0.5113830000000  0.4922290000000 1.0
C      1  0.5525320000000  0.5546550000000  0.5170060000000 1.0
C      1  0.4624830000000  0.5604670000000  0.5337020000000 1.0
C      1  0.4810270000000  0.5571940000000  0.4491370000000 1.0
C      1  0.4584040000000  0.4860240000000  0.5247660000000 1.0
C      1  0.5089550000000  0.4874000000000  0.4562470000000 1.0
C      1  0.5444720000000  0.4797780000000  0.5309970000000 1.0
C      1  0.5271340000000  0.4637250000000  0.4586540000000 1.0
C      1  0.5273930000000  0.4615090000000  0.5464910000000 1.0
C      1  0.4509430000000  0.4662460000000  0.5045020000000 1.0
C      1  0.5152180000000  0.5065270000000  0.5543910000000 1.0
C      1  0.4475240000000  0.5099420000000  0.4876550000000 1.0
C      1  0.5411660000000  0.5099840000000  0.4630860000000 1.0
C      1  0.4949060000000  0.4708770000000  0.5838080000000 1.0
C      1  0.4230430000000  0.4726540000000  0.4622660000000 1.0
C      1  0.5747140000000  0.4764140000000  0.4449520000000 1.0
C      1  0.5120260000000  0.4788740000000  0.5644660000000 1.0
C      1  0.4375140000000  0.4817290000000  0.4831480000000 1.0
C      1  0.5500030000000  0.4831280000000  0.4536550000000 1.0
C      1  0.5182210000000  0.4436580000000  0.4769020000000 1.0
C      1  0.5145270000000  0.4408190000000  0.5310930000000 1.0
C      1  0.4691890000000  0.4443150000000  0.5014310000000 1.0
C      1  0.5025350000000  0.4797360000000  0.5042240000000 1.0
C      1  0.5006310000000  0.4481370000000  0.5034800000000 1.0
END
