TITL C-2782229-3092-653 0.00274254685661825 125000 -209.688834748149 0 0 38 (C1) n - 1
REM
REM in /home/nfs/bkarasulu/CARBON/AIRSS/Generating-Clusters/REBO/Higher-Symm/SD-CG/HFTN-CG
REM
REM
REM
REM
REM
REM ./C.cell (12c818d87b63d06a65506943cc24bca4)
REM
REM compiler GCC version 9.2.1 20190827 (Red Hat 9.2.1-1)
REM options -cpp -mtune=generic -march=x86-64 -g -O0 -fpre-include=/usr/include/finclude/math-vector-fortran.h
REM seed 337993619 -1505692552 508189805 -682745861 388236071 -279004403 -1487597791 -1860549689 1509991912 -235042490 -1123593554 297324121 981062072 -1153130116 -614961049 -2070137561 314673157 1332503696 -829549367 1998116331 145523941 -1282536450 100259779 235028855 758758209 432547397 -739642387 -327409665 1858931466 -1987344911 -1786386322 1824519324 770795175
REM
CELL 1.54180   50.00000   50.00000   50.00000   90.00000   90.00000   90.00000
LATT -1
SFAC C  
C      1  0.4533930000000  0.4840220000000  0.5013300000000 1.0
C      1  0.5382920000000  0.5161500000000  0.4841360000000 1.0
C      1  0.5058700000000  0.4602520000000  0.5281650000000 1.0
C      1  0.4339590000000  0.5068440000000  0.5751360000000 1.0
C      1  0.5249970000000  0.4673110000000  0.5031790000000 1.0
C      1  0.5315430000000  0.4993010000000  0.5422520000000 1.0
C      1  0.5168620000000  0.4215380000000  0.4568260000000 1.0
C      1  0.4625370000000  0.5339740000000  0.5249970000000 1.0
C      1  0.4795560000000  0.5466610000000  0.5483510000000 1.0
C      1  0.4964330000000  0.4590580000000  0.4322590000000 1.0
C      1  0.5488070000000  0.4896020000000  0.4924300000000 1.0
C      1  0.4717740000000  0.5005320000000  0.4900190000000 1.0
C      1  0.4813300000000  0.4748350000000  0.5517260000000 1.0
C      1  0.5112870000000  0.5521520000000  0.4818290000000 1.0
C      1  0.5285640000000  0.5728920000000  0.4859110000000 1.0
C      1  0.5048630000000  0.5339610000000  0.5028710000000 1.0
C      1  0.5112060000000  0.4817410000000  0.5513260000000 1.0
C      1  0.4739830000000  0.4215290000000  0.5174350000000 1.0
C      1  0.4530350000000  0.4901200000000  0.5549730000000 1.0
C      1  0.4997990000000  0.5485250000000  0.4562220000000 1.0
C      1  0.5080450000000  0.4654050000000  0.4774780000000 1.0
C      1  0.5783180000000  0.4844900000000  0.5087470000000 1.0
C      1  0.5228520000000  0.5245350000000  0.5302520000000 1.0
C      1  0.4914600000000  0.5368820000000  0.4332610000000 1.0
C      1  0.5059070000000  0.5516420000000  0.5418330000000 1.0
C      1  0.4570710000000  0.4698110000000  0.5282360000000 1.0
C      1  0.4775490000000  0.5244900000000  0.5034060000000 1.0
C      1  0.5153520000000  0.5142540000000  0.4696990000000 1.0
C      1  0.5074740000000  0.4469400000000  0.4556920000000 1.0
C      1  0.4931050000000  0.4922460000000  0.4704030000000 1.0
C      1  0.4830710000000  0.4875820000000  0.4428780000000 1.0
C      1  0.4789140000000  0.4465690000000  0.5242450000000 1.0
C      1  0.5444340000000  0.5389580000000  0.4998520000000 1.0
C      1  0.5322510000000  0.5559450000000  0.5219510000000 1.0
C      1  0.4553920000000  0.5235640000000  0.5549330000000 1.0
C      1  0.5481330000000  0.4817430000000  0.5243070000000 1.0
C      1  0.4868890000000  0.4814400000000  0.4100190000000 1.0
C      1  0.4856910000000  0.5125020000000  0.4214350000000 1.0
END
