TITL C-2782232-2968-124 0.00364056943058696 125000 -149.504272189143 0 0 30 (C1) n - 1
REM
REM in /home/nfs/bkarasulu/CARBON/AIRSS/Generating-Clusters/REBO/Higher-Symm/SD-CG/HFTN-CG
REM
REM
REM
REM
REM
REM ./C.cell (12c818d87b63d06a65506943cc24bca4)
REM
REM compiler GCC version 9.2.1 20190827 (Red Hat 9.2.1-1)
REM options -cpp -mtune=generic -march=x86-64 -g -O0 -fpre-include=/usr/include/finclude/math-vector-fortran.h
REM seed -322816857 1728406873 1111742095 229118967 365478881 373979962 2139227060 746865857 -1829094600 -960041074 -589532491 270970490 1429524318 -1991701320 1057030619 -836794421 1385428782 146308522 -1012340831 1730228201 -1901501540 -441041654 -1001555980 -1975718669 -1399539498 199489020 -1913510656 -736183858 1666924989 1417603394 -1497379410 543916672 -1212936300
REM
CELL 1.54180   50.00000   50.00000   50.00000   90.00000   90.00000   90.00000
LATT -1
SFAC C  
C      1  0.5280330000000  0.5532410000000  0.4475670000000 1.0
C      1  0.5506700000000  0.5033800000000  0.5092250000000 1.0
C      1  0.5034430000000  0.5213750000000  0.5790610000000 1.0
C      1  0.5288630000000  0.4697460000000  0.5756980000000 1.0
C      1  0.5454910000000  0.4771350000000  0.5154150000000 1.0
C      1  0.5586280000000  0.4901780000000  0.4723220000000 1.0
C      1  0.5065760000000  0.4899730000000  0.4231450000000 1.0
C      1  0.4837360000000  0.5030350000000  0.4748900000000 1.0
C      1  0.4907480000000  0.5312010000000  0.4838050000000 1.0
C      1  0.5030290000000  0.5322880000000  0.5123020000000 1.0
C      1  0.4862590000000  0.5149960000000  0.5323070000000 1.0
C      1  0.4756020000000  0.4897240000000  0.5186970000000 1.0
C      1  0.4962360000000  0.4687630000000  0.5099450000000 1.0
C      1  0.5032880000000  0.4770170000000  0.4807130000000 1.0
C      1  0.5022960000000  0.5616390000000  0.5222900000000 1.0
C      1  0.4642760000000  0.5307780000000  0.5417860000000 1.0
C      1  0.4496740000000  0.4858060000000  0.5153110000000 1.0
C      1  0.4853770000000  0.4424920000000  0.5107660000000 1.0
C      1  0.4968650000000  0.4545040000000  0.4622210000000 1.0
C      1  0.4540430000000  0.4967430000000  0.4770880000000 1.0
C      1  0.4651020000000  0.5485310000000  0.4836020000000 1.0
C      1  0.5111840000000  0.5432810000000  0.4639430000000 1.0
C      1  0.5326620000000  0.5233570000000  0.5103710000000 1.0
C      1  0.5033220000000  0.5058910000000  0.5561180000000 1.0
C      1  0.5169910000000  0.4813880000000  0.5541430000000 1.0
C      1  0.5208300000000  0.4709800000000  0.5277890000000 1.0
C      1  0.5333780000000  0.4850040000000  0.4781150000000 1.0
C      1  0.4980990000000  0.4934350000000  0.4470300000000 1.0
C      1  0.4291430000000  0.4914660000000  0.4789300000000 1.0
C      1  0.5836770000000  0.4953110000000  0.4665750000000 1.0
END
