TITL C-2782234-8014-1216 0.0048200871431377 125000 -808.348877312971 0 0 139 (C1) n - 1
REM
REM in /home/nfs/bkarasulu/CARBON/AIRSS/Generating-Clusters/REBO/Higher-Symm/SD-CG/HFTN-CG
REM
REM
REM
REM
REM
REM ./C.cell (12c818d87b63d06a65506943cc24bca4)
REM
REM compiler GCC version 9.2.1 20190827 (Red Hat 9.2.1-1)
REM options -cpp -mtune=generic -march=x86-64 -g -O0 -fpre-include=/usr/include/finclude/math-vector-fortran.h
REM seed 450511987 -80051957 -1893657211 1370574414 1733537757 -2120225908 121997793 275991601 -580671256 -1889196443 733338325 -1294056375 1392227637 -327011264 -1777411300 -1817953069 1950926009 -1466223823 -1965381379 570627335 -987273988 -1443758771 -26014079 1446180227 437516130 -1721540040 -218061211 -785641984 -564109521 -3675651 -825322230 -1078835675 1569757290
REM
CELL 1.54180   50.00000   50.00000   50.00000   90.00000   90.00000   90.00000
LATT -1
SFAC C  
C      1  0.4503820000000  0.4622380000000  0.5644510000000 1.0
C      1  0.4420930000000  0.5231220000000  0.5652480000000 1.0
C      1  0.4905410000000  0.5606280000000  0.5653740000000 1.0
C      1  0.5529380000000  0.5405680000000  0.5640430000000 1.0
C      1  0.5586580000000  0.4743110000000  0.5695700000000 1.0
C      1  0.5075580000000  0.4410730000000  0.5634650000000 1.0
C      1  0.4464130000000  0.5405840000000  0.4290940000000 1.0
C      1  0.4439470000000  0.4755570000000  0.4345360000000 1.0
C      1  0.4919050000000  0.4343910000000  0.4343590000000 1.0
C      1  0.5510840000000  0.4628670000000  0.4287750000000 1.0
C      1  0.5595830000000  0.5257440000000  0.4391530000000 1.0
C      1  0.5082230000000  0.5650450000000  0.4316630000000 1.0
C      1  0.4403620000000  0.5550040000000  0.5548540000000 1.0
C      1  0.5155680000000  0.5763500000000  0.5505220000000 1.0
C      1  0.5774570000000  0.5236210000000  0.5477590000000 1.0
C      1  0.5592370000000  0.4428940000000  0.5557900000000 1.0
C      1  0.4814790000000  0.4245510000000  0.5500180000000 1.0
C      1  0.4227160000000  0.4781120000000  0.5543180000000 1.0
C      1  0.4409380000000  0.4458970000000  0.4511700000000 1.0
C      1  0.5195870000000  0.4178180000000  0.4442430000000 1.0
C      1  0.5806330000000  0.4744870000000  0.4413400000000 1.0
C      1  0.5592710000000  0.5585080000000  0.4452970000000 1.0
C      1  0.4816930000000  0.5793000000000  0.4454410000000 1.0
C      1  0.4190450000000  0.5274870000000  0.4445240000000 1.0
C      1  0.4815230000000  0.5733300000000  0.5038010000000 1.0
C      1  0.5598300000000  0.5500040000000  0.5109740000000 1.0
C      1  0.5785250000000  0.4648690000000  0.5212000000000 1.0
C      1  0.5141300000000  0.4221250000000  0.5025180000000 1.0
C      1  0.4229740000000  0.4401570000000  0.5136980000000 1.0
C      1  0.4147040000000  0.5311400000000  0.5110690000000 1.0
C      1  0.4807400000000  0.4118050000000  0.4844460000000 1.0
C      1  0.5690670000000  0.4449370000000  0.4784430000000 1.0
C      1  0.5864330000000  0.5389450000000  0.4836560000000 1.0
C      1  0.5178170000000  0.5803510000000  0.4902520000000 1.0
C      1  0.4390280000000  0.5465100000000  0.4836480000000 1.0
C      1  0.4209230000000  0.4717190000000  0.4901450000000 1.0
C      1  0.4929340000000  0.4382560000000  0.4657250000000 1.0
C      1  0.4428820000000  0.4827930000000  0.4662870000000 1.0
C      1  0.4595440000000  0.5459800000000  0.4579790000000 1.0
C      1  0.5212530000000  0.5629250000000  0.4612190000000 1.0
C      1  0.5714850000000  0.5177760000000  0.4682620000000 1.0
C      1  0.5423570000000  0.4520160000000  0.4580920000000 1.0
C      1  0.4818360000000  0.5613310000000  0.5352010000000 1.0
C      1  0.4384650000000  0.5213750000000  0.5335220000000 1.0
C      1  0.4468100000000  0.4537890000000  0.5339800000000 1.0
C      1  0.5131050000000  0.4399840000000  0.5312790000000 1.0
C      1  0.5589760000000  0.4859500000000  0.5393750000000 1.0
C      1  0.5389680000000  0.5471850000000  0.5363570000000 1.0
C      1  0.5260250000000  0.4921430000000  0.5455640000000 1.0
C      1  0.5015530000000  0.4714660000000  0.5373100000000 1.0
C      1  0.4690350000000  0.4797830000000  0.5316980000000 1.0
C      1  0.4662700000000  0.5125010000000  0.5227330000000 1.0
C      1  0.4917390000000  0.5326030000000  0.5250260000000 1.0
C      1  0.5205410000000  0.5225190000000  0.5322330000000 1.0
C      1  0.5377700000000  0.5127200000000  0.4700010000000 1.0
C      1  0.5113380000000  0.5329190000000  0.4670320000000 1.0
C      1  0.4819480000000  0.5206280000000  0.4551970000000 1.0
C      1  0.4763330000000  0.4894350000000  0.4649790000000 1.0
C      1  0.5040700000000  0.4693040000000  0.4671930000000 1.0
C      1  0.5307350000000  0.4843460000000  0.4556310000000 1.0
C      1  0.5262650000000  0.4938870000000  0.4241820000000 1.0
C      1  0.5119660000000  0.4711760000000  0.4106690000000 1.0
C      1  0.4794180000000  0.4760300000000  0.4151520000000 1.0
C      1  0.4720410000000  0.5031230000000  0.4275340000000 1.0
C      1  0.4868390000000  0.5272290000000  0.4138100000000 1.0
C      1  0.5187960000000  0.5217680000000  0.4125430000000 1.0
C      1  0.5331260000000  0.5031500000000  0.5887230000000 1.0
C      1  0.5142600000000  0.5297460000000  0.5929420000000 1.0
C      1  0.4808880000000  0.5263510000000  0.5952860000000 1.0
C      1  0.4692800000000  0.4962060000000  0.5929890000000 1.0
C      1  0.4912220000000  0.4719670000000  0.5898520000000 1.0
C      1  0.5177220000000  0.4796320000000  0.5756490000000 1.0
C      1  0.5277590000000  0.5034580000000  0.6198760000000 1.0
C      1  0.5222950000000  0.4775340000000  0.6308430000000 1.0
C      1  0.4978010000000  0.4657810000000  0.6220290000000 1.0
C      1  0.4736530000000  0.4839130000000  0.6236720000000 1.0
C      1  0.4782490000000  0.5142660000000  0.6272680000000 1.0
C      1  0.5067490000000  0.5244360000000  0.6255180000000 1.0
C      1  0.5294420000000  0.4947120000000  0.3683910000000 1.0
C      1  0.5222230000000  0.5201690000000  0.3793890000000 1.0
C      1  0.4922280000000  0.5240300000000  0.3828540000000 1.0
C      1  0.4766750000000  0.5027260000000  0.3717070000000 1.0
C      1  0.4843380000000  0.4773920000000  0.3827380000000 1.0
C      1  0.5144500000000  0.4724140000000  0.3783800000000 1.0
C      1  0.4353050000000  0.5086820000000  0.4957930000000 1.0
C      1  0.4861650000000  0.5439040000000  0.4872930000000 1.0
C      1  0.5374910000000  0.5335990000000  0.4972260000000 1.0
C      1  0.5512730000000  0.4856300000000  0.5002730000000 1.0
C      1  0.5188280000000  0.4515130000000  0.4931280000000 1.0
C      1  0.4712680000000  0.4693830000000  0.4909430000000 1.0
C      1  0.4472150000000  0.4818240000000  0.5060090000000 1.0
C      1  0.4984960000000  0.4708230000000  0.5064270000000 1.0
C      1  0.5473760000000  0.4598400000000  0.4966160000000 1.0
C      1  0.5360630000000  0.5048350000000  0.5091380000000 1.0
C      1  0.5133260000000  0.5492880000000  0.5034710000000 1.0
C      1  0.4632340000000  0.5263060000000  0.4925910000000 1.0
C      1  0.4762990000000  0.4495790000000  0.5727220000000 1.0
C      1  0.4452390000000  0.4941000000000  0.5745370000000 1.0
C      1  0.4655470000000  0.5451860000000  0.5759250000000 1.0
C      1  0.5226960000000  0.5514740000000  0.5725860000000 1.0
C      1  0.5597100000000  0.5082700000000  0.5724490000000 1.0
C      1  0.5341300000000  0.4515380000000  0.5756620000000 1.0
C      1  0.4767180000000  0.5549500000000  0.4232480000000 1.0
C      1  0.4397380000000  0.5072170000000  0.4264580000000 1.0
C      1  0.4663660000000  0.4505370000000  0.4287580000000 1.0
C      1  0.5227640000000  0.4445790000000  0.4238360000000 1.0
C      1  0.5582340000000  0.4962840000000  0.4286360000000 1.0
C      1  0.5336980000000  0.5448740000000  0.4277850000000 1.0
C      1  0.4530580000000  0.5750230000000  0.5313060000000 1.0
C      1  0.5377250000000  0.5794890000000  0.5251640000000 1.0
C      1  0.5834720000000  0.5027300000000  0.5223900000000 1.0
C      1  0.5422160000000  0.4287360000000  0.5298850000000 1.0
C      1  0.4567040000000  0.4240420000000  0.5275820000000 1.0
C      1  0.4116240000000  0.5049500000000  0.5409630000000 1.0
C      1  0.4646470000000  0.4407620000000  0.4806910000000 1.0
C      1  0.5390090000000  0.4207840000000  0.4714930000000 1.0
C      1  0.5870220000000  0.4937390000000  0.4679150000000 1.0
C      1  0.5483720000000  0.5821950000000  0.4662140000000 1.0
C      1  0.4594850000000  0.5777160000000  0.4708890000000 1.0
C      1  0.4186270000000  0.5038670000000  0.4672470000000 1.0
C      1  0.5859770000000  0.5341410000000  0.5162010000000 1.0
C      1  0.5741160000000  0.4356520000000  0.5260050000000 1.0
C      1  0.4861490000000  0.4135380000000  0.5181000000000 1.0
C      1  0.4117360000000  0.4695900000000  0.5230890000000 1.0
C      1  0.4252570000000  0.5578010000000  0.5242380000000 1.0
C      1  0.5063460000000  0.5892500000000  0.5209720000000 1.0
C      1  0.5924840000000  0.4613240000000  0.4704620000000 1.0
C      1  0.5760720000000  0.5652490000000  0.4742940000000 1.0
C      1  0.4895770000000  0.5909030000000  0.4756270000000 1.0
C      1  0.4110020000000  0.5342230000000  0.4772190000000 1.0
C      1  0.4249460000000  0.4414070000000  0.4789000000000 1.0
C      1  0.5110950000000  0.4037080000000  0.4739930000000 1.0
C      1  0.4441070000000  0.4204980000000  0.4976640000000 1.0
C      1  0.4417980000000  0.5749190000000  0.4995000000000 1.0
C      1  0.5936900000000  0.4815830000000  0.4979200000000 1.0
C      1  0.5571060000000  0.4214300000000  0.5000560000000 1.0
C      1  0.5577960000000  0.5806310000000  0.4988610000000 1.0
C      1  0.3907980000000  0.4965720000000  0.5209200000000 1.0
C      1  0.5019750000000  0.4984200000000  0.4917300000000 1.0
END
