TITL C-2782229-3092-1175 0.00106160059885645 125000 -257.263413800407 0 0 48 (C1) n - 1
REM
REM in /home/nfs/bkarasulu/CARBON/AIRSS/Generating-Clusters/REBO/Higher-Symm/SD-CG/HFTN-CG
REM
REM
REM
REM
REM
REM ./C.cell (12c818d87b63d06a65506943cc24bca4)
REM
REM compiler GCC version 9.2.1 20190827 (Red Hat 9.2.1-1)
REM options -cpp -mtune=generic -march=x86-64 -g -O0 -fpre-include=/usr/include/finclude/math-vector-fortran.h
REM seed -2139007864 -400722560 -274133807 1494925506 -1723495026 -345317526 411490417 -384991638 -1562313271 -40052542 1520380371 1789592063 1043942048 687669328 1605551743 -422378060 531290715 1753891766 1080075741 -1748063635 -1753257397 -1290604642 961781104 -1122596876 1009799094 294818110 1682404214 943191735 67621386 1115788963 71136534 -569546311 -873702119
REM
CELL 1.54180   50.00000   50.00000   50.00000   90.00000   90.00000   90.00000
LATT -1
SFAC C  
C      1  0.5671190000000  0.4908030000000  0.4569230000000 1.0
C      1  0.5608170000000  0.5230660000000  0.4574330000000 1.0
C      1  0.5340710000000  0.5421480000000  0.4544760000000 1.0
C      1  0.5086120000000  0.5469600000000  0.4445560000000 1.0
C      1  0.4867400000000  0.5371850000000  0.4605820000000 1.0
C      1  0.4600960000000  0.5308400000000  0.4514360000000 1.0
C      1  0.4471030000000  0.5093830000000  0.4624070000000 1.0
C      1  0.4530560000000  0.4799000000000  0.4772210000000 1.0
C      1  0.4795760000000  0.4635250000000  0.4681320000000 1.0
C      1  0.5113270000000  0.4685710000000  0.4619570000000 1.0
C      1  0.5433610000000  0.4688290000000  0.4548230000000 1.0
C      1  0.4889560000000  0.5520800000000  0.5393650000000 1.0
C      1  0.4684430000000  0.5277190000000  0.5468820000000 1.0
C      1  0.4459700000000  0.5042370000000  0.5504430000000 1.0
C      1  0.4511440000000  0.4717240000000  0.5549810000000 1.0
C      1  0.4692640000000  0.4492730000000  0.5501320000000 1.0
C      1  0.5005320000000  0.4582750000000  0.5481720000000 1.0
C      1  0.5247720000000  0.4404480000000  0.5349410000000 1.0
C      1  0.5452760000000  0.4669100000000  0.5289810000000 1.0
C      1  0.5436790000000  0.4902200000000  0.5420240000000 1.0
C      1  0.5406600000000  0.5233250000000  0.5391610000000 1.0
C      1  0.5210370000000  0.5486660000000  0.5339470000000 1.0
C      1  0.5617620000000  0.4560660000000  0.5046060000000 1.0
C      1  0.5376630000000  0.5066280000000  0.5683750000000 1.0
C      1  0.5390550000000  0.5368350000000  0.5090880000000 1.0
C      1  0.5099390000000  0.5771650000000  0.5485310000000 1.0
C      1  0.4583690000000  0.5532060000000  0.5257040000000 1.0
C      1  0.4377980000000  0.5302620000000  0.5309580000000 1.0
C      1  0.4254250000000  0.4845490000000  0.5688410000000 1.0
C      1  0.4640660000000  0.4263740000000  0.5654060000000 1.0
C      1  0.4761120000000  0.4443470000000  0.5198330000000 1.0
C      1  0.4995800000000  0.4304920000000  0.5179120000000 1.0
C      1  0.5515610000000  0.4295710000000  0.5177820000000 1.0
C      1  0.4224070000000  0.4903070000000  0.4675990000000 1.0
C      1  0.4673940000000  0.4589680000000  0.4985680000000 1.0
C      1  0.4926240000000  0.4483600000000  0.4410910000000 1.0
C      1  0.5232830000000  0.4509620000000  0.4347090000000 1.0
C      1  0.5645570000000  0.4674680000000  0.4802330000000 1.0
C      1  0.5887650000000  0.5120410000000  0.4417610000000 1.0
C      1  0.5449610000000  0.5354850000000  0.4834770000000 1.0
C      1  0.5035910000000  0.5596300000000  0.4199410000000 1.0
C      1  0.4830430000000  0.5669980000000  0.4035910000000 1.0
C      1  0.4568210000000  0.5606590000000  0.4086780000000 1.0
C      1  0.4490840000000  0.5455490000000  0.4300370000000 1.0
C      1  0.4986290000000  0.5231230000000  0.5120410000000 1.0
C      1  0.5043780000000  0.4851300000000  0.5474210000000 1.0
C      1  0.5032400000000  0.5081090000000  0.5336580000000 1.0
C      1  0.4926710000000  0.5314350000000  0.4874370000000 1.0
END
