TITL C-2782230-7391-60 0.00187591263628508 125000 -550.541110655954 0 0 94 (Cs) n - 1
REM
REM in /home/nfs/bkarasulu/CARBON/AIRSS/Generating-Clusters/REBO/Higher-Symm/SD-CG/HFTN-CG
REM
REM
REM
REM
REM
REM ./C.cell (12c818d87b63d06a65506943cc24bca4)
REM
REM compiler GCC version 9.2.1 20190827 (Red Hat 9.2.1-1)
REM options -cpp -mtune=generic -march=x86-64 -g -O0 -fpre-include=/usr/include/finclude/math-vector-fortran.h
REM seed -383901817 2006016925 -980598651 -239933595 628009584 -396135144 -868198389 -1258379867 -1875954863 -25625730 604342364 -282636033 -1211461363 -146864829 -872520547 1119990269 -20306680 1921722175 -1915286023 1974635526 1425653791 -1483344408 1016602111 -57368408 -230959360 -784934629 -2052943132 -1994094175 -543218825 -222335412 -1855444820 4997238 709548114
REM
CELL 1.54180   50.00000   50.00000   50.00000   90.00000   90.00000   90.00000
LATT -1
SFAC C  
C      1  0.4682020000000  0.5767490000000  0.5026600000000 1.0
C      1  0.4739170000000  0.4978790000000  0.5806900000000 1.0
C      1  0.4692680000000  0.4224540000000  0.4946470000000 1.0
C      1  0.4695840000000  0.5045410000000  0.4217720000000 1.0
C      1  0.5326440000000  0.5767490000000  0.5026620000000 1.0
C      1  0.5269230000000  0.4978790000000  0.5806920000000 1.0
C      1  0.5315770000000  0.4224530000000  0.4946490000000 1.0
C      1  0.5312660000000  0.5045400000000  0.4217740000000 1.0
C      1  0.4741210000000  0.5267260000000  0.5206930000000 1.0
C      1  0.4725000000000  0.4817700000000  0.5341110000000 1.0
C      1  0.4748370000000  0.4684950000000  0.4848780000000 1.0
C      1  0.4752480000000  0.5170480000000  0.4694160000000 1.0
C      1  0.5267230000000  0.5267260000000  0.5206950000000 1.0
C      1  0.5283430000000  0.4817690000000  0.5341120000000 1.0
C      1  0.5260090000000  0.4684940000000  0.4848800000000 1.0
C      1  0.5256000000000  0.5170470000000  0.4694180000000 1.0
C      1  0.5572280000000  0.4735420000000  0.4842990000000 1.0
C      1  0.5563810000000  0.5174280000000  0.4722670000000 1.0
C      1  0.5565100000000  0.5261430000000  0.5171510000000 1.0
C      1  0.5587860000000  0.4851050000000  0.5255550000000 1.0
C      1  0.4436180000000  0.4735430000000  0.4842950000000 1.0
C      1  0.4444660000000  0.5174290000000  0.4722640000000 1.0
C      1  0.4443340000000  0.5261440000000  0.5171470000000 1.0
C      1  0.4420570000000  0.4851060000000  0.5255510000000 1.0
C      1  0.5280200000000  0.5380670000000  0.4192470000000 1.0
C      1  0.5266050000000  0.5774220000000  0.5351600000000 1.0
C      1  0.5384630000000  0.4713090000000  0.5713060000000 1.0
C      1  0.5278460000000  0.4185650000000  0.4613350000000 1.0
C      1  0.4728310000000  0.5380670000000  0.4192450000000 1.0
C      1  0.4742390000000  0.5774220000000  0.5351580000000 1.0
C      1  0.4623770000000  0.4713090000000  0.5713040000000 1.0
C      1  0.4730000000000  0.4185660000000  0.4613330000000 1.0
C      1  0.5640010000000  0.4753580000000  0.4521540000000 1.0
C      1  0.5666540000000  0.5484070000000  0.4735030000000 1.0
C      1  0.5661300000000  0.5245290000000  0.5485390000000 1.0
C      1  0.5642530000000  0.4528640000000  0.5247350000000 1.0
C      1  0.4368470000000  0.4753590000000  0.4521500000000 1.0
C      1  0.4341930000000  0.5484080000000  0.4734980000000 1.0
C      1  0.4347130000000  0.5245300000000  0.5485340000000 1.0
C      1  0.4365900000000  0.4528650000000  0.5247310000000 1.0
C      1  0.4677890000000  0.4765290000000  0.4380500000000 1.0
C      1  0.4576390000000  0.5727690000000  0.4730310000000 1.0
C      1  0.4637140000000  0.5239020000000  0.5644020000000 1.0
C      1  0.4668950000000  0.4372650000000  0.5233660000000 1.0
C      1  0.5330600000000  0.4765280000000  0.4380520000000 1.0
C      1  0.5432100000000  0.5727680000000  0.4730340000000 1.0
C      1  0.5371280000000  0.5239010000000  0.5644040000000 1.0
C      1  0.5339470000000  0.4372650000000  0.5233690000000 1.0
C      1  0.4320750000000  0.5380740000000  0.4410900000000 1.0
C      1  0.4300630000000  0.5565930000000  0.5376320000000 1.0
C      1  0.4323410000000  0.4632490000000  0.5571880000000 1.0
C      1  0.4318020000000  0.4431940000000  0.4616900000000 1.0
C      1  0.5687740000000  0.5380730000000  0.4410950000000 1.0
C      1  0.5707810000000  0.5565920000000  0.5376370000000 1.0
C      1  0.5685000000000  0.4632480000000  0.5571920000000 1.0
C      1  0.5690450000000  0.4431930000000  0.4616950000000 1.0
C      1  0.4597210000000  0.5573470000000  0.4441540000000 1.0
C      1  0.4575050000000  0.5563930000000  0.5561890000000 1.0
C      1  0.4578040000000  0.4406040000000  0.5559670000000 1.0
C      1  0.4594600000000  0.4438450000000  0.4429060000000 1.0
C      1  0.5411280000000  0.5573460000000  0.4441560000000 1.0
C      1  0.5433380000000  0.5563920000000  0.5561920000000 1.0
C      1  0.5430360000000  0.4406030000000  0.5559690000000 1.0
C      1  0.5413880000000  0.4438440000000  0.4429090000000 1.0
C      1  0.5601940000000  0.4408680000000  0.4936800000000 1.0
C      1  0.5597530000000  0.5060210000000  0.4403240000000 1.0
C      1  0.5607740000000  0.5574630000000  0.5051390000000 1.0
C      1  0.5774980000000  0.4954090000000  0.5508920000000 1.0
C      1  0.4406510000000  0.4408690000000  0.4936770000000 1.0
C      1  0.4410960000000  0.5060220000000  0.4403200000000 1.0
C      1  0.4400720000000  0.5574640000000  0.5051350000000 1.0
C      1  0.4233440000000  0.4954100000000  0.5508870000000 1.0
C      1  0.5143600000000  0.4569650000000  0.5520320000000 1.0
C      1  0.5147960000000  0.4493340000000  0.4624540000000 1.0
C      1  0.5150140000000  0.5377320000000  0.4499380000000 1.0
C      1  0.5147770000000  0.5475090000000  0.5411800000000 1.0
C      1  0.4864810000000  0.4569660000000  0.5520310000000 1.0
C      1  0.4860510000000  0.4493340000000  0.4624530000000 1.0
C      1  0.4858360000000  0.5377320000000  0.4499370000000 1.0
C      1  0.4860660000000  0.5475090000000  0.5411790000000 1.0
C      1  0.4874870000000  0.5233730000000  0.4955260000000 1.0
C      1  0.4853190000000  0.5076830000000  0.5437330000000 1.0
C      1  0.4855470000000  0.4619300000000  0.5123720000000 1.0
C      1  0.4853910000000  0.4892040000000  0.4621020000000 1.0
C      1  0.5133590000000  0.5233730000000  0.4955270000000 1.0
C      1  0.5155230000000  0.5076830000000  0.5437340000000 1.0
C      1  0.5152970000000  0.4619300000000  0.5123730000000 1.0
C      1  0.5154570000000  0.4892030000000  0.4621030000000 1.0
C      1  0.5004230000000  0.4173210000000  0.4816430000000 1.0
C      1  0.5004230000000  0.5808440000000  0.5134820000000 1.0
C      1  0.5004200000000  0.4981530000000  0.5880120000000 1.0
C      1  0.5004250000000  0.5181690000000  0.4166560000000 1.0
C      1  0.4367290000000  0.5012020000000  0.4982380000000 1.0
C      1  0.5641170000000  0.5012010000000  0.4982420000000 1.0
END
