TITL C-2782228-2999-745 -2.86779067808889 125000 -632.379359793075 0 0 107 (C1) n - 1
REM
REM in /home/nfs/bkarasulu/CARBON/AIRSS/Generating-Clusters/REBO/Higher-Symm/SD-CG/HFTN-CG
REM
REM
REM
REM
REM
REM ./C.cell (12c818d87b63d06a65506943cc24bca4)
REM
REM compiler GCC version 9.2.1 20190827 (Red Hat 9.2.1-1)
REM options -cpp -mtune=generic -march=x86-64 -g -O0 -fpre-include=/usr/include/finclude/math-vector-fortran.h
REM seed -1553908080 -836648598 245159482 901224605 1405593485 1076665434 1396064177 -174069615 -1609911923 -399340920 -111586876 1156297055 -289040180 1405613716 -632903507 992449219 1511199469 -651810943 1521035078 1177898684 -1846506349 981448815 537971588 300600895 -1220040271 -1732802434 558217010 -66341065 454205568 2087491203 -1744509854 584803624 -293706111
REM
CELL 1.54180   50.00000   50.00000   50.00000   90.00000   90.00000   90.00000
LATT -1
SFAC C  
C      1  0.4495940000000  0.4003020000000  0.4933700000000 1.0
C      1  0.5296860000000  0.4021840000000  0.5326170000000 1.0
C      1  0.5179010000000  0.4024470000000  0.4605640000000 1.0
C      1  0.4497870000000  0.3765790000000  0.4822350000000 1.0
C      1  0.5257300000000  0.3764110000000  0.5299920000000 1.0
C      1  0.5205970000000  0.3771110000000  0.4667000000000 1.0
C      1  0.5483320000000  0.4860490000000  0.5014840000000 1.0
C      1  0.4780730000000  0.4860120000000  0.4592930000000 1.0
C      1  0.4755490000000  0.4860890000000  0.5432820000000 1.0
C      1  0.4905690000000  0.5479020000000  0.5164280000000 1.0
C      1  0.5015140000000  0.5494380000000  0.4712930000000 1.0
C      1  0.4622410000000  0.5637860000000  0.5113980000000 1.0
C      1  0.5550580000000  0.5283410000000  0.4841570000000 1.0
C      1  0.4559040000000  0.5257450000000  0.4582950000000 1.0
C      1  0.4829950000000  0.5333290000000  0.5604570000000 1.0
C      1  0.4644920000000  0.4753480000000  0.5736300000000 1.0
C      1  0.5812700000000  0.4830150000000  0.4999840000000 1.0
C      1  0.4620620000000  0.4842910000000  0.4300140000000 1.0
C      1  0.4971680000000  0.5905440000000  0.4764860000000 1.0
C      1  0.4815680000000  0.5985910000000  0.5116160000000 1.0
C      1  0.5303390000000  0.5854630000000  0.5155760000000 1.0
C      1  0.4896220000000  0.4740140000000  0.5919200000000 1.0
C      1  0.5853360000000  0.4808510000000  0.4691120000000 1.0
C      1  0.4337010000000  0.4843330000000  0.4441390000000 1.0
C      1  0.5409160000000  0.5556130000000  0.4720600000000 1.0
C      1  0.4507230000000  0.5553450000000  0.4743050000000 1.0
C      1  0.5020790000000  0.5603670000000  0.5521750000000 1.0
C      1  0.5522780000000  0.5061320000000  0.5610320000000 1.0
C      1  0.5266650000000  0.5034450000000  0.4184860000000 1.0
C      1  0.4190040000000  0.5038010000000  0.5222520000000 1.0
C      1  0.4994740000000  0.5083120000000  0.5503530000000 1.0
C      1  0.5423200000000  0.5024160000000  0.4717820000000 1.0
C      1  0.4579940000000  0.5033660000000  0.4805560000000 1.0
C      1  0.5576960000000  0.5229560000000  0.5135430000000 1.0
C      1  0.4792210000000  0.5198950000000  0.4382900000000 1.0
C      1  0.4546800000000  0.5214360000000  0.5512230000000 1.0
C      1  0.4518390000000  0.5829890000000  0.5333600000000 1.0
C      1  0.5795230000000  0.5877850000000  0.5213550000000 1.0
C      1  0.4952460000000  0.5680240000000  0.4435640000000 1.0
C      1  0.4300010000000  0.4569470000000  0.5418730000000 1.0
C      1  0.5709710000000  0.4609230000000  0.5429300000000 1.0
C      1  0.5024500000000  0.4591460000000  0.4164310000000 1.0
C      1  0.5175760000000  0.5303840000000  0.4195120000000 1.0
C      1  0.4240030000000  0.5319670000000  0.5278620000000 1.0
C      1  0.5563870000000  0.5340490000000  0.5531970000000 1.0
C      1  0.4618180000000  0.6107560000000  0.5292260000000 1.0
C      1  0.5534460000000  0.5958550000000  0.5230790000000 1.0
C      1  0.5009780000000  0.5967930000000  0.4484850000000 1.0
C      1  0.4428700000000  0.4966070000000  0.5634810000000 1.0
C      1  0.5834380000000  0.5049790000000  0.5240350000000 1.0
C      1  0.4789490000000  0.5022180000000  0.4092120000000 1.0
C      1  0.4479790000000  0.5693820000000  0.5579240000000 1.0
C      1  0.5846330000000  0.5620930000000  0.5107240000000 1.0
C      1  0.4752910000000  0.5585540000000  0.4260840000000 1.0
C      1  0.4333920000000  0.5449430000000  0.5533150000000 1.0
C      1  0.5811120000000  0.5384880000000  0.5305110000000 1.0
C      1  0.4869380000000  0.5351690000000  0.4087960000000 1.0
C      1  0.5299040000000  0.4829000000000  0.5303850000000 1.0
C      1  0.5117550000000  0.4812390000000  0.4573210000000 1.0
C      1  0.4584660000000  0.4788310000000  0.5146940000000 1.0
C      1  0.5719580000000  0.4565450000000  0.5144090000000 1.0
C      1  0.4769090000000  0.4564950000000  0.4296190000000 1.0
C      1  0.4537680000000  0.4503780000000  0.5573830000000 1.0
C      1  0.4242770000000  0.4852300000000  0.5443920000000 1.0
C      1  0.5722480000000  0.4890400000000  0.5488010000000 1.0
C      1  0.5061940000000  0.4861750000000  0.4078320000000 1.0
C      1  0.5249020000000  0.5416690000000  0.4477570000000 1.0
C      1  0.4437140000000  0.5392770000000  0.5035370000000 1.0
C      1  0.5276690000000  0.5436850000000  0.5472040000000 1.0
C      1  0.5444830000000  0.4981620000000  0.4397200000000 1.0
C      1  0.4286340000000  0.4988630000000  0.4957630000000 1.0
C      1  0.5241840000000  0.5001180000000  0.5662340000000 1.0
C      1  0.5723700000000  0.5565790000000  0.4850920000000 1.0
C      1  0.4511460000000  0.5528860000000  0.4403950000000 1.0
C      1  0.4736340000000  0.5635800000000  0.5702160000000 1.0
C      1  0.5211990000000  0.5054790000000  0.4983670000000 1.0
C      1  0.4880970000000  0.5197350000000  0.4810910000000 1.0
C      1  0.4895350000000  0.5177690000000  0.5209700000000 1.0
C      1  0.4679500000000  0.5822370000000  0.4849690000000 1.0
C      1  0.5013440000000  0.5786140000000  0.5249000000000 1.0
C      1  0.5195010000000  0.5722640000000  0.4893660000000 1.0
C      1  0.5387880000000  0.4610170000000  0.4527460000000 1.0
C      1  0.4407930000000  0.4614220000000  0.4911500000000 1.0
C      1  0.5234230000000  0.4615510000000  0.5562000000000 1.0
C      1  0.4765000000000  0.4444870000000  0.4550390000000 1.0
C      1  0.4750170000000  0.4399340000000  0.5422520000000 1.0
C      1  0.5488060000000  0.4454280000000  0.5022300000000 1.0
C      1  0.4709270000000  0.4470050000000  0.5129570000000 1.0
C      1  0.5217110000000  0.4536070000000  0.5170820000000 1.0
C      1  0.5018720000000  0.4524980000000  0.4711780000000 1.0
C      1  0.5155870000000  0.4768790000000  0.5830650000000 1.0
C      1  0.5660030000000  0.4784480000000  0.4502470000000 1.0
C      1  0.4263630000000  0.4813820000000  0.4699540000000 1.0
C      1  0.5063280000000  0.5137710000000  0.4541120000000 1.0
C      1  0.4578540000000  0.5125710000000  0.5193300000000 1.0
C      1  0.5311060000000  0.5168240000000  0.5276520000000 1.0
C      1  0.4998860000000  0.4422440000000  0.5515500000000 1.0
C      1  0.5461210000000  0.4417630000000  0.4757760000000 1.0
C      1  0.4541180000000  0.4430130000000  0.4697550000000 1.0
C      1  0.5338220000000  0.4291370000000  0.5353620000000 1.0
C      1  0.5150810000000  0.4289320000000  0.4541490000000 1.0
C      1  0.4493940000000  0.4249170000000  0.5049230000000 1.0
C      1  0.4282420000000  0.4449160000000  0.5162880000000 1.0
C      1  0.5507420000000  0.4452230000000  0.5552420000000 1.0
C      1  0.5234140000000  0.4446630000000  0.4291540000000 1.0
C      1  0.4932470000000  0.4914670000000  0.4996650000000 1.0
C      1  0.4966230000000  0.4601880000000  0.5001960000000 1.0
END
