TITL C-2782225-7408-1486 0.00248642933885786 125000 -710.830343300625 0 0 121 (C1) n - 1
REM
REM in /home/nfs/bkarasulu/CARBON/AIRSS/Generating-Clusters/REBO/Higher-Symm/SD-CG/HFTN-CG
REM
REM
REM
REM
REM
REM ./C.cell (12c818d87b63d06a65506943cc24bca4)
REM
REM compiler GCC version 9.2.1 20190827 (Red Hat 9.2.1-1)
REM options -cpp -mtune=generic -march=x86-64 -g -O0 -fpre-include=/usr/include/finclude/math-vector-fortran.h
REM seed -713823943 -553998129 2012759543 -700161677 -168582774 -1423809484 -1856607979 -257523486 898762121 1099966412 564518996 428089198 1182870018 216810545 -796832412 -1546439703 -878853851 -651123256 -701351211 -2091485587 -533582924 -1574045294 -1744788308 -1929240132 -1432885837 752708752 -326835353 -1018774389 -319255831 -1887427644 -1556273058 -533125544 1908008239
REM
CELL 1.54180   50.00000   50.00000   50.00000   90.00000   90.00000   90.00000
LATT -1
SFAC C  
C      1  0.5189500000000  0.4960440000000  0.4537920000000 1.0
C      1  0.4743350000000  0.5018640000000  0.4556960000000 1.0
C      1  0.4666610000000  0.4899900000000  0.5493500000000 1.0
C      1  0.5425090000000  0.4977740000000  0.5389950000000 1.0
C      1  0.4921400000000  0.5282780000000  0.4504130000000 1.0
C      1  0.4936430000000  0.4791840000000  0.4656270000000 1.0
C      1  0.4935680000000  0.4713600000000  0.5492980000000 1.0
C      1  0.5174900000000  0.5150150000000  0.5482560000000 1.0
C      1  0.5162060000000  0.5737470000000  0.4616930000000 1.0
C      1  0.4800480000000  0.4101370000000  0.4669880000000 1.0
C      1  0.4865790000000  0.5503780000000  0.5328820000000 1.0
C      1  0.5168110000000  0.4244770000000  0.5426190000000 1.0
C      1  0.5656980000000  0.5169350000000  0.4606350000000 1.0
C      1  0.4223470000000  0.4895950000000  0.4636400000000 1.0
C      1  0.5925640000000  0.4849680000000  0.5355470000000 1.0
C      1  0.4178300000000  0.5075080000000  0.5330210000000 1.0
C      1  0.4997500000000  0.5703260000000  0.5116790000000 1.0
C      1  0.5028270000000  0.4094680000000  0.5169860000000 1.0
C      1  0.5084290000000  0.5803080000000  0.4914490000000 1.0
C      1  0.4902420000000  0.4061130000000  0.4962430000000 1.0
C      1  0.5893780000000  0.4929390000000  0.5054310000000 1.0
C      1  0.4012720000000  0.5024070000000  0.5080960000000 1.0
C      1  0.5821280000000  0.5032570000000  0.4846200000000 1.0
C      1  0.4023000000000  0.4904340000000  0.4866530000000 1.0
C      1  0.5544720000000  0.4765630000000  0.5752870000000 1.0
C      1  0.4380350000000  0.5284550000000  0.5749260000000 1.0
C      1  0.4524840000000  0.4740310000000  0.4293810000000 1.0
C      1  0.5535680000000  0.5396840000000  0.4301870000000 1.0
C      1  0.4574590000000  0.5503270000000  0.5688420000000 1.0
C      1  0.5366050000000  0.4533540000000  0.5691700000000 1.0
C      1  0.4688670000000  0.4494940000000  0.4309700000000 1.0
C      1  0.5319910000000  0.5598550000000  0.4248400000000 1.0
C      1  0.4252880000000  0.5583440000000  0.4908460000000 1.0
C      1  0.5816080000000  0.4405730000000  0.4922310000000 1.0
C      1  0.5819900000000  0.5619160000000  0.5086090000000 1.0
C      1  0.4213310000000  0.4407570000000  0.5067340000000 1.0
C      1  0.5556110000000  0.4244200000000  0.4911860000000 1.0
C      1  0.4413360000000  0.5861660000000  0.4921110000000 1.0
C      1  0.5644530000000  0.5880050000000  0.5080200000000 1.0
C      1  0.4377570000000  0.4133450000000  0.5062880000000 1.0
C      1  0.5025110000000  0.4090460000000  0.4479440000000 1.0
C      1  0.4951860000000  0.5867110000000  0.4438700000000 1.0
C      1  0.4904850000000  0.4122950000000  0.5548780000000 1.0
C      1  0.5041720000000  0.5706140000000  0.5511200000000 1.0
C      1  0.4129500000000  0.5094520000000  0.4424240000000 1.0
C      1  0.5758690000000  0.4947380000000  0.4413130000000 1.0
C      1  0.4070790000000  0.4890390000000  0.5551620000000 1.0
C      1  0.6007110000000  0.5090340000000  0.5511050000000 1.0
C      1  0.4600760000000  0.5672670000000  0.5084490000000 1.0
C      1  0.5391360000000  0.4348930000000  0.5119580000000 1.0
C      1  0.5475420000000  0.5744500000000  0.4862240000000 1.0
C      1  0.4590930000000  0.4301530000000  0.4893950000000 1.0
C      1  0.5765810000000  0.4572720000000  0.5178350000000 1.0
C      1  0.4324460000000  0.5385190000000  0.5104840000000 1.0
C      1  0.5739680000000  0.5432270000000  0.4889600000000 1.0
C      1  0.4316710000000  0.4600630000000  0.4886300000000 1.0
C      1  0.4724240000000  0.5717310000000  0.4424490000000 1.0
C      1  0.5208830000000  0.4302500000000  0.4498050000000 1.0
C      1  0.5302170000000  0.5629360000000  0.5532270000000 1.0
C      1  0.4692240000000  0.4292250000000  0.5540740000000 1.0
C      1  0.5610810000000  0.4720010000000  0.4427230000000 1.0
C      1  0.4296250000000  0.5310640000000  0.4414280000000 1.0
C      1  0.5808510000000  0.5292940000000  0.5526750000000 1.0
C      1  0.4229460000000  0.4658450000000  0.5586070000000 1.0
C      1  0.5495160000000  0.4966510000000  0.5115720000000 1.0
C      1  0.4500540000000  0.5018600000000  0.5264050000000 1.0
C      1  0.4509850000000  0.5009810000000  0.4752460000000 1.0
C      1  0.5323270000000  0.5190540000000  0.4673450000000 1.0
C      1  0.4958930000000  0.5210610000000  0.5309230000000 1.0
C      1  0.5136830000000  0.4566480000000  0.5360140000000 1.0
C      1  0.4937190000000  0.4742610000000  0.4961440000000 1.0
C      1  0.5088960000000  0.5433580000000  0.4761530000000 1.0
C      1  0.4735460000000  0.4547370000000  0.5663780000000 1.0
C      1  0.5322460000000  0.5372230000000  0.5653680000000 1.0
C      1  0.5123710000000  0.4573940000000  0.4480550000000 1.0
C      1  0.4772950000000  0.5464950000000  0.4310540000000 1.0
C      1  0.4489240000000  0.4722940000000  0.5691200000000 1.0
C      1  0.5554770000000  0.5181380000000  0.5594460000000 1.0
C      1  0.4567310000000  0.5229240000000  0.4330960000000 1.0
C      1  0.5338050000000  0.4759740000000  0.4367720000000 1.0
C      1  0.4771630000000  0.5469010000000  0.4884740000000 1.0
C      1  0.5212140000000  0.4621560000000  0.5051970000000 1.0
C      1  0.5323620000000  0.5497640000000  0.5009280000000 1.0
C      1  0.4686940000000  0.4548810000000  0.5061910000000 1.0
C      1  0.5535460000000  0.4686270000000  0.4963740000000 1.0
C      1  0.4574650000000  0.5217130000000  0.4996350000000 1.0
C      1  0.5489340000000  0.5221080000000  0.4963430000000 1.0
C      1  0.4512860000000  0.4823490000000  0.5015570000000 1.0
C      1  0.4537700000000  0.4339460000000  0.5287180000000 1.0
C      1  0.5472330000000  0.5649790000000  0.5277600000000 1.0
C      1  0.5454380000000  0.4269790000000  0.4627800000000 1.0
C      1  0.4574690000000  0.5667440000000  0.4687800000000 1.0
C      1  0.4238200000000  0.4478310000000  0.5368820000000 1.0
C      1  0.5777990000000  0.5518990000000  0.5365980000000 1.0
C      1  0.4293560000000  0.5500710000000  0.4614700000000 1.0
C      1  0.5637130000000  0.4548760000000  0.4668930000000 1.0
C      1  0.5470690000000  0.5718060000000  0.4529190000000 1.0
C      1  0.4587430000000  0.4336990000000  0.4569430000000 1.0
C      1  0.4560680000000  0.5562550000000  0.5373850000000 1.0
C      1  0.5481380000000  0.4378460000000  0.5428780000000 1.0
C      1  0.5711380000000  0.5490140000000  0.4572040000000 1.0
C      1  0.4373200000000  0.4602050000000  0.4559110000000 1.0
C      1  0.5696220000000  0.4637200000000  0.5493370000000 1.0
C      1  0.4306020000000  0.5351190000000  0.5435570000000 1.0
C      1  0.4482440000000  0.5066090000000  0.5894680000000 1.0
C      1  0.5430380000000  0.4969020000000  0.5908290000000 1.0
C      1  0.5488670000000  0.5138560000000  0.4189240000000 1.0
C      1  0.4620660000000  0.4971380000000  0.4179470000000 1.0
C      1  0.5108980000000  0.4544200000000  0.5811070000000 1.0
C      1  0.4819530000000  0.5491790000000  0.5833210000000 1.0
C      1  0.5105450000000  0.5507300000000  0.4092370000000 1.0
C      1  0.4921280000000  0.4507810000000  0.4143290000000 1.0
C      1  0.4756970000000  0.5000340000000  0.5932100000000 1.0
C      1  0.5154570000000  0.5027370000000  0.5940520000000 1.0
C      1  0.5254600000000  0.5018940000000  0.4075480000000 1.0
C      1  0.4860480000000  0.4988320000000  0.4032880000000 1.0
C      1  0.4973300000000  0.4773120000000  0.5905500000000 1.0
C      1  0.4943250000000  0.5255570000000  0.5924970000000 1.0
C      1  0.5033360000000  0.5243170000000  0.4022280000000 1.0
C      1  0.5052370000000  0.4748450000000  0.4060750000000 1.0
C      1  0.4899930000000  0.5021260000000  0.5121950000000 1.0
END
