TITL C-2782233-7966-448 0.00138823029216238 125000 -606.553813814533 0 0 106 (C1) n - 1
REM
REM in /home/nfs/bkarasulu/CARBON/AIRSS/Generating-Clusters/REBO/Higher-Symm/SD-CG/HFTN-CG
REM
REM
REM
REM
REM
REM ./C.cell (12c818d87b63d06a65506943cc24bca4)
REM
REM compiler GCC version 9.2.1 20190827 (Red Hat 9.2.1-1)
REM options -cpp -mtune=generic -march=x86-64 -g -O0 -fpre-include=/usr/include/finclude/math-vector-fortran.h
REM seed 988453275 -1939892722 1249173724 450167161 1002285330 -750981490 1834845310 385167955 1779173777 184411063 1628646769 1180323727 424767639 1620613660 -205923844 604043739 -759787969 892103676 -1316544929 1077672747 -309516657 105450145 -107022272 -1328454888 2141726324 -2140559790 733970810 -2077034059 -866149799 967260503 -423342831 -1582580792 542190411
REM
CELL 1.54180   50.00000   50.00000   50.00000   90.00000   90.00000   90.00000
LATT -1
SFAC C  
C      1  0.4365020000000  0.5603490000000  0.5051660000000 1.0
C      1  0.4725250000000  0.4059250000000  0.5132560000000 1.0
C      1  0.5792620000000  0.5114060000000  0.5159150000000 1.0
C      1  0.5233570000000  0.5159700000000  0.4385990000000 1.0
C      1  0.4839870000000  0.5114540000000  0.4429170000000 1.0
C      1  0.5073950000000  0.4794340000000  0.4406600000000 1.0
C      1  0.5138730000000  0.4940440000000  0.5105540000000 1.0
C      1  0.4956890000000  0.5258470000000  0.5264360000000 1.0
C      1  0.4644370000000  0.4658760000000  0.5609670000000 1.0
C      1  0.5333470000000  0.4899780000000  0.4564100000000 1.0
C      1  0.5034740000000  0.5390580000000  0.4487740000000 1.0
C      1  0.4792620000000  0.4821050000000  0.4597080000000 1.0
C      1  0.5731270000000  0.5135270000000  0.4871410000000 1.0
C      1  0.4427400000000  0.5713580000000  0.4810350000000 1.0
C      1  0.4581430000000  0.4062480000000  0.4863330000000 1.0
C      1  0.5386880000000  0.5780920000000  0.5089760000000 1.0
C      1  0.4418660000000  0.4897730000000  0.5098380000000 1.0
C      1  0.5443130000000  0.4479580000000  0.5165960000000 1.0
C      1  0.5303670000000  0.4792340000000  0.4850210000000 1.0
C      1  0.5095690000000  0.5585390000000  0.4719740000000 1.0
C      1  0.4543910000000  0.4731630000000  0.4795150000000 1.0
C      1  0.4563850000000  0.5109250000000  0.3963930000000 1.0
C      1  0.5096820000000  0.4537430000000  0.3985680000000 1.0
C      1  0.5259570000000  0.5321330000000  0.3870580000000 1.0
C      1  0.5637660000000  0.4643400000000  0.5472000000000 1.0
C      1  0.5045360000000  0.5781020000000  0.5296780000000 1.0
C      1  0.4220970000000  0.4669530000000  0.5359690000000 1.0
C      1  0.5823050000000  0.5143670000000  0.5748450000000 1.0
C      1  0.4589440000000  0.5641740000000  0.5560080000000 1.0
C      1  0.5316370000000  0.3895560000000  0.5571980000000 1.0
C      1  0.5534520000000  0.4563510000000  0.4858550000000 1.0
C      1  0.4945580000000  0.5822840000000  0.4665910000000 1.0
C      1  0.4244050000000  0.4588480000000  0.4730150000000 1.0
C      1  0.4274150000000  0.5262170000000  0.5379290000000 1.0
C      1  0.5122730000000  0.4308770000000  0.5327190000000 1.0
C      1  0.5597900000000  0.5504610000000  0.5458690000000 1.0
C      1  0.4688220000000  0.4120760000000  0.6041750000000 1.0
C      1  0.5248630000000  0.4899570000000  0.5810640000000 1.0
C      1  0.4974880000000  0.5582590000000  0.5766520000000 1.0
C      1  0.5585570000000  0.5432200000000  0.4790840000000 1.0
C      1  0.4457610000000  0.5238050000000  0.4680800000000 1.0
C      1  0.4960340000000  0.4375870000000  0.4734110000000 1.0
C      1  0.5313020000000  0.4529160000000  0.4155410000000 1.0
C      1  0.5157120000000  0.5541790000000  0.4001180000000 1.0
C      1  0.4452270000000  0.4991970000000  0.4184650000000 1.0
C      1  0.4881950000000  0.5828660000000  0.4349590000000 1.0
C      1  0.4078110000000  0.4523170000000  0.4520290000000 1.0
C      1  0.5654490000000  0.4665830000000  0.4594400000000 1.0
C      1  0.4482520000000  0.4509130000000  0.5432100000000 1.0
C      1  0.5718690000000  0.4960220000000  0.5519610000000 1.0
C      1  0.4840920000000  0.5570620000000  0.5340780000000 1.0
C      1  0.4819860000000  0.5208410000000  0.3931370000000 1.0
C      1  0.4862780000000  0.4688190000000  0.3986940000000 1.0
C      1  0.5297030000000  0.5048840000000  0.3910000000000 1.0
C      1  0.5917160000000  0.4840120000000  0.5270220000000 1.0
C      1  0.4954690000000  0.6251020000000  0.5072550000000 1.0
C      1  0.4485480000000  0.4281340000000  0.5180430000000 1.0
C      1  0.5747040000000  0.4928340000000  0.4620200000000 1.0
C      1  0.4631430000000  0.5798890000000  0.4566490000000 1.0
C      1  0.4412530000000  0.4359470000000  0.4855100000000 1.0
C      1  0.5012350000000  0.5599850000000  0.4238380000000 1.0
C      1  0.4505270000000  0.4895460000000  0.4432370000000 1.0
C      1  0.5452470000000  0.4644370000000  0.4366270000000 1.0
C      1  0.4560400000000  0.4949680000000  0.5602590000000 1.0
C      1  0.5178260000000  0.4620150000000  0.5739650000000 1.0
C      1  0.5245270000000  0.5596640000000  0.5690020000000 1.0
C      1  0.4225620000000  0.5160270000000  0.4867240000000 1.0
C      1  0.5128320000000  0.4178610000000  0.4873850000000 1.0
C      1  0.5787350000000  0.5592900000000  0.4989610000000 1.0
C      1  0.4855190000000  0.4287790000000  0.5919110000000 1.0
C      1  0.5282700000000  0.5125430000000  0.5672620000000 1.0
C      1  0.4795700000000  0.5370940000000  0.5767400000000 1.0
C      1  0.4695450000000  0.4294060000000  0.4678650000000 1.0
C      1  0.5572260000000  0.5197320000000  0.4553670000000 1.0
C      1  0.4491720000000  0.5495970000000  0.4595010000000 1.0
C      1  0.4619590000000  0.5045120000000  0.4879480000000 1.0
C      1  0.5006470000000  0.4637780000000  0.4855090000000 1.0
C      1  0.5321130000000  0.5587760000000  0.4878960000000 1.0
C      1  0.4999650000000  0.6018000000000  0.5183720000000 1.0
C      1  0.4187610000000  0.4443340000000  0.5174260000000 1.0
C      1  0.5851960000000  0.4547790000000  0.5280550000000 1.0
C      1  0.5233610000000  0.5124020000000  0.5355970000000 1.0
C      1  0.4725260000000  0.5215470000000  0.5479770000000 1.0
C      1  0.4852620000000  0.4555330000000  0.5759260000000 1.0
C      1  0.4417520000000  0.5426620000000  0.5623040000000 1.0
C      1  0.5210840000000  0.4149210000000  0.5587520000000 1.0
C      1  0.5690900000000  0.5385880000000  0.5756720000000 1.0
C      1  0.5392600000000  0.5369360000000  0.5773260000000 1.0
C      1  0.4524590000000  0.5208570000000  0.5820210000000 1.0
C      1  0.5149150000000  0.4300440000000  0.5816680000000 1.0
C      1  0.5345210000000  0.4513150000000  0.5491100000000 1.0
C      1  0.5337500000000  0.5697540000000  0.5400250000000 1.0
C      1  0.4328530000000  0.4966010000000  0.5390290000000 1.0
C      1  0.5000200000000  0.4117630000000  0.5128550000000 1.0
C      1  0.5816260000000  0.5430520000000  0.5228560000000 1.0
C      1  0.4199530000000  0.5350820000000  0.5084210000000 1.0
C      1  0.4988730000000  0.5208930000000  0.4142240000000 1.0
C      1  0.4826970000000  0.4853070000000  0.4201830000000 1.0
C      1  0.5264740000000  0.4925560000000  0.4152640000000 1.0
C      1  0.5535580000000  0.5187630000000  0.5369340000000 1.0
C      1  0.4560000000000  0.5403290000000  0.5244930000000 1.0
C      1  0.5132560000000  0.4612950000000  0.5169890000000 1.0
C      1  0.5667080000000  0.5851690000000  0.5046520000000 1.0
C      1  0.4177820000000  0.4857480000000  0.4889010000000 1.0
C      1  0.5399930000000  0.4262110000000  0.4910410000000 1.0
C      1  0.4882920000000  0.5107790000000  0.4991430000000 1.0
END
