TITL C-2782237-5345-259 0.00118062870500284 125000 -773.950997912266 0 0 133 (C1) n - 1
REM
REM in /home/nfs/bkarasulu/CARBON/AIRSS/Generating-Clusters/REBO/Higher-Symm/SD-CG/HFTN-CG
REM
REM
REM
REM
REM
REM ./C.cell (12c818d87b63d06a65506943cc24bca4)
REM
REM compiler GCC version 9.2.1 20190827 (Red Hat 9.2.1-1)
REM options -cpp -mtune=generic -march=x86-64 -g -O0 -fpre-include=/usr/include/finclude/math-vector-fortran.h
REM seed 1074129413 -883779119 -431129658 411213812 524094521 178699819 -1669210921 -518268331 -556152903 -1780785956 1243981049 1235952206 -357356589 1143470348 -1920389665 1403953711 1325023854 -625550839 -183898299 1151914078 962124525 -1662798205 241758799 -1951103097 -1613208476 -310342705 1406739953 -2019949693 -888191604 -1914638740 1454750852 1274962731 -2141301038
REM
CELL 1.54180   50.00000   50.00000   50.00000   90.00000   90.00000   90.00000
LATT -1
SFAC C  
C      1  0.5678270000000  0.5704050000000  0.4467500000000 1.0
C      1  0.5202000000000  0.5995020000000  0.5125510000000 1.0
C      1  0.5111720000000  0.4049530000000  0.4761670000000 1.0
C      1  0.4268610000000  0.4863830000000  0.4504810000000 1.0
C      1  0.4391840000000  0.5477300000000  0.4389860000000 1.0
C      1  0.4127740000000  0.5103290000000  0.4706310000000 1.0
C      1  0.5610340000000  0.5708960000000  0.5089330000000 1.0
C      1  0.4320170000000  0.4536440000000  0.5236640000000 1.0
C      1  0.4949270000000  0.6035800000000  0.5053060000000 1.0
C      1  0.4615260000000  0.5027280000000  0.5118470000000 1.0
C      1  0.5579310000000  0.4547750000000  0.4503820000000 1.0
C      1  0.5320080000000  0.5740430000000  0.4817330000000 1.0
C      1  0.5037410000000  0.5194750000000  0.5431430000000 1.0
C      1  0.5030280000000  0.4190140000000  0.4489160000000 1.0
C      1  0.4156830000000  0.4983030000000  0.5233400000000 1.0
C      1  0.4717770000000  0.4295060000000  0.4495800000000 1.0
C      1  0.5050680000000  0.4808910000000  0.4816710000000 1.0
C      1  0.4573280000000  0.5077270000000  0.5430350000000 1.0
C      1  0.5858170000000  0.4870280000000  0.5292620000000 1.0
C      1  0.4231130000000  0.4919730000000  0.5563320000000 1.0
C      1  0.5257250000000  0.4441260000000  0.5495880000000 1.0
C      1  0.5202260000000  0.5967740000000  0.4690390000000 1.0
C      1  0.6004020000000  0.4529450000000  0.4972970000000 1.0
C      1  0.4116130000000  0.4772940000000  0.4794600000000 1.0
C      1  0.4877510000000  0.5712670000000  0.4229850000000 1.0
C      1  0.5017770000000  0.4641720000000  0.5246240000000 1.0
C      1  0.4664640000000  0.4845290000000  0.4561530000000 1.0
C      1  0.4442490000000  0.4747010000000  0.5020720000000 1.0
C      1  0.4540670000000  0.5245650000000  0.5824070000000 1.0
C      1  0.5606600000000  0.5434040000000  0.5526030000000 1.0
C      1  0.4918490000000  0.4406550000000  0.5715640000000 1.0
C      1  0.5875690000000  0.4582910000000  0.5221190000000 1.0
C      1  0.5316360000000  0.4532700000000  0.4931120000000 1.0
C      1  0.5653470000000  0.4887470000000  0.4311630000000 1.0
C      1  0.4582290000000  0.5549950000000  0.5677170000000 1.0
C      1  0.5900710000000  0.5007440000000  0.4988420000000 1.0
C      1  0.4728620000000  0.5871290000000  0.4571640000000 1.0
C      1  0.4993700000000  0.5685750000000  0.5282750000000 1.0
C      1  0.4401500000000  0.4986850000000  0.5835980000000 1.0
C      1  0.4505950000000  0.4103310000000  0.5206990000000 1.0
C      1  0.4660480000000  0.4238390000000  0.5465110000000 1.0
C      1  0.4957030000000  0.4313080000000  0.5181900000000 1.0
C      1  0.5478110000000  0.4359660000000  0.4680860000000 1.0
C      1  0.4715020000000  0.5865710000000  0.5214110000000 1.0
C      1  0.4211770000000  0.5489290000000  0.5136560000000 1.0
C      1  0.5799990000000  0.5062840000000  0.4677320000000 1.0
C      1  0.5498520000000  0.5539690000000  0.4316140000000 1.0
C      1  0.5108560000000  0.4960030000000  0.5116230000000 1.0
C      1  0.4386370000000  0.5521610000000  0.5404560000000 1.0
C      1  0.4933960000000  0.4571840000000  0.4167430000000 1.0
C      1  0.5411750000000  0.4970600000000  0.5273070000000 1.0
C      1  0.5351640000000  0.4668880000000  0.5304330000000 1.0
C      1  0.4579980000000  0.4453840000000  0.5717840000000 1.0
C      1  0.5584190000000  0.4649020000000  0.5626650000000 1.0
C      1  0.4860220000000  0.5530360000000  0.5872080000000 1.0
C      1  0.4980890000000  0.4902020000000  0.4171840000000 1.0
C      1  0.5047180000000  0.4516150000000  0.4546350000000 1.0
C      1  0.5422040000000  0.4302270000000  0.5159040000000 1.0
C      1  0.5096560000000  0.4932690000000  0.5591100000000 1.0
C      1  0.4475110000000  0.5108560000000  0.4518790000000 1.0
C      1  0.5116250000000  0.5284540000000  0.5036240000000 1.0
C      1  0.5369830000000  0.5811280000000  0.5231310000000 1.0
C      1  0.4259200000000  0.4233560000000  0.5186340000000 1.0
C      1  0.5677450000000  0.5339470000000  0.4630970000000 1.0
C      1  0.5092110000000  0.4604460000000  0.5883460000000 1.0
C      1  0.5356980000000  0.4685130000000  0.5796100000000 1.0
C      1  0.4615500000000  0.4811410000000  0.5549510000000 1.0
C      1  0.5252640000000  0.5597550000000  0.5449270000000 1.0
C      1  0.4767740000000  0.5281890000000  0.5574020000000 1.0
C      1  0.5039310000000  0.5524070000000  0.4538530000000 1.0
C      1  0.5075570000000  0.5363110000000  0.5895420000000 1.0
C      1  0.4905610000000  0.4694150000000  0.5541550000000 1.0
C      1  0.4537060000000  0.5232490000000  0.4232770000000 1.0
C      1  0.5019920000000  0.3984220000000  0.5248600000000 1.0
C      1  0.4660340000000  0.4107390000000  0.4967090000000 1.0
C      1  0.5052280000000  0.5078400000000  0.5959250000000 1.0
C      1  0.4036890000000  0.4776850000000  0.5073730000000 1.0
C      1  0.5209120000000  0.4402780000000  0.4284360000000 1.0
C      1  0.4665360000000  0.5940110000000  0.4890950000000 1.0
C      1  0.4287610000000  0.5569280000000  0.4851860000000 1.0
C      1  0.4374770000000  0.4554260000000  0.4757750000000 1.0
C      1  0.4817970000000  0.5268600000000  0.5180000000000 1.0
C      1  0.4624120000000  0.4751050000000  0.5883700000000 1.0
C      1  0.5552890000000  0.5154460000000  0.5683170000000 1.0
C      1  0.5638460000000  0.5719840000000  0.4748010000000 1.0
C      1  0.4663180000000  0.4376840000000  0.4814180000000 1.0
C      1  0.4285110000000  0.5225080000000  0.5426880000000 1.0
C      1  0.4678470000000  0.4577120000000  0.4349100000000 1.0
C      1  0.5332660000000  0.5424850000000  0.5733380000000 1.0
C      1  0.5396840000000  0.5152670000000  0.4920440000000 1.0
C      1  0.4991210000000  0.5397610000000  0.4160820000000 1.0
C      1  0.4915910000000  0.3984980000000  0.4957940000000 1.0
C      1  0.4389510000000  0.4681550000000  0.4322390000000 1.0
C      1  0.6015060000000  0.4752930000000  0.4791890000000 1.0
C      1  0.4793780000000  0.5332640000000  0.4434380000000 1.0
C      1  0.5706610000000  0.4910340000000  0.5536550000000 1.0
C      1  0.5626480000000  0.4468210000000  0.5347510000000 1.0
C      1  0.4929130000000  0.5669480000000  0.4773790000000 1.0
C      1  0.4546960000000  0.5270930000000  0.4809310000000 1.0
C      1  0.5944400000000  0.4823230000000  0.4480870000000 1.0
C      1  0.4961940000000  0.4143960000000  0.5543500000000 1.0
C      1  0.5467130000000  0.4618010000000  0.4209460000000 1.0
C      1  0.5341660000000  0.5278760000000  0.5365770000000 1.0
C      1  0.4762890000000  0.4749360000000  0.5061250000000 1.0
C      1  0.5325710000000  0.4996160000000  0.5815320000000 1.0
C      1  0.5214570000000  0.5686980000000  0.4309900000000 1.0
C      1  0.4656530000000  0.4472740000000  0.5217030000000 1.0
C      1  0.5261340000000  0.5291880000000  0.4302270000000 1.0
C      1  0.4273530000000  0.5198510000000  0.4999890000000 1.0
C      1  0.5713070000000  0.5434780000000  0.5240350000000 1.0
C      1  0.5132720000000  0.5214420000000  0.4607960000000 1.0
C      1  0.4681550000000  0.5549440000000  0.5290370000000 1.0
C      1  0.5260620000000  0.4154150000000  0.5387500000000 1.0
C      1  0.4828670000000  0.5116530000000  0.4694750000000 1.0
C      1  0.4819670000000  0.5138700000000  0.4090660000000 1.0
C      1  0.4916030000000  0.4820660000000  0.5974450000000 1.0
C      1  0.5373960000000  0.5420760000000  0.4731230000000 1.0
C      1  0.5109840000000  0.5589470000000  0.5014380000000 1.0
C      1  0.5582070000000  0.5206390000000  0.4330870000000 1.0
C      1  0.4972860000000  0.4811260000000  0.4485030000000 1.0
C      1  0.5647010000000  0.5158210000000  0.5114290000000 1.0
C      1  0.4983340000000  0.4471220000000  0.4880270000000 1.0
C      1  0.4603950000000  0.5606230000000  0.4841500000000 1.0
C      1  0.5030600000000  0.5916820000000  0.4464740000000 1.0
C      1  0.4563800000000  0.5705210000000  0.4361040000000 1.0
C      1  0.4350600000000  0.4620490000000  0.5528110000000 1.0
C      1  0.5362680000000  0.4145440000000  0.4862460000000 1.0
C      1  0.5372260000000  0.4855530000000  0.4838670000000 1.0
C      1  0.5794450000000  0.5480020000000  0.4913010000000 1.0
C      1  0.5217040000000  0.4710530000000  0.4036380000000 1.0
C      1  0.4396020000000  0.4341060000000  0.4525620000000 1.0
C      1  0.4224860000000  0.5410180000000  0.4618040000000 1.0
C      1  0.5581090000000  0.4830020000000  0.4637300000000 1.0
END
