TITL C-2782236-320-633 0.000802539366123657 125000 -1019.18059398112 0 0 182 (C1) n - 1
REM
REM in /home/nfs/bkarasulu/CARBON/AIRSS/Generating-Clusters/REBO/Higher-Symm/SD-CG/HFTN-CG
REM
REM
REM
REM
REM
REM ./C.cell (12c818d87b63d06a65506943cc24bca4)
REM
REM compiler GCC version 9.2.1 20190827 (Red Hat 9.2.1-1)
REM options -cpp -mtune=generic -march=x86-64 -g -O0 -fpre-include=/usr/include/finclude/math-vector-fortran.h
REM seed 779274605 -122184306 -1541929674 -2004773311 -1002484470 1171843882 -117954451 1916656327 1881136075 977762312 989365701 462199152 -1360655502 1085050225 155354367 -1429040503 1549691898 -2016461619 745138341 49652995 -1106307065 1375985720 -1808556316 -871138520 -832000538 513789210 -492356684 -1077451487 -1434761532 -1227976017 -940261410 -912467631 1729202153
REM
CELL 1.54180   50.00000   50.00000   50.00000   90.00000   90.00000   90.00000
LATT -1
SFAC C  
C      1  0.4374020000000  0.5893760000000  0.5281060000000 1.0
C      1  0.4405040000000  0.5439680000000  0.4175200000000 1.0
C      1  0.4313210000000  0.4415490000000  0.4253650000000 1.0
C      1  0.4395180000000  0.4197750000000  0.5340870000000 1.0
C      1  0.4322550000000  0.5017570000000  0.5981700000000 1.0
C      1  0.4921470000000  0.4303860000000  0.5895360000000 1.0
C      1  0.4948560000000  0.5615410000000  0.5883030000000 1.0
C      1  0.4887090000000  0.6076520000000  0.4670530000000 1.0
C      1  0.5014630000000  0.5062740000000  0.3817130000000 1.0
C      1  0.4927370000000  0.3966640000000  0.4678610000000 1.0
C      1  0.5857000000000  0.4481300000000  0.5136960000000 1.0
C      1  0.5850520000000  0.4952730000000  0.5579490000000 1.0
C      1  0.5859510000000  0.5546300000000  0.5240870000000 1.0
C      1  0.5821620000000  0.5365520000000  0.4582230000000 1.0
C      1  0.5833400000000  0.4689810000000  0.4509850000000 1.0
C      1  0.5119830000000  0.5145970000000  0.5249030000000 1.0
C      1  0.5107740000000  0.5257790000000  0.4939790000000 1.0
C      1  0.5049710000000  0.5013230000000  0.4733960000000 1.0
C      1  0.5017210000000  0.4737770000000  0.4923230000000 1.0
C      1  0.5069700000000  0.4826290000000  0.5247650000000 1.0
C      1  0.4207120000000  0.5538470000000  0.5336950000000 1.0
C      1  0.4213320000000  0.5375760000000  0.4548300000000 1.0
C      1  0.4228020000000  0.4744330000000  0.4458120000000 1.0
C      1  0.4199840000000  0.4413820000000  0.5073450000000 1.0
C      1  0.4182170000000  0.4967330000000  0.5576790000000 1.0
C      1  0.4787790000000  0.5717680000000  0.4222430000000 1.0
C      1  0.4755600000000  0.4406810000000  0.4071080000000 1.0
C      1  0.4850010000000  0.4007150000000  0.5242220000000 1.0
C      1  0.4684170000000  0.4883580000000  0.5893160000000 1.0
C      1  0.4920290000000  0.6049070000000  0.5178840000000 1.0
C      1  0.4513850000000  0.4247260000000  0.4394130000000 1.0
C      1  0.4611130000000  0.4273520000000  0.5516840000000 1.0
C      1  0.4536670000000  0.5242250000000  0.5995320000000 1.0
C      1  0.4558480000000  0.5945720000000  0.5043930000000 1.0
C      1  0.4610630000000  0.5314670000000  0.3984680000000 1.0
C      1  0.4202880000000  0.5234050000000  0.4254680000000 1.0
C      1  0.4207200000000  0.4441860000000  0.4560680000000 1.0
C      1  0.4162290000000  0.4407370000000  0.5373970000000 1.0
C      1  0.4208840000000  0.5221500000000  0.5767830000000 1.0
C      1  0.4217640000000  0.5708440000000  0.5040580000000 1.0
C      1  0.4706440000000  0.5574140000000  0.5183800000000 1.0
C      1  0.4782450000000  0.5446600000000  0.4315070000000 1.0
C      1  0.4656610000000  0.4643180000000  0.4521450000000 1.0
C      1  0.4748140000000  0.4478360000000  0.5204990000000 1.0
C      1  0.4771680000000  0.5082350000000  0.5716280000000 1.0
C      1  0.4390870000000  0.5221820000000  0.4972020000000 1.0
C      1  0.4325360000000  0.5022680000000  0.4731110000000 1.0
C      1  0.4274070000000  0.4737090000000  0.4855230000000 1.0
C      1  0.4293870000000  0.4779200000000  0.5192940000000 1.0
C      1  0.4401190000000  0.5083730000000  0.5263490000000 1.0
C      1  0.4909910000000  0.4201930000000  0.4900000000000 1.0
C      1  0.4960890000000  0.4606700000000  0.5867490000000 1.0
C      1  0.4897870000000  0.5618260000000  0.5549780000000 1.0
C      1  0.4899230000000  0.5762610000000  0.4602030000000 1.0
C      1  0.4852040000000  0.4802100000000  0.3859750000000 1.0
C      1  0.4533630000000  0.4842560000000  0.4326810000000 1.0
C      1  0.4535760000000  0.4384630000000  0.4997490000000 1.0
C      1  0.4464990000000  0.4775800000000  0.5577010000000 1.0
C      1  0.4528600000000  0.5542730000000  0.5419740000000 1.0
C      1  0.4553980000000  0.5375400000000  0.4540380000000 1.0
C      1  0.4586290000000  0.5680360000000  0.4883660000000 1.0
C      1  0.4678380000000  0.5120920000000  0.4260960000000 1.0
C      1  0.4612750000000  0.4359620000000  0.4688020000000 1.0
C      1  0.4681360000000  0.4606400000000  0.5494070000000 1.0
C      1  0.4596060000000  0.5367490000000  0.5684850000000 1.0
C      1  0.4768800000000  0.6139270000000  0.4948590000000 1.0
C      1  0.4915430000000  0.5273860000000  0.3980200000000 1.0
C      1  0.4789760000000  0.4102080000000  0.4439150000000 1.0
C      1  0.4765700000000  0.4143160000000  0.5700970000000 1.0
C      1  0.4836620000000  0.5341130000000  0.6011460000000 1.0
C      1  0.5949260000000  0.4679670000000  0.5400210000000 1.0
C      1  0.5916690000000  0.5262430000000  0.5427540000000 1.0
C      1  0.5872140000000  0.5472790000000  0.4904530000000 1.0
C      1  0.5873520000000  0.5027080000000  0.4545830000000 1.0
C      1  0.5917950000000  0.4552550000000  0.4809730000000 1.0
C      1  0.5561240000000  0.5685420000000  0.5143180000000 1.0
C      1  0.5488820000000  0.5302510000000  0.4534250000000 1.0
C      1  0.5545040000000  0.4550030000000  0.4397810000000 1.0
C      1  0.5558940000000  0.4411190000000  0.5282210000000 1.0
C      1  0.5534850000000  0.5064820000000  0.5650690000000 1.0
C      1  0.5068330000000  0.5263610000000  0.4273750000000 1.0
C      1  0.4882580000000  0.4426410000000  0.4382870000000 1.0
C      1  0.4961000000000  0.4277050000000  0.5298120000000 1.0
C      1  0.5053650000000  0.5175150000000  0.5808820000000 1.0
C      1  0.4961960000000  0.5741310000000  0.5174640000000 1.0
C      1  0.4885510000000  0.4965290000000  0.4466680000000 1.0
C      1  0.4911680000000  0.4492960000000  0.4789290000000 1.0
C      1  0.4988010000000  0.4716900000000  0.5548820000000 1.0
C      1  0.4916400000000  0.5323670000000  0.5420040000000 1.0
C      1  0.4894610000000  0.5495430000000  0.4805450000000 1.0
C      1  0.4173310000000  0.4957390000000  0.4209790000000 1.0
C      1  0.4219890000000  0.4265840000000  0.4791870000000 1.0
C      1  0.4169850000000  0.4623610000000  0.5595450000000 1.0
C      1  0.4215630000000  0.5485610000000  0.5660680000000 1.0
C      1  0.4317790000000  0.5639330000000  0.4723000000000 1.0
C      1  0.4442470000000  0.5678410000000  0.4415520000000 1.0
C      1  0.4356490000000  0.4695010000000  0.4084840000000 1.0
C      1  0.4405000000000  0.4078580000000  0.5019830000000 1.0
C      1  0.4343240000000  0.4691150000000  0.5885890000000 1.0
C      1  0.4380540000000  0.5780610000000  0.5601950000000 1.0
C      1  0.5206410000000  0.5607060000000  0.5298660000000 1.0
C      1  0.5112480000000  0.5434620000000  0.4536190000000 1.0
C      1  0.5013430000000  0.4732080000000  0.4314310000000 1.0
C      1  0.5211290000000  0.4316220000000  0.5126230000000 1.0
C      1  0.5182500000000  0.4917580000000  0.5766540000000 1.0
C      1  0.5550540000000  0.5128460000000  0.4092510000000 1.0
C      1  0.5446590000000  0.4243710000000  0.4481270000000 1.0
C      1  0.5478940000000  0.4319330000000  0.5604010000000 1.0
C      1  0.5456730000000  0.5337060000000  0.5840330000000 1.0
C      1  0.5423530000000  0.5896390000000  0.4912300000000 1.0
C      1  0.5734240000000  0.5409570000000  0.5657180000000 1.0
C      1  0.5678000000000  0.5718000000000  0.4769540000000 1.0
C      1  0.5784710000000  0.5093190000000  0.4223640000000 1.0
C      1  0.5673660000000  0.4367750000000  0.4708170000000 1.0
C      1  0.5700900000000  0.4583490000000  0.5593660000000 1.0
C      1  0.5339990000000  0.4767240000000  0.4847530000000 1.0
C      1  0.5318240000000  0.4616770000000  0.5154890000000 1.0
C      1  0.5350390000000  0.5044380000000  0.5428110000000 1.0
C      1  0.5367410000000  0.5410900000000  0.5077290000000 1.0
C      1  0.5355540000000  0.5034920000000  0.4636720000000 1.0
C      1  0.5699040000000  0.4864220000000  0.5871280000000 1.0
C      1  0.5715590000000  0.5798080000000  0.5419840000000 1.0
C      1  0.5633180000000  0.5581320000000  0.4399650000000 1.0
C      1  0.5778730000000  0.4631560000000  0.4176970000000 1.0
C      1  0.5713220000000  0.4172090000000  0.5105490000000 1.0
C      1  0.5417030000000  0.5757650000000  0.4224410000000 1.0
C      1  0.6003420000000  0.4568700000000  0.3993680000000 1.0
C      1  0.5870810000000  0.3952070000000  0.5242760000000 1.0
C      1  0.5826240000000  0.4981340000000  0.6120330000000 1.0
C      1  0.5871620000000  0.6057820000000  0.5417720000000 1.0
C      1  0.4608840000000  0.4753590000000  0.5129900000000 1.0
C      1  0.4627700000000  0.5155850000000  0.5421410000000 1.0
C      1  0.4688190000000  0.5313550000000  0.4998280000000 1.0
C      1  0.4643820000000  0.5108300000000  0.4657930000000 1.0
C      1  0.4597570000000  0.4740150000000  0.4801330000000 1.0
C      1  0.4648270000000  0.4634690000000  0.3951440000000 1.0
C      1  0.4709250000000  0.3952330000000  0.4950360000000 1.0
C      1  0.4650870000000  0.4547350000000  0.5934490000000 1.0
C      1  0.4673320000000  0.5762030000000  0.5739500000000 1.0
C      1  0.4672130000000  0.5929540000000  0.4441080000000 1.0
C      1  0.5461270000000  0.5496080000000  0.5478050000000 1.0
C      1  0.5379560000000  0.5560190000000  0.4707330000000 1.0
C      1  0.5321850000000  0.4757090000000  0.4355800000000 1.0
C      1  0.5360570000000  0.4371660000000  0.4843540000000 1.0
C      1  0.5378010000000  0.4695430000000  0.5631690000000 1.0
C      1  0.5484120000000  0.4737210000000  0.4051500000000 1.0
C      1  0.5520280000000  0.4062450000000  0.4873110000000 1.0
C      1  0.5531570000000  0.4582540000000  0.5929900000000 1.0
C      1  0.5521760000000  0.5765280000000  0.5677520000000 1.0
C      1  0.5520570000000  0.5884850000000  0.4525120000000 1.0
C      1  0.5149570000000  0.5701170000000  0.4915140000000 1.0
C      1  0.5297310000000  0.5066600000000  0.4253900000000 1.0
C      1  0.5151220000000  0.4379620000000  0.4587420000000 1.0
C      1  0.5180100000000  0.4446080000000  0.5499190000000 1.0
C      1  0.5195320000000  0.5361620000000  0.5612380000000 1.0
C      1  0.5339730000000  0.4985680000000  0.3866330000000 1.0
C      1  0.5266680000000  0.4001360000000  0.4640920000000 1.0
C      1  0.5267270000000  0.4355810000000  0.5873700000000 1.0
C      1  0.5289100000000  0.5628650000000  0.5892590000000 1.0
C      1  0.5220210000000  0.5992230000000  0.4653130000000 1.0
C      1  0.5189860000000  0.5760650000000  0.5598950000000 1.0
C      1  0.5164820000000  0.5744780000000  0.4421910000000 1.0
C      1  0.5145190000000  0.4737150000000  0.4000830000000 1.0
C      1  0.5196240000000  0.4030260000000  0.4966960000000 1.0
C      1  0.5232010000000  0.4677250000000  0.6002770000000 1.0
C      1  0.6116140000000  0.4777350000000  0.4917720000000 1.0
C      1  0.6131700000000  0.4845220000000  0.5195740000000 1.0
C      1  0.6141590000000  0.5135950000000  0.5219260000000 1.0
C      1  0.6122200000000  0.5246840000000  0.4947940000000 1.0
C      1  0.6115590000000  0.5021470000000  0.4763320000000 1.0
C      1  0.4041390000000  0.5187680000000  0.4732100000000 1.0
C      1  0.3974590000000  0.4647840000000  0.4842640000000 1.0
C      1  0.3969910000000  0.4832490000000  0.5094790000000 1.0
C      1  0.4062680000000  0.5077960000000  0.5311370000000 1.0
C      1  0.4142960000000  0.5381980000000  0.5064380000000 1.0
C      1  0.5641880000000  0.4856930000000  0.5228690000000 1.0
C      1  0.5693550000000  0.5121110000000  0.5243350000000 1.0
C      1  0.5629770000000  0.5262930000000  0.4985440000000 1.0
C      1  0.5635700000000  0.5025100000000  0.4779980000000 1.0
C      1  0.5635460000000  0.4769510000000  0.4970280000000 1.0
C      1  0.4726800000000  0.5005740000000  0.4967160000000 1.0
C      1  0.3906190000000  0.5158820000000  0.5020550000000 1.0
END
