TITL C-2782238-9940-1009 0.00567461537433963 125000 -851.254745321394 0 0 146 (C1) n - 1
REM
REM in /home/nfs/bkarasulu/CARBON/AIRSS/Generating-Clusters/REBO/Higher-Symm/SD-CG/HFTN-CG
REM
REM
REM
REM
REM
REM ./C.cell (12c818d87b63d06a65506943cc24bca4)
REM
REM compiler GCC version 9.2.1 20190827 (Red Hat 9.2.1-1)
REM options -cpp -mtune=generic -march=x86-64 -g -O0 -fpre-include=/usr/include/finclude/math-vector-fortran.h
REM seed -1809041280 822768333 -721173268 -670234637 -1943207095 1993053109 1583941834 1712510229 -1974034021 1759318715 619800427 -515432228 1098799983 587428416 -326804765 258052612 1264317437 -187243778 -1759031652 366731503 -278948371 -1702120107 1967279988 -1074147282 -1879838192 589403366 -1709189667 -2050670519 -1564882458 1332946470 994184495 -2111706114 -2134387255
REM
CELL 1.54180   50.00000   50.00000   50.00000   90.00000   90.00000   90.00000
LATT -1
SFAC C  
C      1  0.5246890000000  0.4865110000000  0.5086800000000 1.0
C      1  0.5323100000000  0.4126490000000  0.5430670000000 1.0
C      1  0.5017860000000  0.4889320000000  0.5974480000000 1.0
C      1  0.5151380000000  0.5838120000000  0.5284360000000 1.0
C      1  0.5932630000000  0.4478330000000  0.5185550000000 1.0
C      1  0.5522880000000  0.4267130000000  0.5630760000000 1.0
C      1  0.4543450000000  0.5291060000000  0.4561280000000 1.0
C      1  0.5287870000000  0.5321950000000  0.4514210000000 1.0
C      1  0.4418460000000  0.4107630000000  0.5129000000000 1.0
C      1  0.5341270000000  0.4660220000000  0.5544120000000 1.0
C      1  0.5686080000000  0.4288290000000  0.5128770000000 1.0
C      1  0.4846850000000  0.4121790000000  0.4862150000000 1.0
C      1  0.5301350000000  0.5742280000000  0.4577440000000 1.0
C      1  0.5755330000000  0.5363630000000  0.5104390000000 1.0
C      1  0.4950700000000  0.4230160000000  0.5531470000000 1.0
C      1  0.5565320000000  0.4858850000000  0.4959290000000 1.0
C      1  0.5769010000000  0.4698920000000  0.5493170000000 1.0
C      1  0.4780320000000  0.4997120000000  0.4140120000000 1.0
C      1  0.4369210000000  0.4899820000000  0.5022740000000 1.0
C      1  0.4502840000000  0.4559200000000  0.4151140000000 1.0
C      1  0.5550270000000  0.5370920000000  0.4174290000000 1.0
C      1  0.4786800000000  0.6095100000000  0.4937890000000 1.0
C      1  0.4755600000000  0.5242040000000  0.5008490000000 1.0
C      1  0.5177810000000  0.5457330000000  0.5987520000000 1.0
C      1  0.4659660000000  0.5659750000000  0.5582620000000 1.0
C      1  0.4685730000000  0.4844710000000  0.5900230000000 1.0
C      1  0.5571670000000  0.4479720000000  0.4277860000000 1.0
C      1  0.4204370000000  0.5158400000000  0.4722750000000 1.0
C      1  0.4748430000000  0.4369980000000  0.5662420000000 1.0
C      1  0.5288730000000  0.4036880000000  0.5157540000000 1.0
C      1  0.4088120000000  0.4500510000000  0.5004440000000 1.0
C      1  0.4419150000000  0.5590180000000  0.4604880000000 1.0
C      1  0.5604930000000  0.5945240000000  0.5063260000000 1.0
C      1  0.4904590000000  0.5457220000000  0.4848740000000 1.0
C      1  0.5584000000000  0.5079110000000  0.4218770000000 1.0
C      1  0.5024070000000  0.4383980000000  0.4845130000000 1.0
C      1  0.5624770000000  0.4473540000000  0.4583220000000 1.0
C      1  0.5444750000000  0.5176650000000  0.4938460000000 1.0
C      1  0.4230750000000  0.4764450000000  0.4739980000000 1.0
C      1  0.4963040000000  0.6033690000000  0.4707290000000 1.0
C      1  0.4409630000000  0.4824160000000  0.4445280000000 1.0
C      1  0.5333750000000  0.5137740000000  0.5752670000000 1.0
C      1  0.4841810000000  0.5758670000000  0.4970480000000 1.0
C      1  0.5332910000000  0.5963090000000  0.5032810000000 1.0
C      1  0.5224860000000  0.5937530000000  0.4767670000000 1.0
C      1  0.4972630000000  0.5393450000000  0.4559050000000 1.0
C      1  0.5441210000000  0.4867720000000  0.5338900000000 1.0
C      1  0.4478760000000  0.4793640000000  0.5631000000000 1.0
C      1  0.5552700000000  0.5190060000000  0.5319210000000 1.0
C      1  0.6055860000000  0.5240490000000  0.5508990000000 1.0
C      1  0.5238930000000  0.5247800000000  0.5201510000000 1.0
C      1  0.5403430000000  0.4419750000000  0.5853210000000 1.0
C      1  0.5049610000000  0.5292770000000  0.5646790000000 1.0
C      1  0.5231220000000  0.4522030000000  0.4634180000000 1.0
C      1  0.5160940000000  0.5173750000000  0.4225610000000 1.0
C      1  0.4393190000000  0.4425030000000  0.5250200000000 1.0
C      1  0.4186530000000  0.5479520000000  0.4744850000000 1.0
C      1  0.4190570000000  0.5187230000000  0.5560910000000 1.0
C      1  0.4896080000000  0.4565950000000  0.5051410000000 1.0
C      1  0.4901950000000  0.4324660000000  0.4524710000000 1.0
C      1  0.5149740000000  0.4140950000000  0.4554300000000 1.0
C      1  0.5048770000000  0.5176440000000  0.6027890000000 1.0
C      1  0.4569380000000  0.5825560000000  0.5128920000000 1.0
C      1  0.5715580000000  0.4844460000000  0.5717140000000 1.0
C      1  0.5308010000000  0.4598770000000  0.4108960000000 1.0
C      1  0.4250230000000  0.4279040000000  0.4908790000000 1.0
C      1  0.5617630000000  0.5566860000000  0.5434920000000 1.0
C      1  0.4666170000000  0.5209480000000  0.5512480000000 1.0
C      1  0.5744640000000  0.5312810000000  0.5562940000000 1.0
C      1  0.4587710000000  0.5125850000000  0.5819480000000 1.0
C      1  0.5055960000000  0.5656660000000  0.4355490000000 1.0
C      1  0.5127280000000  0.5458260000000  0.5402390000000 1.0
C      1  0.5937180000000  0.5132260000000  0.5227710000000 1.0
C      1  0.6088680000000  0.4679820000000  0.5084130000000 1.0
C      1  0.5189930000000  0.5023200000000  0.4802600000000 1.0
C      1  0.5160690000000  0.5647160000000  0.5792260000000 1.0
C      1  0.3916330000000  0.4756370000000  0.4984040000000 1.0
C      1  0.4889600000000  0.4987440000000  0.4730910000000 1.0
C      1  0.4529440000000  0.5127340000000  0.4833480000000 1.0
C      1  0.4834690000000  0.4637470000000  0.5725460000000 1.0
C      1  0.5763880000000  0.5686750000000  0.5163660000000 1.0
C      1  0.5715450000000  0.5549850000000  0.4340100000000 1.0
C      1  0.5140080000000  0.5614090000000  0.5029200000000 1.0
C      1  0.4878750000000  0.4003540000000  0.5388030000000 1.0
C      1  0.4090930000000  0.5054280000000  0.4441800000000 1.0
C      1  0.4969780000000  0.5059840000000  0.5131470000000 1.0
C      1  0.5604220000000  0.5104260000000  0.5741800000000 1.0
C      1  0.5114200000000  0.4983520000000  0.5598320000000 1.0
C      1  0.4528880000000  0.6121180000000  0.5106630000000 1.0
C      1  0.4295560000000  0.5254420000000  0.5862420000000 1.0
C      1  0.5035320000000  0.4951420000000  0.4442170000000 1.0
C      1  0.5671050000000  0.5341860000000  0.4795090000000 1.0
C      1  0.4576940000000  0.5802810000000  0.4521830000000 1.0
C      1  0.4987370000000  0.4535860000000  0.4078200000000 1.0
C      1  0.4948330000000  0.5719060000000  0.5532880000000 1.0
C      1  0.4777130000000  0.5601080000000  0.4163280000000 1.0
C      1  0.5871020000000  0.5166520000000  0.4635480000000 1.0
C      1  0.4517600000000  0.5514700000000  0.5852700000000 1.0
C      1  0.5238520000000  0.4707590000000  0.5859170000000 1.0
C      1  0.6097300000000  0.4955410000000  0.5025480000000 1.0
C      1  0.4537470000000  0.5428950000000  0.4189820000000 1.0
C      1  0.4782700000000  0.5241140000000  0.4336240000000 1.0
C      1  0.5360640000000  0.4718740000000  0.4417120000000 1.0
C      1  0.4292260000000  0.4457810000000  0.4340060000000 1.0
C      1  0.4370920000000  0.5476440000000  0.5547310000000 1.0
C      1  0.4213110000000  0.4907930000000  0.5477850000000 1.0
C      1  0.4443970000000  0.5596940000000  0.5254400000000 1.0
C      1  0.4493390000000  0.4610520000000  0.4770060000000 1.0
C      1  0.4970630000000  0.4653580000000  0.4465800000000 1.0
C      1  0.4961800000000  0.4776510000000  0.5522960000000 1.0
C      1  0.4089660000000  0.4713340000000  0.4437190000000 1.0
C      1  0.4987660000000  0.3945790000000  0.5084510000000 1.0
C      1  0.4550530000000  0.4215080000000  0.4756540000000 1.0
C      1  0.4816870000000  0.5352860000000  0.5853950000000 1.0
C      1  0.5332450000000  0.4931380000000  0.4080490000000 1.0
C      1  0.5431790000000  0.5591980000000  0.5143780000000 1.0
C      1  0.5422360000000  0.4257350000000  0.4718750000000 1.0
C      1  0.4575000000000  0.4285860000000  0.4433220000000 1.0
C      1  0.4738300000000  0.4788740000000  0.4870050000000 1.0
C      1  0.5190780000000  0.4415490000000  0.5469070000000 1.0
C      1  0.4055490000000  0.5381290000000  0.5012940000000 1.0
C      1  0.5003250000000  0.4847520000000  0.4057840000000 1.0
C      1  0.4757950000000  0.4405480000000  0.4162870000000 1.0
C      1  0.4850990000000  0.4800060000000  0.5252470000000 1.0
C      1  0.4058630000000  0.5040960000000  0.4998640000000 1.0
C      1  0.4307150000000  0.5238090000000  0.4324030000000 1.0
C      1  0.5344480000000  0.5692190000000  0.5519470000000 1.0
C      1  0.4544990000000  0.4791830000000  0.5293140000000 1.0
C      1  0.4541230000000  0.4855380000000  0.4155500000000 1.0
C      1  0.4650850000000  0.3967220000000  0.5172420000000 1.0
C      1  0.4165570000000  0.4676640000000  0.5283800000000 1.0
C      1  0.5737140000000  0.4968170000000  0.4464950000000 1.0
C      1  0.4524770000000  0.4507160000000  0.5510040000000 1.0
C      1  0.4845390000000  0.5886110000000  0.4495110000000 1.0
C      1  0.6103180000000  0.5075280000000  0.4770020000000 1.0
C      1  0.4631270000000  0.5342690000000  0.5274760000000 1.0
C      1  0.5661920000000  0.4743920000000  0.4677690000000 1.0
C      1  0.4133720000000  0.5525210000000  0.5229380000000 1.0
C      1  0.4670890000000  0.4647290000000  0.4502830000000 1.0
C      1  0.5259040000000  0.5476270000000  0.4149210000000 1.0
C      1  0.5733680000000  0.4390320000000  0.5450050000000 1.0
C      1  0.5762910000000  0.4864360000000  0.5224400000000 1.0
C      1  0.5525380000000  0.5522080000000  0.4594230000000 1.0
C      1  0.5349030000000  0.5000350000000  0.4530030000000 1.0
C      1  0.5481410000000  0.4163140000000  0.4994190000000 1.0
C      1  0.4600850000000  0.4440470000000  0.5009680000000 1.0
END
