TITL C-2782239-8622-648 -0.00171487005319961 125000 -727.137332413392 0 0 127 (C1) n - 1
REM
REM in /home/nfs/bkarasulu/CARBON/AIRSS/Generating-Clusters/REBO/Higher-Symm/SD-CG/HFTN-CG
REM
REM
REM
REM
REM
REM ./C.cell (12c818d87b63d06a65506943cc24bca4)
REM
REM compiler GCC version 9.2.1 20190827 (Red Hat 9.2.1-1)
REM options -cpp -mtune=generic -march=x86-64 -g -O0 -fpre-include=/usr/include/finclude/math-vector-fortran.h
REM seed 1689332471 -838444386 1632242777 1139699794 149040524 -2103382637 1127051485 -2011158082 -236147705 927578573 625970049 -11989971 -1127260511 -1395794146 -1829849748 1843222913 -601441466 1991988728 469732826 1599222897 -497777584 1984870488 676522094 840488630 -569919424 -1540301824 -1534363474 1721679240 -1850278197 1373086320 2033430443 -1978673482 -323697217
REM
CELL 1.54180   50.00000   50.00000   50.00000   90.00000   90.00000   90.00000
LATT -1
SFAC C  
C      1  0.5175860000000  0.4503470000000  0.5334390000000 1.0
C      1  0.5290260000000  0.4522630000000  0.4952860000000 1.0
C      1  0.5000140000000  0.4608270000000  0.4615260000000 1.0
C      1  0.4778560000000  0.4541950000000  0.4816120000000 1.0
C      1  0.4762530000000  0.4558670000000  0.5277510000000 1.0
C      1  0.4104510000000  0.4647820000000  0.4827470000000 1.0
C      1  0.4603270000000  0.4687010000000  0.5792360000000 1.0
C      1  0.5614920000000  0.4633120000000  0.5632780000000 1.0
C      1  0.5769840000000  0.4630430000000  0.4661260000000 1.0
C      1  0.4921620000000  0.4736520000000  0.4091850000000 1.0
C      1  0.4955450000000  0.4681620000000  0.5976790000000 1.0
C      1  0.5900410000000  0.4650350000000  0.5356400000000 1.0
C      1  0.5635360000000  0.4629670000000  0.4287320000000 1.0
C      1  0.4555380000000  0.4718960000000  0.4246900000000 1.0
C      1  0.4039310000000  0.4698020000000  0.5215870000000 1.0
C      1  0.4269590000000  0.5153280000000  0.5579560000000 1.0
C      1  0.5417230000000  0.5151690000000  0.5807700000000 1.0
C      1  0.5879940000000  0.5144170000000  0.4927650000000 1.0
C      1  0.5289670000000  0.5154370000000  0.4096460000000 1.0
C      1  0.4257330000000  0.5174480000000  0.4548000000000 1.0
C      1  0.4697880000000  0.5922740000000  0.5006900000000 1.0
C      1  0.4886510000000  0.5921370000000  0.5263550000000 1.0
C      1  0.5198390000000  0.5936080000000  0.5180380000000 1.0
C      1  0.5204910000000  0.5959980000000  0.4860480000000 1.0
C      1  0.4898450000000  0.5933280000000  0.4746560000000 1.0
C      1  0.5956760000000  0.4879000000000  0.4788150000000 1.0
C      1  0.5178720000000  0.4893180000000  0.3963230000000 1.0
C      1  0.4097840000000  0.4904320000000  0.4602810000000 1.0
C      1  0.4320580000000  0.4876930000000  0.5773030000000 1.0
C      1  0.5560770000000  0.4887780000000  0.5845260000000 1.0
C      1  0.4209130000000  0.5161590000000  0.4884450000000 1.0
C      1  0.4578990000000  0.5066450000000  0.5671830000000 1.0
C      1  0.5621800000000  0.5171270000000  0.5570500000000 1.0
C      1  0.5689860000000  0.5136420000000  0.4642390000000 1.0
C      1  0.4968590000000  0.5126260000000  0.4206130000000 1.0
C      1  0.4836620000000  0.5176710000000  0.5542380000000 1.0
C      1  0.5489900000000  0.5270360000000  0.5285180000000 1.0
C      1  0.5398130000000  0.5290730000000  0.4569930000000 1.0
C      1  0.4768800000000  0.5181290000000  0.4447060000000 1.0
C      1  0.4407890000000  0.5228110000000  0.5111460000000 1.0
C      1  0.4686770000000  0.5609230000000  0.5635340000000 1.0
C      1  0.5509410000000  0.5618580000000  0.5488460000000 1.0
C      1  0.5607210000000  0.5677610000000  0.4632250000000 1.0
C      1  0.4888690000000  0.5664700000000  0.4275600000000 1.0
C      1  0.4239460000000  0.5630880000000  0.5029070000000 1.0
C      1  0.5677810000000  0.4389120000000  0.4459320000000 1.0
C      1  0.4721740000000  0.4478230000000  0.4201870000000 1.0
C      1  0.4079850000000  0.4433570000000  0.5078460000000 1.0
C      1  0.4789830000000  0.4439500000000  0.5911720000000 1.0
C      1  0.5782610000000  0.4398700000000  0.5472520000000 1.0
C      1  0.4320710000000  0.5442810000000  0.4755050000000 1.0
C      1  0.4419680000000  0.5452390000000  0.5538270000000 1.0
C      1  0.5294600000000  0.5433970000000  0.5676540000000 1.0
C      1  0.5708020000000  0.5418020000000  0.4821010000000 1.0
C      1  0.5111320000000  0.5426590000000  0.4200680000000 1.0
C      1  0.5156300000000  0.5470550000000  0.5376590000000 1.0
C      1  0.5417880000000  0.5496470000000  0.4934230000000 1.0
C      1  0.5112510000000  0.5463790000000  0.4539000000000 1.0
C      1  0.4643350000000  0.5471540000000  0.4762910000000 1.0
C      1  0.4638250000000  0.5440990000000  0.5275750000000 1.0
C      1  0.4809760000000  0.4953690000000  0.5872260000000 1.0
C      1  0.5776120000000  0.4909950000000  0.5509920000000 1.0
C      1  0.5736370000000  0.4897610000000  0.4448510000000 1.0
C      1  0.4674870000000  0.4977370000000  0.4120540000000 1.0
C      1  0.4034290000000  0.4938800000000  0.4996030000000 1.0
C      1  0.4193170000000  0.5411670000000  0.5286020000000 1.0
C      1  0.4957400000000  0.5420940000000  0.5719650000000 1.0
C      1  0.5772570000000  0.5422320000000  0.5397650000000 1.0
C      1  0.5646230000000  0.5441130000000  0.4390540000000 1.0
C      1  0.4640810000000  0.5458710000000  0.4304410000000 1.0
C      1  0.5580380000000  0.5134490000000  0.4257760000000 1.0
C      1  0.4461680000000  0.5168600000000  0.4314240000000 1.0
C      1  0.4093360000000  0.5082250000000  0.5302540000000 1.0
C      1  0.5092090000000  0.5131970000000  0.5841980000000 1.0
C      1  0.5857380000000  0.5123320000000  0.5252260000000 1.0
C      1  0.5358400000000  0.4720900000000  0.4275260000000 1.0
C      1  0.4455420000000  0.4759680000000  0.4500760000000 1.0
C      1  0.4267040000000  0.4793800000000  0.5406190000000 1.0
C      1  0.5156140000000  0.4804590000000  0.5744490000000 1.0
C      1  0.5739440000000  0.4822360000000  0.5122530000000 1.0
C      1  0.4568870000000  0.5618780000000  0.5015850000000 1.0
C      1  0.4899370000000  0.5611530000000  0.5374150000000 1.0
C      1  0.5353480000000  0.5633420000000  0.5189410000000 1.0
C      1  0.5279000000000  0.5673110000000  0.4714330000000 1.0
C      1  0.4832100000000  0.5629200000000  0.4610200000000 1.0
C      1  0.4915040000000  0.4233730000000  0.5787620000000 1.0
C      1  0.5680920000000  0.4213040000000  0.5303500000000 1.0
C      1  0.5461860000000  0.4231410000000  0.4504570000000 1.0
C      1  0.4684050000000  0.4272330000000  0.4375150000000 1.0
C      1  0.4255890000000  0.4257960000000  0.5183910000000 1.0
C      1  0.4359040000000  0.5949450000000  0.5024780000000 1.0
C      1  0.4721010000000  0.5919560000000  0.5544160000000 1.0
C      1  0.5403130000000  0.5929980000000  0.5442460000000 1.0
C      1  0.5512900000000  0.5987030000000  0.4740990000000 1.0
C      1  0.4897990000000  0.5970430000000  0.4425280000000 1.0
C      1  0.4351710000000  0.4537990000000  0.4656380000000 1.0
C      1  0.4506830000000  0.4600940000000  0.5499640000000 1.0
C      1  0.5310970000000  0.4557820000000  0.5627890000000 1.0
C      1  0.5625090000000  0.4591190000000  0.4935220000000 1.0
C      1  0.5099140000000  0.4547210000000  0.4311540000000 1.0
C      1  0.4529110000000  0.4316720000000  0.5312990000000 1.0
C      1  0.5124490000000  0.4275860000000  0.5566700000000 1.0
C      1  0.5510020000000  0.4295650000000  0.5063790000000 1.0
C      1  0.5165480000000  0.4317090000000  0.4556230000000 1.0
C      1  0.4591840000000  0.4306220000000  0.4680100000000 1.0
C      1  0.4784780000000  0.4150020000000  0.4886030000000 1.0
C      1  0.4770840000000  0.4155920000000  0.5176010000000 1.0
C      1  0.5040980000000  0.4133550000000  0.5279260000000 1.0
C      1  0.5222480000000  0.4142620000000  0.5051870000000 1.0
C      1  0.5064230000000  0.4158890000000  0.4810090000000 1.0
C      1  0.5516020000000  0.5052230000000  0.5057390000000 1.0
C      1  0.5334290000000  0.4978440000000  0.4451040000000 1.0
C      1  0.4598100000000  0.4999930000000  0.4666730000000 1.0
C      1  0.4476600000000  0.4977040000000  0.5258630000000 1.0
C      1  0.5075900000000  0.4970560000000  0.5476840000000 1.0
C      1  0.5143450000000  0.4787770000000  0.5238120000000 1.0
C      1  0.5314730000000  0.4841530000000  0.4966120000000 1.0
C      1  0.5096070000000  0.4907830000000  0.4639540000000 1.0
C      1  0.4603110000000  0.4759680000000  0.4870940000000 1.0
C      1  0.4754760000000  0.4865670000000  0.5218450000000 1.0
C      1  0.4802880000000  0.5178650000000  0.5145720000000 1.0
C      1  0.5098840000000  0.5207300000000  0.5242510000000 1.0
C      1  0.5250980000000  0.5234770000000  0.4969580000000 1.0
C      1  0.5049760000000  0.5200550000000  0.4744090000000 1.0
C      1  0.4766630000000  0.5211160000000  0.4843260000000 1.0
C      1  0.4986170000000  0.4469690000000  0.5053490000000 1.0
C      1  0.4975990000000  0.4872240000000  0.4957970000000 1.0
END
