TITL C-2782231-7322-214 0.00373376324258512 125000 -560.708479482372 0 0 97 (C1) n - 1
REM
REM in /home/nfs/bkarasulu/CARBON/AIRSS/Generating-Clusters/REBO/Higher-Symm/SD-CG/HFTN-CG
REM
REM
REM
REM
REM
REM ./C.cell (12c818d87b63d06a65506943cc24bca4)
REM
REM compiler GCC version 9.2.1 20190827 (Red Hat 9.2.1-1)
REM options -cpp -mtune=generic -march=x86-64 -g -O0 -fpre-include=/usr/include/finclude/math-vector-fortran.h
REM seed 46213148 2076936589 1705689412 -1165348191 133709063 1283033000 790754428 24220379 -1166823081 -322359324 724517987 -1037969762 -1368866329 388485715 1107339814 -954227043 138868396 1552283519 -1837478864 897780310 -427876345 -1532857462 1461791573 1465203221 834482631 563842479 766674549 -1134738083 -1558646050 1657640487 -970360298 -369433603 -1231230378
REM
CELL 1.54180   50.00000   50.00000   50.00000   90.00000   90.00000   90.00000
LATT -1
SFAC C  
C      1  0.4321840000000  0.4653050000000  0.5453480000000 1.0
C      1  0.4404600000000  0.5423540000000  0.4492870000000 1.0
C      1  0.5520970000000  0.4572490000000  0.5493500000000 1.0
C      1  0.5531110000000  0.5411640000000  0.4462290000000 1.0
C      1  0.5538310000000  0.5403830000000  0.5400740000000 1.0
C      1  0.5526520000000  0.4596410000000  0.4577700000000 1.0
C      1  0.4428230000000  0.5377300000000  0.5384880000000 1.0
C      1  0.4466090000000  0.4568540000000  0.4562980000000 1.0
C      1  0.5128520000000  0.5721830000000  0.4796110000000 1.0
C      1  0.5264970000000  0.4233790000000  0.5199520000000 1.0
C      1  0.4796530000000  0.5773750000000  0.4800570000000 1.0
C      1  0.4697720000000  0.4244240000000  0.5189900000000 1.0
C      1  0.5169330000000  0.5267890000000  0.5866590000000 1.0
C      1  0.5166670000000  0.4739640000000  0.4111420000000 1.0
C      1  0.4867490000000  0.5172210000000  0.5839090000000 1.0
C      1  0.4860390000000  0.4819110000000  0.4141920000000 1.0
C      1  0.5370850000000  0.5643550000000  0.5260330000000 1.0
C      1  0.5408310000000  0.4343210000000  0.4725300000000 1.0
C      1  0.4594720000000  0.5638320000000  0.5279350000000 1.0
C      1  0.4570720000000  0.4344350000000  0.4707550000000 1.0
C      1  0.6064160000000  0.5355790000000  0.4984500000000 1.0
C      1  0.6136840000000  0.4671610000000  0.5089370000000 1.0
C      1  0.4163760000000  0.5235530000000  0.5221130000000 1.0
C      1  0.4060950000000  0.4785590000000  0.4788500000000 1.0
C      1  0.5338270000000  0.5033080000000  0.4125260000000 1.0
C      1  0.5368750000000  0.4992950000000  0.5885140000000 1.0
C      1  0.4721220000000  0.5129580000000  0.4134000000000 1.0
C      1  0.4779590000000  0.4848870000000  0.5902820000000 1.0
C      1  0.5130270000000  0.4613860000000  0.4631380000000 1.0
C      1  0.5110940000000  0.5347420000000  0.5357220000000 1.0
C      1  0.4853450000000  0.4639640000000  0.4629520000000 1.0
C      1  0.4834830000000  0.5328550000000  0.5358750000000 1.0
C      1  0.5264060000000  0.4683590000000  0.4875580000000 1.0
C      1  0.5254980000000  0.5286600000000  0.5122780000000 1.0
C      1  0.4725650000000  0.4694150000000  0.4874570000000 1.0
C      1  0.4707850000000  0.5293510000000  0.5111670000000 1.0
C      1  0.4879720000000  0.4930160000000  0.5587230000000 1.0
C      1  0.4852950000000  0.5025330000000  0.4429640000000 1.0
C      1  0.5176010000000  0.5041890000000  0.5607000000000 1.0
C      1  0.5149980000000  0.4933990000000  0.4392450000000 1.0
C      1  0.5000570000000  0.4711350000000  0.6064870000000 1.0
C      1  0.4933580000000  0.5302690000000  0.3984590000000 1.0
C      1  0.5245910000000  0.4771110000000  0.6057720000000 1.0
C      1  0.5183030000000  0.5260650000000  0.3983200000000 1.0
C      1  0.4169790000000  0.5299920000000  0.4943850000000 1.0
C      1  0.4126660000000  0.4725100000000  0.5048490000000 1.0
C      1  0.5836310000000  0.5339260000000  0.4847260000000 1.0
C      1  0.5885770000000  0.4680910000000  0.5178040000000 1.0
C      1  0.4568630000000  0.5664060000000  0.4571650000000 1.0
C      1  0.4462290000000  0.4371880000000  0.5401750000000 1.0
C      1  0.5352320000000  0.5627600000000  0.4557170000000 1.0
C      1  0.5426240000000  0.4310340000000  0.5479000000000 1.0
C      1  0.4357290000000  0.4566640000000  0.5068760000000 1.0
C      1  0.4401330000000  0.5477810000000  0.4886070000000 1.0
C      1  0.5611510000000  0.4578570000000  0.5104180000000 1.0
C      1  0.5554240000000  0.5443610000000  0.4859740000000 1.0
C      1  0.4819200000000  0.5086950000000  0.4725750000000 1.0
C      1  0.4820790000000  0.4904930000000  0.5287720000000 1.0
C      1  0.5144000000000  0.5022590000000  0.4702140000000 1.0
C      1  0.5155670000000  0.4943790000000  0.5300370000000 1.0
C      1  0.5517720000000  0.4810900000000  0.4310220000000 1.0
C      1  0.5528660000000  0.5207560000000  0.5680680000000 1.0
C      1  0.4495670000000  0.4949030000000  0.4316940000000 1.0
C      1  0.4526190000000  0.5001750000000  0.5736630000000 1.0
C      1  0.5275270000000  0.5428930000000  0.5610180000000 1.0
C      1  0.5284440000000  0.4561020000000  0.4352910000000 1.0
C      1  0.4658730000000  0.5294490000000  0.5621210000000 1.0
C      1  0.4686660000000  0.4669810000000  0.4357840000000 1.0
C      1  0.4515430000000  0.5085110000000  0.5106110000000 1.0
C      1  0.4517010000000  0.4888340000000  0.4892890000000 1.0
C      1  0.5468220000000  0.5097120000000  0.5105330000000 1.0
C      1  0.5465880000000  0.4886700000000  0.4894790000000 1.0
C      1  0.5370980000000  0.4739850000000  0.5256000000000 1.0
C      1  0.5349470000000  0.5248440000000  0.4684490000000 1.0
C      1  0.4585070000000  0.4717440000000  0.5247370000000 1.0
C      1  0.4609300000000  0.5297280000000  0.4724700000000 1.0
C      1  0.5733960000000  0.5211450000000  0.4589040000000 1.0
C      1  0.5731400000000  0.4788540000000  0.5420330000000 1.0
C      1  0.4228710000000  0.5209350000000  0.4646100000000 1.0
C      1  0.4140340000000  0.4906890000000  0.5308030000000 1.0
C      1  0.4467840000000  0.4326730000000  0.4981850000000 1.0
C      1  0.4544350000000  0.5686820000000  0.5006600000000 1.0
C      1  0.5499400000000  0.4338520000000  0.5003660000000 1.0
C      1  0.5407350000000  0.5656850000000  0.4980900000000 1.0
C      1  0.5133210000000  0.4232350000000  0.4882180000000 1.0
C      1  0.5123300000000  0.5746420000000  0.5363220000000 1.0
C      1  0.4842340000000  0.4232600000000  0.4877800000000 1.0
C      1  0.4849060000000  0.5727600000000  0.5375420000000 1.0
C      1  0.4426190000000  0.5034610000000  0.5430860000000 1.0
C      1  0.4328740000000  0.4885000000000  0.4608930000000 1.0
C      1  0.5629240000000  0.5072380000000  0.5385210000000 1.0
C      1  0.5625200000000  0.4924390000000  0.4612790000000 1.0
C      1  0.5137840000000  0.5387860000000  0.4864690000000 1.0
C      1  0.5139240000000  0.4540510000000  0.5134550000000 1.0
C      1  0.4843040000000  0.5455240000000  0.4878270000000 1.0
C      1  0.4846250000000  0.4539990000000  0.5130920000000 1.0
C      1  0.4989750000000  0.4997560000000  0.5006540000000 1.0
END
