TITL C-2782232-2968-1028 -0.000426773477906014 125000 -693.179891677954 0 0 120 (C1) n - 1
REM
REM in /home/nfs/bkarasulu/CARBON/AIRSS/Generating-Clusters/REBO/Higher-Symm/SD-CG/HFTN-CG
REM
REM
REM
REM
REM
REM ./C.cell (12c818d87b63d06a65506943cc24bca4)
REM
REM compiler GCC version 9.2.1 20190827 (Red Hat 9.2.1-1)
REM options -cpp -mtune=generic -march=x86-64 -g -O0 -fpre-include=/usr/include/finclude/math-vector-fortran.h
REM seed 876305379 -633650647 2078802890 807325603 2040835125 1591572529 -678398117 1367902871 322931274 1116214691 -127897943 762312896 235228286 1304234983 1316795302 -1675956804 -1932340994 1861180161 1773397132 -1041645089 148794415 -2078911448 11495673 -764505513 1821427204 -1112451818 783851385 -136570057 -1728841903 -1106506201 1444742243 -566889179 -1671913611
REM
CELL 1.54180   50.00000   50.00000   50.00000   90.00000   90.00000   90.00000
LATT -1
SFAC C  
C      1  0.5012200000000  0.4727000000000  0.4496250000000 1.0
C      1  0.5281150000000  0.4917700000000  0.4500770000000 1.0
C      1  0.5161790000000  0.5221390000000  0.4501790000000 1.0
C      1  0.4829340000000  0.5224480000000  0.4493000000000 1.0
C      1  0.4743560000000  0.4910260000000  0.4488070000000 1.0
C      1  0.5211290000000  0.4423120000000  0.4340400000000 1.0
C      1  0.5611610000000  0.5021910000000  0.4306750000000 1.0
C      1  0.5168800000000  0.5584390000000  0.4343830000000 1.0
C      1  0.4502120000000  0.5327980000000  0.4293800000000 1.0
C      1  0.4533800000000  0.4630850000000  0.4301850000000 1.0
C      1  0.5367840000000  0.4792280000000  0.5544140000000 1.0
C      1  0.5301500000000  0.5278350000000  0.5538040000000 1.0
C      1  0.4835670000000  0.5370160000000  0.5527900000000 1.0
C      1  0.4596630000000  0.4934640000000  0.5535240000000 1.0
C      1  0.4935240000000  0.4583350000000  0.5556020000000 1.0
C      1  0.4031210000000  0.5070790000000  0.4962170000000 1.0
C      1  0.4657200000000  0.4140290000000  0.4936810000000 1.0
C      1  0.5776850000000  0.4448840000000  0.4894160000000 1.0
C      1  0.5792910000000  0.5511940000000  0.4942410000000 1.0
C      1  0.4687190000000  0.5922790000000  0.4903500000000 1.0
C      1  0.5453430000000  0.4416090000000  0.5642040000000 1.0
C      1  0.5678220000000  0.5240780000000  0.5660390000000 1.0
C      1  0.4964310000000  0.5727220000000  0.5647920000000 1.0
C      1  0.4328820000000  0.5202650000000  0.5657130000000 1.0
C      1  0.4602850000000  0.4391860000000  0.5663970000000 1.0
C      1  0.4072410000000  0.5236580000000  0.5222000000000 1.0
C      1  0.4489790000000  0.4202320000000  0.5203690000000 1.0
C      1  0.5598070000000  0.4266930000000  0.5122260000000 1.0
C      1  0.5880900000000  0.5348880000000  0.5203840000000 1.0
C      1  0.4960900000000  0.5924270000000  0.5113180000000 1.0
C      1  0.5278960000000  0.4543010000000  0.4870260000000 1.0
C      1  0.5513840000000  0.5141880000000  0.4851160000000 1.0
C      1  0.5028480000000  0.5533000000000  0.4863740000000 1.0
C      1  0.4481080000000  0.5169050000000  0.4840770000000 1.0
C      1  0.4659080000000  0.4570470000000  0.4845660000000 1.0
C      1  0.5124180000000  0.4719900000000  0.4191090000000 1.0
C      1  0.5293570000000  0.5018260000000  0.4184230000000 1.0
C      1  0.5083150000000  0.5289140000000  0.4191730000000 1.0
C      1  0.4769250000000  0.5153420000000  0.4172950000000 1.0
C      1  0.4793790000000  0.4811680000000  0.4173840000000 1.0
C      1  0.4959870000000  0.4033590000000  0.4550470000000 1.0
C      1  0.5970400000000  0.4715860000000  0.4529620000000 1.0
C      1  0.5590370000000  0.5773550000000  0.4565630000000 1.0
C      1  0.4397560000000  0.5785480000000  0.4520390000000 1.0
C      1  0.4098020000000  0.4754150000000  0.4572930000000 1.0
C      1  0.4797870000000  0.4821100000000  0.4814230000000 1.0
C      1  0.5100080000000  0.4760700000000  0.4815910000000 1.0
C      1  0.5252220000000  0.5021610000000  0.4830500000000 1.0
C      1  0.5047220000000  0.5247710000000  0.4821830000000 1.0
C      1  0.4766750000000  0.5126520000000  0.4818210000000 1.0
C      1  0.4467500000000  0.5459360000000  0.4962130000000 1.0
C      1  0.4377450000000  0.4653200000000  0.4961830000000 1.0
C      1  0.5106140000000  0.4373620000000  0.5040890000000 1.0
C      1  0.5692290000000  0.4917440000000  0.4971320000000 1.0
C      1  0.5280350000000  0.5568560000000  0.5021400000000 1.0
C      1  0.5214300000000  0.5664410000000  0.5485820000000 1.0
C      1  0.4444440000000  0.5418530000000  0.5473920000000 1.0
C      1  0.4419310000000  0.4579000000000  0.5498240000000 1.0
C      1  0.5220760000000  0.4317250000000  0.5473180000000 1.0
C      1  0.5714820000000  0.4982220000000  0.5490490000000 1.0
C      1  0.4772930000000  0.4868040000000  0.5267170000000 1.0
C      1  0.5063730000000  0.4727250000000  0.5292890000000 1.0
C      1  0.5280850000000  0.4970040000000  0.5284770000000 1.0
C      1  0.5117830000000  0.5254340000000  0.5269700000000 1.0
C      1  0.4798570000000  0.5187010000000  0.5259020000000 1.0
C      1  0.4967640000000  0.5549400000000  0.5266980000000 1.0
C      1  0.4470890000000  0.5129300000000  0.5284070000000 1.0
C      1  0.4705020000000  0.4551890000000  0.5313280000000 1.0
C      1  0.5356130000000  0.4572240000000  0.5281160000000 1.0
C      1  0.5522910000000  0.5192830000000  0.5296010000000 1.0
C      1  0.5033710000000  0.4196290000000  0.4339320000000 1.0
C      1  0.5808180000000  0.4807640000000  0.4321190000000 1.0
C      1  0.5441610000000  0.5675120000000  0.4354600000000 1.0
C      1  0.4477090000000  0.5617620000000  0.4312420000000 1.0
C      1  0.4267570000000  0.4744680000000  0.4352900000000 1.0
C      1  0.4253600000000  0.5458510000000  0.4697850000000 1.0
C      1  0.4313600000000  0.4443750000000  0.4701560000000 1.0
C      1  0.5541030000000  0.4255730000000  0.4782440000000 1.0
C      1  0.5875990000000  0.5053930000000  0.4719300000000 1.0
C      1  0.4985490000000  0.5918130000000  0.4770460000000 1.0
C      1  0.4891520000000  0.3985440000000  0.4820760000000 1.0
C      1  0.5997700000000  0.4642740000000  0.4804370000000 1.0
C      1  0.5677260000000  0.5773490000000  0.4835140000000 1.0
C      1  0.4399060000000  0.5862170000000  0.4794580000000 1.0
C      1  0.4016530000000  0.4780640000000  0.4845720000000 1.0
C      1  0.4568930000000  0.4459340000000  0.4535830000000 1.0
C      1  0.5365090000000  0.4408610000000  0.4582970000000 1.0
C      1  0.5656960000000  0.5176280000000  0.4545190000000 1.0
C      1  0.5034320000000  0.5686060000000  0.4575570000000 1.0
C      1  0.4361910000000  0.5229990000000  0.4527210000000 1.0
C      1  0.4959690000000  0.4757250000000  0.5792090000000 1.0
C      1  0.5220040000000  0.4878990000000  0.5787240000000 1.0
C      1  0.5181000000000  0.5162810000000  0.5779290000000 1.0
C      1  0.4900590000000  0.5217000000000  0.5772120000000 1.0
C      1  0.4763230000000  0.4966460000000  0.5777840000000 1.0
C      1  0.5793960000000  0.4497270000000  0.5284480000000 1.0
C      1  0.5704080000000  0.5594960000000  0.5320200000000 1.0
C      1  0.4668270000000  0.5856810000000  0.5278000000000 1.0
C      1  0.4073350000000  0.4937650000000  0.5334980000000 1.0
C      1  0.4778200000000  0.4094320000000  0.5312210000000 1.0
C      1  0.5879720000000  0.5015080000000  0.5215210000000 1.0
C      1  0.5251760000000  0.5824260000000  0.5207680000000 1.0
C      1  0.4274280000000  0.5492470000000  0.5214540000000 1.0
C      1  0.4288220000000  0.4475910000000  0.5218200000000 1.0
C      1  0.5284440000000  0.4157440000000  0.5195570000000 1.0
C      1  0.4276010000000  0.4881330000000  0.5559210000000 1.0
C      1  0.4893090000000  0.4260510000000  0.5544130000000 1.0
C      1  0.5664260000000  0.4647260000000  0.5524210000000 1.0
C      1  0.5515900000000  0.5520320000000  0.5551750000000 1.0
C      1  0.4678780000000  0.5661730000000  0.5518860000000 1.0
C      1  0.5516580000000  0.5375800000000  0.5043280000000 1.0
C      1  0.4752180000000  0.5600340000000  0.5008810000000 1.0
C      1  0.4338870000000  0.4960650000000  0.5023380000000 1.0
C      1  0.4802910000000  0.4404420000000  0.5061450000000 1.0
C      1  0.5539310000000  0.4647030000000  0.5017270000000 1.0
C      1  0.5584350000000  0.5791500000000  0.5137220000000 1.0
C      1  0.4377940000000  0.5806530000000  0.5125490000000 1.0
C      1  0.4041210000000  0.4707680000000  0.5159410000000 1.0
C      1  0.4985870000000  0.4007260000000  0.5121630000000 1.0
C      1  0.5977560000000  0.4696730000000  0.5132120000000 1.0
END
