TITL C-2782234-8014-876 0.00151715689311628 125000 -1036.06431786322 0 0 176 (C1) n - 1
REM
REM in /home/nfs/bkarasulu/CARBON/AIRSS/Generating-Clusters/REBO/Higher-Symm/SD-CG/HFTN-CG
REM
REM
REM
REM
REM
REM ./C.cell (12c818d87b63d06a65506943cc24bca4)
REM
REM compiler GCC version 9.2.1 20190827 (Red Hat 9.2.1-1)
REM options -cpp -mtune=generic -march=x86-64 -g -O0 -fpre-include=/usr/include/finclude/math-vector-fortran.h
REM seed 615678214 -1555098360 1570140050 -1465649964 1018589580 -167592289 1495562738 -1862542098 1428165640 156074970 1718345822 -299194562 1160841964 -2425370 -1173374387 -1986553940 -775861487 -525084163 892183565 -1602236398 -246236535 -1332398730 236521909 -1939781470 -1258434267 1837147121 -1361505181 -341784331 98369528 11670469 1292333613 1025305127 1656245101
REM
CELL 1.54180   50.00000   50.00000   50.00000   90.00000   90.00000   90.00000
LATT -1
SFAC C  
C      1  0.5841270000000  0.5579350000000  0.5211210000000 1.0
C      1  0.4704700000000  0.5980480000000  0.5190320000000 1.0
C      1  0.3903340000000  0.4989260000000  0.5275040000000 1.0
C      1  0.4644110000000  0.4015610000000  0.5191290000000 1.0
C      1  0.5897590000000  0.4366660000000  0.5282000000000 1.0
C      1  0.4290640000000  0.4652370000000  0.4201000000000 1.0
C      1  0.5102400000000  0.4235670000000  0.4150390000000 1.0
C      1  0.5790020000000  0.4877010000000  0.4199530000000 1.0
C      1  0.5372570000000  0.5707950000000  0.4198900000000 1.0
C      1  0.4466620000000  0.5567500000000  0.4165280000000 1.0
C      1  0.5616420000000  0.5545830000000  0.4379350000000 1.0
C      1  0.4682290000000  0.5747300000000  0.4359750000000 1.0
C      1  0.4161010000000  0.4924270000000  0.4359210000000 1.0
C      1  0.4819010000000  0.4198470000000  0.4341250000000 1.0
C      1  0.5755800000000  0.4572340000000  0.4350600000000 1.0
C      1  0.5563810000000  0.4807700000000  0.5372550000000 1.0
C      1  0.5356080000000  0.5465350000000  0.5374290000000 1.0
C      1  0.4650110000000  0.5483160000000  0.5353040000000 1.0
C      1  0.4401050000000  0.4835390000000  0.5369920000000 1.0
C      1  0.5001530000000  0.4389840000000  0.5358740000000 1.0
C      1  0.5462020000000  0.5906150000000  0.5004550000000 1.0
C      1  0.4268070000000  0.5662690000000  0.4997080000000 1.0
C      1  0.4099260000000  0.4524750000000  0.5022950000000 1.0
C      1  0.5163100000000  0.4070520000000  0.4955500000000 1.0
C      1  0.6019870000000  0.4859840000000  0.5023640000000 1.0
C      1  0.4566030000000  0.5251090000000  0.5532120000000 1.0
C      1  0.4605340000000  0.4659340000000  0.5515290000000 1.0
C      1  0.5209900000000  0.4539800000000  0.5531420000000 1.0
C      1  0.5484390000000  0.5054300000000  0.5544430000000 1.0
C      1  0.5094790000000  0.5478300000000  0.5543450000000 1.0
C      1  0.5452790000000  0.4432970000000  0.5680760000000 1.0
C      1  0.5661320000000  0.5252990000000  0.5698290000000 1.0
C      1  0.4990020000000  0.5728220000000  0.5673420000000 1.0
C      1  0.4285360000000  0.5263190000000  0.5642060000000 1.0
C      1  0.4660730000000  0.4391790000000  0.5714240000000 1.0
C      1  0.4190740000000  0.5533140000000  0.4355560000000 1.0
C      1  0.4304370000000  0.4379930000000  0.4410920000000 1.0
C      1  0.5352510000000  0.4098570000000  0.4335420000000 1.0
C      1  0.5929190000000  0.5102620000000  0.4418470000000 1.0
C      1  0.5192090000000  0.5913250000000  0.4410040000000 1.0
C      1  0.4192990000000  0.4269960000000  0.5426290000000 1.0
C      1  0.5409110000000  0.4066710000000  0.5389130000000 1.0
C      1  0.6083420000000  0.5116940000000  0.5432080000000 1.0
C      1  0.5234880000000  0.6056770000000  0.5405770000000 1.0
C      1  0.4123700000000  0.5435180000000  0.5443940000000 1.0
C      1  0.4144940000000  0.5291530000000  0.5071790000000 1.0
C      1  0.4452730000000  0.4348580000000  0.5081980000000 1.0
C      1  0.5532090000000  0.4295440000000  0.5051030000000 1.0
C      1  0.5820990000000  0.5199330000000  0.5088800000000 1.0
C      1  0.5080210000000  0.5817830000000  0.5083640000000 1.0
C      1  0.4480310000000  0.5127240000000  0.4721030000000 1.0
C      1  0.4744430000000  0.4545070000000  0.4717930000000 1.0
C      1  0.5337460000000  0.4610040000000  0.4699810000000 1.0
C      1  0.5462530000000  0.5156680000000  0.4747480000000 1.0
C      1  0.4921160000000  0.5515920000000  0.4688550000000 1.0
C      1  0.5654990000000  0.5178720000000  0.4230640000000 1.0
C      1  0.5041590000000  0.5699170000000  0.4197520000000 1.0
C      1  0.4338350000000  0.5255820000000  0.4223620000000 1.0
C      1  0.4565580000000  0.4475190000000  0.4212530000000 1.0
C      1  0.5391140000000  0.4411240000000  0.4207250000000 1.0
C      1  0.5169400000000  0.4047450000000  0.5238080000000 1.0
C      1  0.6024220000000  0.4867350000000  0.5305770000000 1.0
C      1  0.5456500000000  0.5918270000000  0.5286520000000 1.0
C      1  0.4274680000000  0.5635700000000  0.5287980000000 1.0
C      1  0.4099240000000  0.4512470000000  0.5306380000000 1.0
C      1  0.5464380000000  0.5390670000000  0.4113540000000 1.0
C      1  0.4790480000000  0.5557910000000  0.4090970000000 1.0
C      1  0.4390760000000  0.4965070000000  0.4107310000000 1.0
C      1  0.4845570000000  0.4437430000000  0.4092790000000 1.0
C      1  0.5530330000000  0.4674220000000  0.4111570000000 1.0
C      1  0.4851650000000  0.4192610000000  0.5671950000000 1.0
C      1  0.5684900000000  0.4603230000000  0.5693930000000 1.0
C      1  0.5599660000000  0.5532700000000  0.5683760000000 1.0
C      1  0.4705190000000  0.5759070000000  0.5671150000000 1.0
C      1  0.4201980000000  0.4960490000000  0.5692500000000 1.0
C      1  0.4751450000000  0.5129840000000  0.5745170000000 1.0
C      1  0.4773860000000  0.4806040000000  0.5741530000000 1.0
C      1  0.5088780000000  0.4734760000000  0.5740020000000 1.0
C      1  0.5253850000000  0.5009220000000  0.5745740000000 1.0
C      1  0.5047810000000  0.5251300000000  0.5748160000000 1.0
C      1  0.4532740000000  0.5567890000000  0.4558720000000 1.0
C      1  0.4292650000000  0.4743670000000  0.4588840000000 1.0
C      1  0.5047070000000  0.4247690000000  0.4544250000000 1.0
C      1  0.5745420000000  0.4788770000000  0.4584920000000 1.0
C      1  0.5395680000000  0.5617040000000  0.4584710000000 1.0
C      1  0.6080230000000  0.5385060000000  0.5326560000000 1.0
C      1  0.4978080000000  0.6136800000000  0.5297880000000 1.0
C      1  0.3879470000000  0.5298730000000  0.5368340000000 1.0
C      1  0.4338390000000  0.4046820000000  0.5314280000000 1.0
C      1  0.5673060000000  0.4127790000000  0.5383530000000 1.0
C      1  0.4908350000000  0.4255150000000  0.4830310000000 1.0
C      1  0.5760970000000  0.4706620000000  0.4886380000000 1.0
C      1  0.5501750000000  0.5608900000000  0.4878660000000 1.0
C      1  0.4562030000000  0.5662340000000  0.4857410000000 1.0
C      1  0.4210670000000  0.4802150000000  0.4886070000000 1.0
C      1  0.4332620000000  0.4793690000000  0.5864280000000 1.0
C      1  0.5082950000000  0.4150680000000  0.5832050000000 1.0
C      1  0.5751340000000  0.4806430000000  0.5881360000000 1.0
C      1  0.5441300000000  0.5688200000000  0.5862560000000 1.0
C      1  0.4541420000000  0.5645010000000  0.5872150000000 1.0
C      1  0.4729730000000  0.5939000000000  0.4850690000000 1.0
C      1  0.3930890000000  0.4984770000000  0.4935630000000 1.0
C      1  0.4630890000000  0.4073670000000  0.4853530000000 1.0
C      1  0.5899030000000  0.4402570000000  0.4939800000000 1.0
C      1  0.5818170000000  0.5534320000000  0.4871680000000 1.0
C      1  0.4564950000000  0.4668070000000  0.4497250000000 1.0
C      1  0.5191540000000  0.4503240000000  0.4446990000000 1.0
C      1  0.5554230000000  0.4994410000000  0.4500540000000 1.0
C      1  0.5137170000000  0.5522080000000  0.4465020000000 1.0
C      1  0.4554930000000  0.5279190000000  0.4468520000000 1.0
C      1  0.4781720000000  0.5147890000000  0.4339030000000 1.0
C      1  0.4723530000000  0.4830630000000  0.4301940000000 1.0
C      1  0.5020270000000  0.4704960000000  0.4332880000000 1.0
C      1  0.5317370000000  0.4970870000000  0.4316500000000 1.0
C      1  0.5163400000000  0.5261920000000  0.4341710000000 1.0
C      1  0.4732880000000  0.4893510000000  0.6066340000000 1.0
C      1  0.4989620000000  0.4716460000000  0.6064910000000 1.0
C      1  0.5236730000000  0.4906300000000  0.6068650000000 1.0
C      1  0.5132470000000  0.5200780000000  0.6073970000000 1.0
C      1  0.4821350000000  0.5191680000000  0.6071440000000 1.0
C      1  0.5786760000000  0.5146130000000  0.4787550000000 1.0
C      1  0.5091400000000  0.5790430000000  0.4775410000000 1.0
C      1  0.4210410000000  0.5266800000000  0.4781630000000 1.0
C      1  0.4442740000000  0.4417440000000  0.4782370000000 1.0
C      1  0.5490860000000  0.4341560000000  0.4760320000000 1.0
C      1  0.4958000000000  0.4730250000000  0.3997130000000 1.0
C      1  0.5265780000000  0.4865410000000  0.4015380000000 1.0
C      1  0.5206810000000  0.5201690000000  0.4011230000000 1.0
C      1  0.4876290000000  0.5258810000000  0.4047670000000 1.0
C      1  0.4711040000000  0.4965730000000  0.3992280000000 1.0
C      1  0.5351300000000  0.4219840000000  0.5843560000000 1.0
C      1  0.5789590000000  0.5081270000000  0.5891600000000 1.0
C      1  0.5195220000000  0.5816740000000  0.5852270000000 1.0
C      1  0.4357510000000  0.5443550000000  0.5893210000000 1.0
C      1  0.4486020000000  0.4568850000000  0.5885610000000 1.0
C      1  0.4943200000000  0.4501560000000  0.5060830000000 1.0
C      1  0.5485650000000  0.4803070000000  0.5040760000000 1.0
C      1  0.5352340000000  0.5397110000000  0.5047070000000 1.0
C      1  0.4724110000000  0.5469350000000  0.5032080000000 1.0
C      1  0.4452620000000  0.4905120000000  0.5051500000000 1.0
C      1  0.3821400000000  0.5291420000000  0.5050520000000 1.0
C      1  0.4317680000000  0.4054680000000  0.4987330000000 1.0
C      1  0.5812760000000  0.4103210000000  0.5081260000000 1.0
C      1  0.6092510000000  0.5375300000000  0.4999340000000 1.0
C      1  0.4989880000000  0.6123590000000  0.4970920000000 1.0
C      1  0.4781060000000  0.5105960000000  0.5347210000000 1.0
C      1  0.4820150000000  0.4825150000000  0.5344860000000 1.0
C      1  0.5100700000000  0.4776530000000  0.5342720000000 1.0
C      1  0.5232360000000  0.5028600000000  0.5346880000000 1.0
C      1  0.5034480000000  0.5230620000000  0.5348960000000 1.0
C      1  0.6027690000000  0.4932290000000  0.4694080000000 1.0
C      1  0.5376790000000  0.5936180000000  0.4687250000000 1.0
C      1  0.4220640000000  0.5563790000000  0.4674580000000 1.0
C      1  0.4128820000000  0.4465250000000  0.4689410000000 1.0
C      1  0.5320510000000  0.4100780000000  0.4654550000000 1.0
C      1  0.5179120000000  0.5184410000000  0.4895520000000 1.0
C      1  0.4881040000000  0.5254220000000  0.4876390000000 1.0
C      1  0.4716290000000  0.4990280000000  0.4895770000000 1.0
C      1  0.4921460000000  0.4763350000000  0.4890570000000 1.0
C      1  0.5224490000000  0.4862640000000  0.4875750000000 1.0
C      1  0.4314680000000  0.5137100000000  0.5235890000000 1.0
C      1  0.4680270000000  0.4411270000000  0.5234310000000 1.0
C      1  0.5542640000000  0.4522760000000  0.5194470000000 1.0
C      1  0.5591920000000  0.5267310000000  0.5228620000000 1.0
C      1  0.4922830000000  0.5640270000000  0.5223700000000 1.0
C      1  0.4573470000000  0.4210770000000  0.4542400000000 1.0
C      1  0.5775320000000  0.4393390000000  0.4622140000000 1.0
C      1  0.5817860000000  0.5396230000000  0.4557690000000 1.0
C      1  0.4873460000000  0.5900230000000  0.4540000000000 1.0
C      1  0.4034260000000  0.5047380000000  0.4618920000000 1.0
C      1  0.5852030000000  0.4630560000000  0.5423700000000 1.0
C      1  0.5614620000000  0.5669140000000  0.5395180000000 1.0
C      1  0.4556960000000  0.5796230000000  0.5389780000000 1.0
C      1  0.4078150000000  0.4806260000000  0.5435960000000 1.0
C      1  0.4878850000000  0.4079040000000  0.5371550000000 1.0
C      1  0.5031250000000  0.4996420000000  0.4490500000000 1.0
END
