TITL C-2782236-320-550 0.00931053484263671 125000 -685.014527525985 0 0 120 (C6) n - 1
REM
REM in /home/nfs/bkarasulu/CARBON/AIRSS/Generating-Clusters/REBO/Higher-Symm/SD-CG/HFTN-CG
REM
REM
REM
REM
REM
REM ./C.cell (12c818d87b63d06a65506943cc24bca4)
REM
REM compiler GCC version 9.2.1 20190827 (Red Hat 9.2.1-1)
REM options -cpp -mtune=generic -march=x86-64 -g -O0 -fpre-include=/usr/include/finclude/math-vector-fortran.h
REM seed 609591447 328046730 2127679793 1083383940 -1111769061 -996396341 -1968694489 2084284245 152249198 1704433356 290384456 -874443568 -1285135180 709407268 419354896 1043354203 -841053905 -678496734 -1238548281 -1380194015 -1724478827 -484380553 -1575112798 -1069157617 697362544 -131048005 -1446971087 -446158455 1120795487 -138734057 890749510 961466542 1573792012
REM
CELL 1.54180   50.00000   50.00000   50.00000   90.00000   90.00000   90.00000
LATT -1
SFAC C  
C      1  0.5083630000000  0.4631970000000  0.4583230000000 1.0
C      1  0.5083620000000  0.4455050000000  0.5110340000000 1.0
C      1  0.5083620000000  0.4823080000000  0.5527110000000 1.0
C      1  0.5083620000000  0.5368030000000  0.5416780000000 1.0
C      1  0.5083640000000  0.5544950000000  0.4889660000000 1.0
C      1  0.5083640000000  0.5176920000000  0.4472890000000 1.0
C      1  0.5082510000000  0.5444270000000  0.4602550000000 1.0
C      1  0.5082500000000  0.5566330000000  0.5186020000000 1.0
C      1  0.5082490000000  0.5122070000000  0.5583470000000 1.0
C      1  0.5082480000000  0.4555730000000  0.5397450000000 1.0
C      1  0.5082490000000  0.4433670000000  0.4813980000000 1.0
C      1  0.5082510000000  0.4877930000000  0.4416530000000 1.0
C      1  0.4290440000000  0.5155710000000  0.4439950000000 1.0
C      1  0.4290430000000  0.4592850000000  0.4585120000000 1.0
C      1  0.4290420000000  0.4437150000000  0.5145160000000 1.0
C      1  0.4290420000000  0.4844300000000  0.5560030000000 1.0
C      1  0.4290430000000  0.5407160000000  0.5414850000000 1.0
C      1  0.4290440000000  0.5562870000000  0.4854810000000 1.0
C      1  0.4289710000000  0.4850740000000  0.4432340000000 1.0
C      1  0.4289720000000  0.5416970000000  0.4586900000000 1.0
C      1  0.4289710000000  0.5566230000000  0.5154540000000 1.0
C      1  0.4289700000000  0.5149270000000  0.5567630000000 1.0
C      1  0.4289690000000  0.4583040000000  0.5413080000000 1.0
C      1  0.4289700000000  0.4433780000000  0.4845430000000 1.0
C      1  0.5537780000000  0.4735680000000  0.5793520000000 1.0
C      1  0.5537790000000  0.5555040000000  0.5625670000000 1.0
C      1  0.5537810000000  0.5819350000000  0.4832160000000 1.0
C      1  0.5537820000000  0.5264310000000  0.4206500000000 1.0
C      1  0.5537810000000  0.4444950000000  0.4374350000000 1.0
C      1  0.5537790000000  0.4180640000000  0.5167870000000 1.0
C      1  0.5540900000000  0.5294790000000  0.5845550000000 1.0
C      1  0.5540900000000  0.4415140000000  0.5678080000000 1.0
C      1  0.5540910000000  0.4120340000000  0.4832540000000 1.0
C      1  0.5540930000000  0.4705200000000  0.4154470000000 1.0
C      1  0.5540930000000  0.5584850000000  0.4321940000000 1.0
C      1  0.5540920000000  0.5879650000000  0.5167480000000 1.0
C      1  0.4399970000000  0.4794090000000  0.4156450000000 1.0
C      1  0.4399950000000  0.4166530000000  0.4756550000000 1.0
C      1  0.4399940000000  0.4372440000000  0.5600080000000 1.0
C      1  0.4399940000000  0.5205920000000  0.5843520000000 1.0
C      1  0.4399960000000  0.5833480000000  0.5243430000000 1.0
C      1  0.4399970000000  0.5627570000000  0.4399900000000 1.0
C      1  0.4410520000000  0.5208380000000  0.4166160000000 1.0
C      1  0.4410520000000  0.5826310000000  0.4763530000000 1.0
C      1  0.4410500000000  0.5617940000000  0.5597360000000 1.0
C      1  0.4410490000000  0.4791630000000  0.5833820000000 1.0
C      1  0.4410490000000  0.4173700000000  0.5236450000000 1.0
C      1  0.4410510000000  0.4382070000000  0.4402610000000 1.0
C      1  0.4642930000000  0.5958720000000  0.5149840000000 1.0
C      1  0.4642950000000  0.5609130000000  0.4244650000000 1.0
C      1  0.4642940000000  0.4650420000000  0.4094800000000 1.0
C      1  0.4642920000000  0.4041290000000  0.4850140000000 1.0
C      1  0.4642900000000  0.4390870000000  0.5755340000000 1.0
C      1  0.4642910000000  0.5349590000000  0.5905190000000 1.0
C      1  0.4649910000000  0.4049750000000  0.5135550000000 1.0
C      1  0.4649930000000  0.4407480000000  0.4244830000000 1.0
C      1  0.4649940000000  0.5357740000000  0.4109270000000 1.0
C      1  0.4649930000000  0.5950260000000  0.4864440000000 1.0
C      1  0.4649910000000  0.5592520000000  0.5755160000000 1.0
C      1  0.4649900000000  0.4642270000000  0.5890710000000 1.0
C      1  0.4916780000000  0.5209490000000  0.4189010000000 1.0
C      1  0.4916770000000  0.4402410000000  0.4413080000000 1.0
C      1  0.4916750000000  0.4192920000000  0.5224070000000 1.0
C      1  0.4916740000000  0.4790510000000  0.5810980000000 1.0
C      1  0.4916750000000  0.5597590000000  0.5586910000000 1.0
C      1  0.4916770000000  0.5807080000000  0.4775930000000 1.0
C      1  0.4911950000000  0.4812220000000  0.4152330000000 1.0
C      1  0.4911950000000  0.5640210000000  0.4413540000000 1.0
C      1  0.4911940000000  0.5828000000000  0.5261210000000 1.0
C      1  0.4911920000000  0.5187790000000  0.5847670000000 1.0
C      1  0.4911920000000  0.4359790000000  0.5586460000000 1.0
C      1  0.4911930000000  0.4172010000000  0.4738790000000 1.0
C      1  0.5242170000000  0.4837660000000  0.4055980000000 1.0
C      1  0.5242160000000  0.4101280000000  0.4668580000000 1.0
C      1  0.5242140000000  0.4263620000000  0.5612600000000 1.0
C      1  0.5242140000000  0.5162330000000  0.5944030000000 1.0
C      1  0.5242160000000  0.5898710000000  0.5331430000000 1.0
C      1  0.5242180000000  0.5736380000000  0.4387410000000 1.0
C      1  0.5238320000000  0.5133090000000  0.4107360000000 1.0
C      1  0.5238310000000  0.5839600000000  0.4668950000000 1.0
C      1  0.5238290000000  0.5706500000000  0.5561590000000 1.0
C      1  0.5238280000000  0.4866900000000  0.5892650000000 1.0
C      1  0.5238280000000  0.4160400000000  0.5331060000000 1.0
C      1  0.5238300000000  0.4293490000000  0.4438420000000 1.0
C      1  0.4688720000000  0.4871210000000  0.4421970000000 1.0
C      1  0.4688710000000  0.4435020000000  0.4822520000000 1.0
C      1  0.4688700000000  0.4563820000000  0.5400550000000 1.0
C      1  0.4688700000000  0.5128800000000  0.5578020000000 1.0
C      1  0.4688710000000  0.5564980000000  0.5177470000000 1.0
C      1  0.4688720000000  0.5436190000000  0.4599440000000 1.0
C      1  0.4689070000000  0.5172860000000  0.4459280000000 1.0
C      1  0.4689070000000  0.5554700000000  0.4879340000000 1.0
C      1  0.4689060000000  0.5381840000000  0.5420050000000 1.0
C      1  0.4689050000000  0.4827150000000  0.5540700000000 1.0
C      1  0.4689050000000  0.4445310000000  0.5120650000000 1.0
C      1  0.4689070000000  0.4618160000000  0.4579940000000 1.0
C      1  0.5792890000000  0.5469960000000  0.5410980000000 1.0
C      1  0.5792910000000  0.5590880000000  0.4798500000000 1.0
C      1  0.5792910000000  0.5120920000000  0.4387530000000 1.0
C      1  0.5792900000000  0.4530030000000  0.4589050000000 1.0
C      1  0.5792890000000  0.4409100000000  0.5201530000000 1.0
C      1  0.5792890000000  0.4879070000000  0.5612500000000 1.0
C      1  0.5789470000000  0.4561970000000  0.5486110000000 1.0
C      1  0.5789480000000  0.4360010000000  0.4863720000000 1.0
C      1  0.5789500000000  0.4798040000000  0.4377630000000 1.0
C      1  0.5789500000000  0.5438020000000  0.4513920000000 1.0
C      1  0.5789490000000  0.5639970000000  0.5136310000000 1.0
C      1  0.5789480000000  0.5201950000000  0.5622400000000 1.0
C      1  0.5397530000000  0.5406800000000  0.4550470000000 1.0
C      1  0.5397520000000  0.4814090000000  0.4422930000000 1.0
C      1  0.5397510000000  0.4407280000000  0.4872470000000 1.0
C      1  0.5397500000000  0.4593190000000  0.5449540000000 1.0
C      1  0.5397510000000  0.5185900000000  0.5577080000000 1.0
C      1  0.5397520000000  0.5592710000000  0.5127550000000 1.0
C      1  0.5404910000000  0.4592470000000  0.4643140000000 1.0
C      1  0.5404920000000  0.5105290000000  0.4468650000000 1.0
C      1  0.5404920000000  0.5512820000000  0.4825520000000 1.0
C      1  0.5404910000000  0.5407520000000  0.5356880000000 1.0
C      1  0.5404900000000  0.4894700000000  0.5531370000000 1.0
C      1  0.5404900000000  0.4487180000000  0.5174500000000 1.0
END
