TITL C-2782239-8622-8 0.000154731404000662 125000 -986.125835251729 0 0 168 (C1) n - 1
REM
REM in /home/nfs/bkarasulu/CARBON/AIRSS/Generating-Clusters/REBO/Higher-Symm/SD-CG/HFTN-CG
REM
REM
REM
REM
REM
REM ./C.cell (12c818d87b63d06a65506943cc24bca4)
REM
REM compiler GCC version 9.2.1 20190827 (Red Hat 9.2.1-1)
REM options -cpp -mtune=generic -march=x86-64 -g -O0 -fpre-include=/usr/include/finclude/math-vector-fortran.h
REM seed -521901728 -292843322 -934200617 319769939 -114001316 1731808268 159586967 1365099493 1436552745 144694206 -1558851540 -698982657 1367983814 -1625140492 203676345 -1740337808 -1850577284 1722125788 -1803663879 -1396330475 756035682 -424345476 -1548053073 662431630 -1531020968 1899473065 1380218779 -491069582 1295507279 422204584 -818940212 -231110999 728076114
REM
CELL 1.54180   50.00000   50.00000   50.00000   90.00000   90.00000   90.00000
LATT -1
SFAC C  
C      1  0.4611200000000  0.4004510000000  0.5244790000000 1.0
C      1  0.5397240000000  0.3921690000000  0.4763080000000 1.0
C      1  0.4509550000000  0.5962540000000  0.5278510000000 1.0
C      1  0.6067770000000  0.6005630000000  0.4759130000000 1.0
C      1  0.5401430000000  0.4021620000000  0.5259890000000 1.0
C      1  0.4623510000000  0.3919060000000  0.4771960000000 1.0
C      1  0.5487110000000  0.6012380000000  0.5105280000000 1.0
C      1  0.4502320000000  0.6080210000000  0.4783050000000 1.0
C      1  0.5711010000000  0.4265690000000  0.5324750000000 1.0
C      1  0.4356070000000  0.4296430000000  0.4704480000000 1.0
C      1  0.5731320000000  0.5655930000000  0.5281010000000 1.0
C      1  0.4264290000000  0.5692650000000  0.4719780000000 1.0
C      1  0.4254100000000  0.4287270000000  0.5298360000000 1.0
C      1  0.5725380000000  0.4257880000000  0.4718180000000 1.0
C      1  0.4231790000000  0.5684390000000  0.5347120000000 1.0
C      1  0.5751200000000  0.5639720000000  0.4683310000000 1.0
C      1  0.5129970000000  0.4853830000000  0.5109620000000 1.0
C      1  0.4711970000000  0.4816060000000  0.4771650000000 1.0
C      1  0.5243150000000  0.5160930000000  0.5112120000000 1.0
C      1  0.4826440000000  0.5121750000000  0.4771030000000 1.0
C      1  0.4782040000000  0.4876950000000  0.5082350000000 1.0
C      1  0.5054820000000  0.4798260000000  0.4805390000000 1.0
C      1  0.4901040000000  0.5177940000000  0.5085630000000 1.0
C      1  0.5170270000000  0.5099410000000  0.4800970000000 1.0
C      1  0.5516030000000  0.5132110000000  0.4437600000000 1.0
C      1  0.4386960000000  0.5198430000000  0.5600380000000 1.0
C      1  0.5579760000000  0.4818260000000  0.4450910000000 1.0
C      1  0.4435620000000  0.4882310000000  0.5568090000000 1.0
C      1  0.4386720000000  0.5217050000000  0.4449900000000 1.0
C      1  0.5532510000000  0.5159100000000  0.5581600000000 1.0
C      1  0.4424480000000  0.4899460000000  0.4485200000000 1.0
C      1  0.5606690000000  0.4849010000000  0.5563420000000 1.0
C      1  0.6108990000000  0.4891400000000  0.4478080000000 1.0
C      1  0.3869630000000  0.4785670000000  0.5516850000000 1.0
C      1  0.6059240000000  0.5197370000000  0.4549110000000 1.0
C      1  0.3904060000000  0.5109400000000  0.5509750000000 1.0
C      1  0.3955650000000  0.4791250000000  0.4591310000000 1.0
C      1  0.6078670000000  0.4849300000000  0.5454890000000 1.0
C      1  0.3929650000000  0.5113690000000  0.4566280000000 1.0
C      1  0.6030120000000  0.5165260000000  0.5467980000000 1.0
C      1  0.4369540000000  0.5740590000000  0.5590490000000 1.0
C      1  0.5648150000000  0.5717570000000  0.4434750000000 1.0
C      1  0.4284780000000  0.4259110000000  0.5579810000000 1.0
C      1  0.5691700000000  0.4249480000000  0.4437900000000 1.0
C      1  0.5657940000000  0.5709280000000  0.5547270000000 1.0
C      1  0.4391600000000  0.5708600000000  0.4467060000000 1.0
C      1  0.5586530000000  0.4232350000000  0.5578230000000 1.0
C      1  0.4470300000000  0.4288410000000  0.4446340000000 1.0
C      1  0.4845740000000  0.4698450000000  0.5853140000000 1.0
C      1  0.5192900000000  0.4707880000000  0.4102600000000 1.0
C      1  0.4799080000000  0.5305030000000  0.5872030000000 1.0
C      1  0.5133620000000  0.5301850000000  0.4121330000000 1.0
C      1  0.5186530000000  0.4710680000000  0.5865260000000 1.0
C      1  0.4862850000000  0.4699750000000  0.4100830000000 1.0
C      1  0.5136360000000  0.5328550000000  0.5868330000000 1.0
C      1  0.4796550000000  0.5308490000000  0.4119660000000 1.0
C      1  0.5149010000000  0.5918850000000  0.4235150000000 1.0
C      1  0.4911230000000  0.5918450000000  0.5717830000000 1.0
C      1  0.5212050000000  0.4082040000000  0.4181410000000 1.0
C      1  0.4761050000000  0.4033540000000  0.5771600000000 1.0
C      1  0.4862500000000  0.5947780000000  0.4273520000000 1.0
C      1  0.5198720000000  0.5983440000000  0.5732730000000 1.0
C      1  0.4924720000000  0.4050600000000  0.4212460000000 1.0
C      1  0.5048220000000  0.4090640000000  0.5742740000000 1.0
C      1  0.3991440000000  0.4853230000000  0.5218100000000 1.0
C      1  0.5994970000000  0.4881160000000  0.4798480000000 1.0
C      1  0.3950750000000  0.5190230000000  0.5181550000000 1.0
C      1  0.5968060000000  0.5217270000000  0.4859060000000 1.0
C      1  0.5990500000000  0.4929770000000  0.5135080000000 1.0
C      1  0.4013280000000  0.4912100000000  0.4901300000000 1.0
C      1  0.5959420000000  0.5268450000000  0.5164920000000 1.0
C      1  0.3973100000000  0.5247360000000  0.4868090000000 1.0
C      1  0.5278870000000  0.4391020000000  0.4073000000000 1.0
C      1  0.4784040000000  0.4368100000000  0.5855380000000 1.0
C      1  0.5212990000000  0.5619560000000  0.4099290000000 1.0
C      1  0.4855170000000  0.5608990000000  0.5841990000000 1.0
C      1  0.4947540000000  0.4394410000000  0.4133570000000 1.0
C      1  0.5117020000000  0.4408200000000  0.5838470000000 1.0
C      1  0.4885110000000  0.5611000000000  0.4169460000000 1.0
C      1  0.5182740000000  0.5661130000000  0.5857670000000 1.0
C      1  0.4316430000000  0.4740390000000  0.5814040000000 1.0
C      1  0.5714590000000  0.4737130000000  0.4191220000000 1.0
C      1  0.4296100000000  0.5282640000000  0.5883640000000 1.0
C      1  0.5661160000000  0.5256780000000  0.4205880000000 1.0
C      1  0.5704710000000  0.4751280000000  0.5845380000000 1.0
C      1  0.4340280000000  0.4748000000000  0.4209660000000 1.0
C      1  0.5658370000000  0.5304600000000  0.5815240000000 1.0
C      1  0.4281650000000  0.5300640000000  0.4166270000000 1.0
C      1  0.4380110000000  0.4540810000000  0.5186690000000 1.0
C      1  0.5607960000000  0.4510540000000  0.4860990000000 1.0
C      1  0.4322140000000  0.5425710000000  0.5204510000000 1.0
C      1  0.5617740000000  0.5403650000000  0.4820450000000 1.0
C      1  0.5643110000000  0.4529520000000  0.5178570000000 1.0
C      1  0.4414220000000  0.4558360000000  0.4874500000000 1.0
C      1  0.5589310000000  0.5415820000000  0.5143110000000 1.0
C      1  0.4345640000000  0.5440580000000  0.4892040000000 1.0
C      1  0.5226260000000  0.5186740000000  0.5604000000000 1.0
C      1  0.4704520000000  0.5168080000000  0.4391830000000 1.0
C      1  0.5280250000000  0.4849860000000  0.5594350000000 1.0
C      1  0.4729460000000  0.4829280000000  0.4373520000000 1.0
C      1  0.4706890000000  0.5174340000000  0.5595370000000 1.0
C      1  0.5208100000000  0.5165170000000  0.4402100000000 1.0
C      1  0.4748560000000  0.4837390000000  0.5587410000000 1.0
C      1  0.5262940000000  0.4827880000000  0.4389250000000 1.0
C      1  0.4613960000000  0.5790160000000  0.5705850000000 1.0
C      1  0.5440050000000  0.5782560000000  0.4271700000000 1.0
C      1  0.4503530000000  0.4222050000000  0.5743330000000 1.0
C      1  0.5499630000000  0.4216830000000  0.4245510000000 1.0
C      1  0.5451240000000  0.5786710000000  0.5708200000000 1.0
C      1  0.4620610000000  0.5756990000000  0.4325810000000 1.0
C      1  0.5347370000000  0.4207710000000  0.5710230000000 1.0
C      1  0.4689080000000  0.4241050000000  0.4290170000000 1.0
C      1  0.5239230000000  0.4203370000000  0.5131120000000 1.0
C      1  0.4866810000000  0.4119870000000  0.4829680000000 1.0
C      1  0.5246370000000  0.5860200000000  0.5113710000000 1.0
C      1  0.4745490000000  0.5889970000000  0.4843170000000 1.0
C      1  0.4786300000000  0.4187530000000  0.5134040000000 1.0
C      1  0.5165690000000  0.4129010000000  0.4827350000000 1.0
C      1  0.4696080000000  0.5800780000000  0.5152700000000 1.0
C      1  0.5027420000000  0.5939360000000  0.4978800000000 1.0
C      1  0.4523310000000  0.5304660000000  0.6039060000000 1.0
C      1  0.5460000000000  0.5321120000000  0.4022100000000 1.0
C      1  0.4529140000000  0.4653780000000  0.5970320000000 1.0
C      1  0.5517470000000  0.4696410000000  0.3999880000000 1.0
C      1  0.5451900000000  0.5391630000000  0.5978710000000 1.0
C      1  0.4495860000000  0.5324950000000  0.3993680000000 1.0
C      1  0.5482890000000  0.4712860000000  0.6005950000000 1.0
C      1  0.4545210000000  0.4709940000000  0.4039340000000 1.0
C      1  0.5678170000000  0.5106260000000  0.4712130000000 1.0
C      1  0.4253800000000  0.5136310000000  0.5319240000000 1.0
C      1  0.5696700000000  0.4764690000000  0.4733580000000 1.0
C      1  0.4295740000000  0.4796920000000  0.5300270000000 1.0
C      1  0.4281770000000  0.5164110000000  0.4747240000000 1.0
C      1  0.5672020000000  0.5134590000000  0.5292470000000 1.0
C      1  0.4312540000000  0.4822760000000  0.4769920000000 1.0
C      1  0.5724230000000  0.4795200000000  0.5279920000000 1.0
C      1  0.5172840000000  0.4683490000000  0.5362230000000 1.0
C      1  0.4832270000000  0.4579340000000  0.4560760000000 1.0
C      1  0.5131680000000  0.5341670000000  0.5364550000000 1.0
C      1  0.4788680000000  0.5397600000000  0.4625410000000 1.0
C      1  0.4851410000000  0.4695800000000  0.5344770000000 1.0
C      1  0.5154690000000  0.4608650000000  0.4586220000000 1.0
C      1  0.4815780000000  0.5326320000000  0.5354370000000 1.0
C      1  0.5106750000000  0.5367960000000  0.4630190000000 1.0
C      1  0.5278620000000  0.5553250000000  0.5170620000000 1.0
C      1  0.4652900000000  0.5573040000000  0.4827960000000 1.0
C      1  0.5326340000000  0.4507760000000  0.5144800000000 1.0
C      1  0.4721290000000  0.4420170000000  0.4816650000000 1.0
C      1  0.4637080000000  0.5487950000000  0.5160210000000 1.0
C      1  0.5310590000000  0.5464470000000  0.4861740000000 1.0
C      1  0.4695320000000  0.4494320000000  0.5150870000000 1.0
C      1  0.5286070000000  0.4437580000000  0.4811910000000 1.0
C      1  0.5931680000000  0.5213100000000  0.5764800000000 1.0
C      1  0.4034820000000  0.5159780000000  0.4270150000000 1.0
C      1  0.5958240000000  0.4893270000000  0.5748050000000 1.0
C      1  0.4070830000000  0.4848390000000  0.4306240000000 1.0
C      1  0.4037640000000  0.5161740000000  0.5791300000000 1.0
C      1  0.5940760000000  0.5173160000000  0.4252170000000 1.0
C      1  0.4038720000000  0.4846230000000  0.5777500000000 1.0
C      1  0.5975850000000  0.4858950000000  0.4197390000000 1.0
C      1  0.4256100000000  0.5942190000000  0.4866070000000 1.0
C      1  0.5740610000000  0.5879730000000  0.5103360000000 1.0
C      1  0.4371660000000  0.4048720000000  0.4851410000000 1.0
C      1  0.5681670000000  0.4019430000000  0.5145900000000 1.0
C      1  0.5871690000000  0.5839410000000  0.4847560000000 1.0
C      1  0.4230530000000  0.5926920000000  0.5157860000000 1.0
C      1  0.5659260000000  0.4014060000000  0.4855070000000 1.0
C      1  0.4341090000000  0.4054840000000  0.5146060000000 1.0
END
