TITL C-2782234-8014-1311 -2.80253100522119e-07 125000 -78.1109637901663 0 0 15 (C1) n - 1
REM
REM in /home/nfs/bkarasulu/CARBON/AIRSS/Generating-Clusters/REBO/Higher-Symm/SD-CG/HFTN-CG
REM
REM
REM
REM
REM
REM ./C.cell (12c818d87b63d06a65506943cc24bca4)
REM
REM compiler GCC version 9.2.1 20190827 (Red Hat 9.2.1-1)
REM options -cpp -mtune=generic -march=x86-64 -g -O0 -fpre-include=/usr/include/finclude/math-vector-fortran.h
REM seed 1498780477 -789726382 -1094460479 831541756 -429647423 139187985 -937133503 -1603173353 227763355 155776008 -90060104 689948474 4408396 -1537939196 331340156 426757139 -1473884416 2132679960 2026094011 -1352773602 -555999194 1687896985 1680868399 438746906 1708957206 227085970 -880583093 717701784 -342330879 -937388087 -674097545 177798248 -1993472215
REM
CELL 1.54180   50.00000   50.00000   50.00000   90.00000   90.00000   90.00000
LATT -1
SFAC C  
C      1  0.5200450000000  0.4671430000000  0.5290950000000 1.0
C      1  0.4623270000000  0.5279690000000  0.4982040000000 1.0
C      1  0.4895020000000  0.4997170000000  0.4465530000000 1.0
C      1  0.4526950000000  0.4817230000000  0.5036720000000 1.0
C      1  0.5303530000000  0.4769140000000  0.4599490000000 1.0
C      1  0.5081960000000  0.5463630000000  0.5011240000000 1.0
C      1  0.5489150000000  0.5056790000000  0.5131680000000 1.0
C      1  0.4938770000000  0.4582110000000  0.5248730000000 1.0
C      1  0.5072040000000  0.4908730000000  0.4659110000000 1.0
C      1  0.4904570000000  0.5253850000000  0.4983260000000 1.0
C      1  0.5259630000000  0.4904480000000  0.5133660000000 1.0
C      1  0.4799210000000  0.4753460000000  0.5066650000000 1.0
C      1  0.4439020000000  0.5076070000000  0.5000730000000 1.0
C      1  0.5707510000000  0.5201700000000  0.5129800000000 1.0
C      1  0.5009360000000  0.4967570000000  0.4950410000000 1.0
END
