TITL C-2782229-3092-385 -0.00212267551857678 125000 -1089.10214000449 0 0 175 (C1) n - 1
REM
REM in /home/nfs/bkarasulu/CARBON/AIRSS/Generating-Clusters/REBO/Higher-Symm/SD-CG/HFTN-CG
REM
REM
REM
REM
REM
REM ./C.cell (12c818d87b63d06a65506943cc24bca4)
REM
REM compiler GCC version 9.2.1 20190827 (Red Hat 9.2.1-1)
REM options -cpp -mtune=generic -march=x86-64 -g -O0 -fpre-include=/usr/include/finclude/math-vector-fortran.h
REM seed 1965532162 -1977317378 -649791052 665981148 499644186 -1973934840 -839613222 -1679953773 -1719758193 496397867 -440904128 552686368 1159658761 1361343541 -1472944219 821666536 -1066352673 162049559 2031987618 185758521 64005865 -1785221498 -621548243 -1569563192 -1315746456 -1272090694 1332027204 352397092 1671243598 -1672814237 1022117988 1686295181 735822695
REM
CELL 1.54180   50.00000   50.00000   50.00000   90.00000   90.00000   90.00000
LATT -1
SFAC C  
C      1  0.4867670000000  0.5084340000000  0.5287570000000 1.0
C      1  0.4855850000000  0.4811970000000  0.5237360000000 1.0
C      1  0.4838100000000  0.4701470000000  0.4976060000000 1.0
C      1  0.4832880000000  0.4803540000000  0.4711650000000 1.0
C      1  0.4826680000000  0.5075830000000  0.4644310000000 1.0
C      1  0.4839770000000  0.5291490000000  0.4820060000000 1.0
C      1  0.4867400000000  0.5283560000000  0.5093350000000 1.0
C      1  0.4309990000000  0.5662090000000  0.4755240000000 1.0
C      1  0.4281910000000  0.5641990000000  0.5377160000000 1.0
C      1  0.4377550000000  0.5080570000000  0.5684510000000 1.0
C      1  0.4342630000000  0.4529900000000  0.5481110000000 1.0
C      1  0.4284640000000  0.4277780000000  0.4985820000000 1.0
C      1  0.4298230000000  0.4633470000000  0.4419500000000 1.0
C      1  0.4244500000000  0.5199360000000  0.4275660000000 1.0
C      1  0.5192950000000  0.5562560000000  0.4033150000000 1.0
C      1  0.5093270000000  0.6129360000000  0.4909840000000 1.0
C      1  0.5120430000000  0.5791680000000  0.5810830000000 1.0
C      1  0.5197010000000  0.4887580000000  0.6045800000000 1.0
C      1  0.5156310000000  0.4008270000000  0.5625490000000 1.0
C      1  0.5124880000000  0.3978200000000  0.4621150000000 1.0
C      1  0.5138710000000  0.4581040000000  0.3865510000000 1.0
C      1  0.5712080000000  0.4107720000000  0.4751580000000 1.0
C      1  0.5691500000000  0.4595340000000  0.4101450000000 1.0
C      1  0.5739150000000  0.5426970000000  0.4268560000000 1.0
C      1  0.5669200000000  0.6010050000000  0.4887920000000 1.0
C      1  0.5679110000000  0.5732100000000  0.5597940000000 1.0
C      1  0.5784330000000  0.4972040000000  0.5887650000000 1.0
C      1  0.5704610000000  0.4243910000000  0.5534880000000 1.0
C      1  0.6018250000000  0.4846020000000  0.4752830000000 1.0
C      1  0.6010480000000  0.5125010000000  0.4757530000000 1.0
C      1  0.6014700000000  0.5313500000000  0.4974050000000 1.0
C      1  0.6082140000000  0.5275640000000  0.5251390000000 1.0
C      1  0.6091140000000  0.5018620000000  0.5371840000000 1.0
C      1  0.6065240000000  0.4765200000000  0.5250760000000 1.0
C      1  0.6041930000000  0.4688760000000  0.4984220000000 1.0
C      1  0.4623640000000  0.5534510000000  0.4720200000000 1.0
C      1  0.4712420000000  0.5535470000000  0.5208960000000 1.0
C      1  0.4664260000000  0.5171280000000  0.5544990000000 1.0
C      1  0.4656490000000  0.4659360000000  0.5462460000000 1.0
C      1  0.4636950000000  0.4465730000000  0.4989720000000 1.0
C      1  0.4621010000000  0.4625910000000  0.4527450000000 1.0
C      1  0.4601710000000  0.5141330000000  0.4439600000000 1.0
C      1  0.4078770000000  0.5191210000000  0.5284090000000 1.0
C      1  0.4071390000000  0.4914900000000  0.5318230000000 1.0
C      1  0.4059180000000  0.4711360000000  0.5120840000000 1.0
C      1  0.4057330000000  0.4723650000000  0.4838590000000 1.0
C      1  0.4049260000000  0.4958920000000  0.4685180000000 1.0
C      1  0.4062250000000  0.5230400000000  0.4763930000000 1.0
C      1  0.4070490000000  0.5324750000000  0.5034190000000 1.0
C      1  0.5162190000000  0.4593850000000  0.5440740000000 1.0
C      1  0.5186500000000  0.4393820000000  0.4954370000000 1.0
C      1  0.5146210000000  0.4639460000000  0.4468330000000 1.0
C      1  0.5193050000000  0.5153840000000  0.4373350000000 1.0
C      1  0.5120860000000  0.5569800000000  0.4763560000000 1.0
C      1  0.5300910000000  0.5586670000000  0.5120340000000 1.0
C      1  0.5284130000000  0.5265050000000  0.5542750000000 1.0
C      1  0.4980390000000  0.5275360000000  0.5619690000000 1.0
C      1  0.4929040000000  0.4699980000000  0.5625280000000 1.0
C      1  0.4825870000000  0.4246780000000  0.5094400000000 1.0
C      1  0.4897300000000  0.4454500000000  0.4525090000000 1.0
C      1  0.4830410000000  0.5050540000000  0.4239930000000 1.0
C      1  0.4900470000000  0.5566380000000  0.4536970000000 1.0
C      1  0.5049490000000  0.5734820000000  0.5272560000000 1.0
C      1  0.5402770000000  0.4146630000000  0.5599970000000 1.0
C      1  0.5399450000000  0.4038060000000  0.4688500000000 1.0
C      1  0.5385430000000  0.4563500000000  0.4004510000000 1.0
C      1  0.5446470000000  0.5456900000000  0.4105180000000 1.0
C      1  0.5367570000000  0.6068660000000  0.4900170000000 1.0
C      1  0.5383420000000  0.5759370000000  0.5705970000000 1.0
C      1  0.5453220000000  0.4966820000000  0.5964830000000 1.0
C      1  0.4898690000000  0.5691100000000  0.4970060000000 1.0
C      1  0.4860330000000  0.5564330000000  0.5496260000000 1.0
C      1  0.4920950000000  0.4983310000000  0.5772230000000 1.0
C      1  0.4940800000000  0.4379090000000  0.5341730000000 1.0
C      1  0.4935520000000  0.4292750000000  0.4789000000000 1.0
C      1  0.4924280000000  0.4776730000000  0.4290220000000 1.0
C      1  0.4942200000000  0.5351690000000  0.4328600000000 1.0
C      1  0.4489560000000  0.5934710000000  0.4820050000000 1.0
C      1  0.4405750000000  0.5675100000000  0.5670400000000 1.0
C      1  0.4458980000000  0.4991630000000  0.5993570000000 1.0
C      1  0.4491570000000  0.4260740000000  0.5475680000000 1.0
C      1  0.4444190000000  0.4137160000000  0.4746150000000 1.0
C      1  0.4456320000000  0.4596860000000  0.4133160000000 1.0
C      1  0.4451550000000  0.5420240000000  0.4196090000000 1.0
C      1  0.5368100000000  0.5547800000000  0.5438080000000 1.0
C      1  0.5476160000000  0.5192210000000  0.5768110000000 1.0
C      1  0.5379430000000  0.4461340000000  0.5600450000000 1.0
C      1  0.5391360000000  0.4201430000000  0.4963670000000 1.0
C      1  0.5366500000000  0.4511900000000  0.4311800000000 1.0
C      1  0.5428390000000  0.5183540000000  0.4226520000000 1.0
C      1  0.5379720000000  0.5739700000000  0.4850260000000 1.0
C      1  0.4224240000000  0.5346120000000  0.5535340000000 1.0
C      1  0.4222630000000  0.4816900000000  0.5569920000000 1.0
C      1  0.4184310000000  0.4474470000000  0.5214880000000 1.0
C      1  0.4212950000000  0.4459430000000  0.4702020000000 1.0
C      1  0.4157310000000  0.4914000000000  0.4409440000000 1.0
C      1  0.4212090000000  0.5426710000000  0.4529390000000 1.0
C      1  0.4176300000000  0.5607910000000  0.5059200000000 1.0
C      1  0.5913900000000  0.4692110000000  0.4538320000000 1.0
C      1  0.5908750000000  0.5252110000000  0.4509440000000 1.0
C      1  0.5893490000000  0.5561510000000  0.4892940000000 1.0
C      1  0.6062100000000  0.5482000000000  0.5447440000000 1.0
C      1  0.6021480000000  0.5001840000000  0.5645440000000 1.0
C      1  0.5959460000000  0.4566510000000  0.5428560000000 1.0
C      1  0.5930430000000  0.4428150000000  0.4954200000000 1.0
C      1  0.4967660000000  0.6046020000000  0.5155380000000 1.0
C      1  0.4998950000000  0.5589980000000  0.5978250000000 1.0
C      1  0.5063690000000  0.4652580000000  0.5940720000000 1.0
C      1  0.5088520000000  0.3830330000000  0.5408540000000 1.0
C      1  0.4977110000000  0.4137830000000  0.4423720000000 1.0
C      1  0.5053040000000  0.4845340000000  0.3782250000000 1.0
C      1  0.5101010000000  0.5800110000000  0.4172450000000 1.0
C      1  0.4443090000000  0.5301980000000  0.4858040000000 1.0
C      1  0.4472070000000  0.5327210000000  0.5131360000000 1.0
C      1  0.4469110000000  0.5105820000000  0.5297100000000 1.0
C      1  0.4457290000000  0.4831900000000  0.5246860000000 1.0
C      1  0.4439730000000  0.4693610000000  0.4999440000000 1.0
C      1  0.4435400000000  0.4813630000000  0.4745520000000 1.0
C      1  0.4428370000000  0.5085550000000  0.4677320000000 1.0
C      1  0.4793940000000  0.4204510000000  0.4186740000000 1.0
C      1  0.4899980000000  0.5080300000000  0.3848130000000 1.0
C      1  0.4939360000000  0.5928310000000  0.4372520000000 1.0
C      1  0.4771430000000  0.5997900000000  0.5385100000000 1.0
C      1  0.4838920000000  0.5361940000000  0.6048170000000 1.0
C      1  0.4854880000000  0.4429340000000  0.5910260000000 1.0
C      1  0.4952940000000  0.3821080000000  0.5158620000000 1.0
C      1  0.4703130000000  0.4047350000000  0.4770270000000 1.0
C      1  0.4765200000000  0.4598140000000  0.4138090000000 1.0
C      1  0.4706990000000  0.5395180000000  0.4080170000000 1.0
C      1  0.4763660000000  0.5920040000000  0.4826780000000 1.0
C      1  0.4667560000000  0.5747920000000  0.5678460000000 1.0
C      1  0.4759500000000  0.4970930000000  0.6032610000000 1.0
C      1  0.4766460000000  0.4280500000000  0.5550820000000 1.0
C      1  0.4352290000000  0.4912760000000  0.4125640000000 1.0
C      1  0.4425640000000  0.5649620000000  0.4375340000000 1.0
C      1  0.4351780000000  0.5891200000000  0.5077720000000 1.0
C      1  0.4350650000000  0.5445990000000  0.5840120000000 1.0
C      1  0.4396670000000  0.4715320000000  0.5841720000000 1.0
C      1  0.4444660000000  0.4117000000000  0.5235110000000 1.0
C      1  0.4376250000000  0.4249000000000  0.4485540000000 1.0
C      1  0.5761090000000  0.5292810000000  0.5773250000000 1.0
C      1  0.5663290000000  0.4506490000000  0.5690220000000 1.0
C      1  0.5677830000000  0.4139600000000  0.5057310000000 1.0
C      1  0.5646610000000  0.4436140000000  0.4390880000000 1.0
C      1  0.5728010000000  0.5078970000000  0.4295770000000 1.0
C      1  0.5648240000000  0.5781170000000  0.4666600000000 1.0
C      1  0.5631440000000  0.5724890000000  0.5294870000000 1.0
C      1  0.5828960000000  0.4377820000000  0.4637150000000 1.0
C      1  0.5803150000000  0.4792930000000  0.4301190000000 1.0
C      1  0.5831010000000  0.5565670000000  0.4564050000000 1.0
C      1  0.5763810000000  0.5763340000000  0.5048650000000 1.0
C      1  0.5866800000000  0.5520040000000  0.5653090000000 1.0
C      1  0.5886370000000  0.4704580000000  0.5720390000000 1.0
C      1  0.5847050000000  0.4300390000000  0.5258980000000 1.0
C      1  0.4627100000000  0.5017240000000  0.3987440000000 1.0
C      1  0.4666570000000  0.5782850000000  0.4412640000000 1.0
C      1  0.4509800000000  0.5896680000000  0.5333980000000 1.0
C      1  0.4550340000000  0.5307720000000  0.5986800000000 1.0
C      1  0.4582060000000  0.4519050000000  0.5880440000000 1.0
C      1  0.4686280000000  0.3970760000000  0.5159480000000 1.0
C      1  0.4523180000000  0.4300160000000  0.4255860000000 1.0
C      1  0.5237320000000  0.4681020000000  0.4962740000000 1.0
C      1  0.5232260000000  0.4806090000000  0.4707070000000 1.0
C      1  0.5227840000000  0.5077170000000  0.4644940000000 1.0
C      1  0.5238640000000  0.5288040000000  0.4818920000000 1.0
C      1  0.5306740000000  0.5265010000000  0.5090020000000 1.0
C      1  0.5298820000000  0.5069480000000  0.5291280000000 1.0
C      1  0.5255010000000  0.4797120000000  0.5226700000000 1.0
C      1  0.4927310000000  0.4406360000000  0.3976790000000 1.0
C      1  0.4993060000000  0.5367170000000  0.3934790000000 1.0
C      1  0.4952340000000  0.6059270000000  0.4640460000000 1.0
C      1  0.4916180000000  0.5927120000000  0.5653070000000 1.0
C      1  0.5012210000000  0.5108950000000  0.6140230000000 1.0
C      1  0.4942740000000  0.4162310000000  0.5763470000000 1.0
C      1  0.4958250000000  0.3899750000000  0.4858410000000 1.0
END
