TITL C-2782239-8622-249 -0.00156961047178258 125000 -657.821034857815 0 0 111 (C1) n - 1
REM
REM in /home/nfs/bkarasulu/CARBON/AIRSS/Generating-Clusters/REBO/Higher-Symm/SD-CG/HFTN-CG
REM
REM
REM
REM
REM
REM ./C.cell (12c818d87b63d06a65506943cc24bca4)
REM
REM compiler GCC version 9.2.1 20190827 (Red Hat 9.2.1-1)
REM options -cpp -mtune=generic -march=x86-64 -g -O0 -fpre-include=/usr/include/finclude/math-vector-fortran.h
REM seed -109758589 -1457508500 -2121797825 -308578961 -1835873430 -628583449 -957462264 2247323 477694772 51157416 836732810 1406778368 1998867217 734604048 1913703975 1019626388 -285391683 -1406782353 -116875351 -1033730654 -1531249899 1126961491 -860310322 1148860745 1222017285 1866488970 448579398 -1655431526 -285411569 1420212589 1825237906 537359326 -1191576518
REM
CELL 1.54180   50.00000   50.00000   50.00000   90.00000   90.00000   90.00000
LATT -1
SFAC C  
C      1  0.5165840000000  0.5224170000000  0.4577670000000 1.0
C      1  0.4735150000000  0.4911790000000  0.4553420000000 1.0
C      1  0.5087610000000  0.5096860000000  0.5401980000000 1.0
C      1  0.4753070000000  0.4892750000000  0.5464720000000 1.0
C      1  0.4838510000000  0.5207740000000  0.4606930000000 1.0
C      1  0.5223210000000  0.4923780000000  0.4589780000000 1.0
C      1  0.4795830000000  0.5223200000000  0.5431210000000 1.0
C      1  0.5054470000000  0.4778070000000  0.5494860000000 1.0
C      1  0.4438890000000  0.5658320000000  0.5124350000000 1.0
C      1  0.5546300000000  0.4432130000000  0.5139830000000 1.0
C      1  0.4461430000000  0.5628730000000  0.4831080000000 1.0
C      1  0.5592630000000  0.4357150000000  0.4851470000000 1.0
C      1  0.5577790000000  0.5758140000000  0.5042590000000 1.0
C      1  0.4423210000000  0.4267860000000  0.5210340000000 1.0
C      1  0.5592180000000  0.5708320000000  0.4768040000000 1.0
C      1  0.4414960000000  0.4307580000000  0.4906650000000 1.0
C      1  0.4860060000000  0.3968890000000  0.4841550000000 1.0
C      1  0.5153600000000  0.5987130000000  0.4626360000000 1.0
C      1  0.4880380000000  0.4021720000000  0.5177850000000 1.0
C      1  0.5185800000000  0.5950920000000  0.5306900000000 1.0
C      1  0.5200520000000  0.3984030000000  0.4845200000000 1.0
C      1  0.4947860000000  0.5901550000000  0.4827610000000 1.0
C      1  0.5211710000000  0.4029230000000  0.5146390000000 1.0
C      1  0.4911630000000  0.5953260000000  0.5143450000000 1.0
C      1  0.5185280000000  0.5414700000000  0.5713990000000 1.0
C      1  0.4818010000000  0.4504300000000  0.5864810000000 1.0
C      1  0.5211780000000  0.5369760000000  0.4296300000000 1.0
C      1  0.4874440000000  0.4664360000000  0.4383340000000 1.0
C      1  0.4893040000000  0.5439690000000  0.5653170000000 1.0
C      1  0.5080640000000  0.4549540000000  0.5701250000000 1.0
C      1  0.4897090000000  0.5394300000000  0.4338590000000 1.0
C      1  0.5181760000000  0.4709110000000  0.4383680000000 1.0
C      1  0.5256480000000  0.5167770000000  0.5823650000000 1.0
C      1  0.4733240000000  0.4769710000000  0.5938310000000 1.0
C      1  0.5278050000000  0.5153390000000  0.4073620000000 1.0
C      1  0.4755500000000  0.4789300000000  0.4123800000000 1.0
C      1  0.4766050000000  0.5221630000000  0.5829790000000 1.0
C      1  0.5238920000000  0.4769650000000  0.5849520000000 1.0
C      1  0.4761490000000  0.5237830000000  0.4116630000000 1.0
C      1  0.5249600000000  0.4821310000000  0.4102080000000 1.0
C      1  0.4667760000000  0.5849310000000  0.5290410000000 1.0
C      1  0.5364140000000  0.4226940000000  0.5314430000000 1.0
C      1  0.4716810000000  0.5790380000000  0.4686480000000 1.0
C      1  0.5339770000000  0.4191970000000  0.4691710000000 1.0
C      1  0.5428440000000  0.5765780000000  0.5275000000000 1.0
C      1  0.4682070000000  0.4111150000000  0.5366390000000 1.0
C      1  0.5411960000000  0.5834950000000  0.4587890000000 1.0
C      1  0.4661050000000  0.4170190000000  0.4715550000000 1.0
C      1  0.4303240000000  0.4774280000000  0.5292010000000 1.0
C      1  0.5545970000000  0.5100120000000  0.5176990000000 1.0
C      1  0.4308200000000  0.4788720000000  0.4785960000000 1.0
C      1  0.5603590000000  0.5207750000000  0.4859400000000 1.0
C      1  0.5496020000000  0.4768430000000  0.5147790000000 1.0
C      1  0.4327560000000  0.5080210000000  0.5223570000000 1.0
C      1  0.5537280000000  0.4897000000000  0.4833540000000 1.0
C      1  0.4358400000000  0.5090530000000  0.4899280000000 1.0
C      1  0.5516100000000  0.4785280000000  0.5750650000000 1.0
C      1  0.4514690000000  0.5129830000000  0.5731400000000 1.0
C      1  0.5516150000000  0.4907810000000  0.4287540000000 1.0
C      1  0.4495570000000  0.5166880000000  0.4205910000000 1.0
C      1  0.4511840000000  0.4855160000000  0.5781250000000 1.0
C      1  0.5493350000000  0.5069830000000  0.5705060000000 1.0
C      1  0.4495230000000  0.4882280000000  0.4218740000000 1.0
C      1  0.5568420000000  0.5198620000000  0.4242410000000 1.0
C      1  0.4554430000000  0.4397140000000  0.5498270000000 1.0
C      1  0.5391370000000  0.5529140000000  0.5499540000000 1.0
C      1  0.4503420000000  0.4454180000000  0.4607900000000 1.0
C      1  0.5365320000000  0.5651020000000  0.4316850000000 1.0
C      1  0.5486200000000  0.4303400000000  0.5623750000000 1.0
C      1  0.4569170000000  0.5552150000000  0.5426690000000 1.0
C      1  0.5454800000000  0.4478230000000  0.4560200000000 1.0
C      1  0.4498500000000  0.5632200000000  0.4485950000000 1.0
C      1  0.4816310000000  0.4375810000000  0.4507340000000 1.0
C      1  0.5089480000000  0.5842950000000  0.4356730000000 1.0
C      1  0.4826870000000  0.4250310000000  0.5637150000000 1.0
C      1  0.5135470000000  0.5757670000000  0.5540490000000 1.0
C      1  0.5139420000000  0.4390940000000  0.4499770000000 1.0
C      1  0.4818020000000  0.5685860000000  0.4382890000000 1.0
C      1  0.5161910000000  0.4276120000000  0.5583650000000 1.0
C      1  0.4816620000000  0.5728700000000  0.5570050000000 1.0
C      1  0.4627740000000  0.5210900000000  0.5167150000000 1.0
C      1  0.5170180000000  0.4746990000000  0.5210680000000 1.0
C      1  0.4681730000000  0.5205020000000  0.4878570000000 1.0
C      1  0.5206950000000  0.4832030000000  0.4882940000000 1.0
C      1  0.5265020000000  0.5240950000000  0.5244590000000 1.0
C      1  0.4619420000000  0.4811410000000  0.5174050000000 1.0
C      1  0.5316690000000  0.5351720000000  0.4802810000000 1.0
C      1  0.4636000000000  0.4810300000000  0.4838630000000 1.0
C      1  0.4220200000000  0.4485700000000  0.5297980000000 1.0
C      1  0.5886580000000  0.5342450000000  0.5503200000000 1.0
C      1  0.4209050000000  0.4533300000000  0.4866700000000 1.0
C      1  0.5675190000000  0.5453390000000  0.4663430000000 1.0
C      1  0.5748460000000  0.4581770000000  0.5364970000000 1.0
C      1  0.4226510000000  0.5460890000000  0.5257290000000 1.0
C      1  0.5801710000000  0.4565330000000  0.4725150000000 1.0
C      1  0.4347730000000  0.5342590000000  0.4709450000000 1.0
C      1  0.4387020000000  0.5338660000000  0.4402830000000 1.0
C      1  0.5593980000000  0.4763380000000  0.4539070000000 1.0
C      1  0.4401510000000  0.5278740000000  0.5489770000000 1.0
C      1  0.5634450000000  0.4551620000000  0.5629740000000 1.0
C      1  0.5595700000000  0.5428840000000  0.4390210000000 1.0
C      1  0.4439600000000  0.4747730000000  0.4496930000000 1.0
C      1  0.5592070000000  0.5261500000000  0.5471750000000 1.0
C      1  0.4495650000000  0.4678880000000  0.5529040000000 1.0
C      1  0.5075440000000  0.5675670000000  0.5040380000000 1.0
C      1  0.5121190000000  0.4459460000000  0.4893310000000 1.0
C      1  0.5201040000000  0.5438600000000  0.5046670000000 1.0
C      1  0.4956380000000  0.4275750000000  0.4963240000000 1.0
C      1  0.4992840000000  0.4989630000000  0.5932660000000 1.0
C      1  0.4976940000000  0.5005600000000  0.4007930000000 1.0
C      1  0.4908210000000  0.4775430000000  0.5012780000000 1.0
END
