TITL C-2782237-5345-191 0.0034940446463247 125000 -555.256425352794 0 0 100 (C1) n - 1
REM
REM in /home/nfs/bkarasulu/CARBON/AIRSS/Generating-Clusters/REBO/Higher-Symm/SD-CG/HFTN-CG
REM
REM
REM
REM
REM
REM ./C.cell (12c818d87b63d06a65506943cc24bca4)
REM
REM compiler GCC version 9.2.1 20190827 (Red Hat 9.2.1-1)
REM options -cpp -mtune=generic -march=x86-64 -g -O0 -fpre-include=/usr/include/finclude/math-vector-fortran.h
REM seed 1649552620 935769681 1566870735 -1864109052 -1626735895 -2088949431 -776814932 -1993435869 -1350257629 -2015983745 -555700156 1710240881 -39757225 1834424416 1042994195 -1670748436 -615931355 -1161241960 1979360238 -1219535926 -1741300822 -1215425792 605355898 -1798026236 1050851941 160281671 -1922114111 -1978102133 -1576499612 839733584 -1383804166 -22290660 1448458040
REM
CELL 1.54180   50.00000   50.00000   50.00000   90.00000   90.00000   90.00000
LATT -1
SFAC C  
C      1  0.5139760000000  0.5683020000000  0.4532870000000 1.0
C      1  0.4549350000000  0.5150890000000  0.5696040000000 1.0
C      1  0.5697340000000  0.4542500000000  0.5148440000000 1.0
C      1  0.4848730000000  0.5687870000000  0.5445570000000 1.0
C      1  0.5138110000000  0.4297510000000  0.5452770000000 1.0
C      1  0.4847680000000  0.4286950000000  0.4556850000000 1.0
C      1  0.5439760000000  0.5143490000000  0.4299530000000 1.0
C      1  0.4534500000000  0.4835930000000  0.4308780000000 1.0
C      1  0.5445370000000  0.4832260000000  0.5687260000000 1.0
C      1  0.4300770000000  0.4534080000000  0.4844930000000 1.0
C      1  0.5694700000000  0.5436980000000  0.4839760000000 1.0
C      1  0.4301160000000  0.5458610000000  0.5145350000000 1.0
C      1  0.4907090000000  0.4170100000000  0.5396200000000 1.0
C      1  0.5366130000000  0.4919550000000  0.4167610000000 1.0
C      1  0.4170740000000  0.5389570000000  0.4919240000000 1.0
C      1  0.5069200000000  0.4153450000000  0.4632790000000 1.0
C      1  0.4911110000000  0.5812560000000  0.4594420000000 1.0
C      1  0.5074470000000  0.5818080000000  0.5374400000000 1.0
C      1  0.4632860000000  0.4933380000000  0.5831600000000 1.0
C      1  0.5373780000000  0.5055960000000  0.5820730000000 1.0
C      1  0.4598030000000  0.5062730000000  0.4176930000000 1.0
C      1  0.5830530000000  0.5354580000000  0.5057560000000 1.0
C      1  0.4166000000000  0.4612890000000  0.5065570000000 1.0
C      1  0.5833100000000  0.4626560000000  0.4931220000000 1.0
C      1  0.5397490000000  0.5118240000000  0.5303620000000 1.0
C      1  0.5309990000000  0.5389790000000  0.5125520000000 1.0
C      1  0.5127120000000  0.5299670000000  0.5391490000000 1.0
C      1  0.4598880000000  0.5115770000000  0.4691140000000 1.0
C      1  0.5396730000000  0.4860140000000  0.4685850000000 1.0
C      1  0.4595680000000  0.4867890000000  0.5307520000000 1.0
C      1  0.4680760000000  0.5391180000000  0.4864890000000 1.0
C      1  0.5313120000000  0.4584930000000  0.4862110000000 1.0
C      1  0.4678040000000  0.4592850000000  0.5133510000000 1.0
C      1  0.4862580000000  0.5299520000000  0.4598610000000 1.0
C      1  0.5127960000000  0.4677430000000  0.4599200000000 1.0
C      1  0.4863810000000  0.4686150000000  0.5397180000000 1.0
C      1  0.5304680000000  0.3952740000000  0.4694930000000 1.0
C      1  0.4648110000000  0.5302900000000  0.3978560000000 1.0
C      1  0.3965520000000  0.4679890000000  0.5299600000000 1.0
C      1  0.4661690000000  0.3976090000000  0.5354500000000 1.0
C      1  0.5313320000000  0.6016290000000  0.5317440000000 1.0
C      1  0.4668260000000  0.6008330000000  0.4641850000000 1.0
C      1  0.5314860000000  0.5292670000000  0.6020740000000 1.0
C      1  0.4705000000000  0.4701540000000  0.6032960000000 1.0
C      1  0.5304960000000  0.4682960000000  0.3968020000000 1.0
C      1  0.6033300000000  0.4699880000000  0.4698810000000 1.0
C      1  0.3976790000000  0.5331590000000  0.4677480000000 1.0
C      1  0.6032070000000  0.5284030000000  0.5289730000000 1.0
C      1  0.5778670000000  0.4377030000000  0.5358520000000 1.0
C      1  0.5372770000000  0.5782620000000  0.4416300000000 1.0
C      1  0.4386480000000  0.5362120000000  0.5779460000000 1.0
C      1  0.4201530000000  0.4391550000000  0.4630730000000 1.0
C      1  0.5776930000000  0.5600390000000  0.4628480000000 1.0
C      1  0.4202570000000  0.5577200000000  0.5377770000000 1.0
C      1  0.4633220000000  0.5792300000000  0.5582510000000 1.0
C      1  0.5371530000000  0.4195630000000  0.5566500000000 1.0
C      1  0.4634940000000  0.4201700000000  0.4396790000000 1.0
C      1  0.5574950000000  0.5360400000000  0.4195720000000 1.0
C      1  0.4418150000000  0.4601860000000  0.4211320000000 1.0
C      1  0.5580740000000  0.4614360000000  0.5788620000000 1.0
C      1  0.4304770000000  0.4787510000000  0.5317320000000 1.0
C      1  0.5329260000000  0.4294570000000  0.4791480000000 1.0
C      1  0.4773660000000  0.5316800000000  0.4311370000000 1.0
C      1  0.5689700000000  0.4791770000000  0.4676360000000 1.0
C      1  0.4310800000000  0.5207450000000  0.4672990000000 1.0
C      1  0.5689510000000  0.5189150000000  0.5313710000000 1.0
C      1  0.4651620000000  0.4308170000000  0.5226580000000 1.0
C      1  0.5329610000000  0.5678420000000  0.5206210000000 1.0
C      1  0.4658440000000  0.5676530000000  0.4770560000000 1.0
C      1  0.5207340000000  0.5312360000000  0.5681590000000 1.0
C      1  0.4797680000000  0.4677320000000  0.5689850000000 1.0
C      1  0.5201240000000  0.4662920000000  0.4308170000000 1.0
C      1  0.5565030000000  0.4054390000000  0.4843340000000 1.0
C      1  0.4810120000000  0.5557660000000  0.4073370000000 1.0
C      1  0.4064330000000  0.4842840000000  0.5552070000000 1.0
C      1  0.4404350000000  0.4075590000000  0.5199440000000 1.0
C      1  0.5569620000000  0.5915810000000  0.5161400000000 1.0
C      1  0.4413930000000  0.5911320000000  0.4803210000000 1.0
C      1  0.5160250000000  0.5550000000000  0.5920910000000 1.0
C      1  0.4860920000000  0.4445700000000  0.5931370000000 1.0
C      1  0.5150750000000  0.4425790000000  0.4069030000000 1.0
C      1  0.5929980000000  0.4855740000000  0.4443680000000 1.0
C      1  0.4077150000000  0.5163250000000  0.4429200000000 1.0
C      1  0.5930990000000  0.5128640000000  0.5546090000000 1.0
C      1  0.5402310000000  0.4621570000000  0.5146700000000 1.0
C      1  0.5144970000000  0.5393790000000  0.4627920000000 1.0
C      1  0.4628140000000  0.5150100000000  0.5401420000000 1.0
C      1  0.4591670000000  0.4618900000000  0.4847820000000 1.0
C      1  0.5399920000000  0.5357370000000  0.4841290000000 1.0
C      1  0.4590800000000  0.5365680000000  0.5149070000000 1.0
C      1  0.4844970000000  0.5396910000000  0.5360010000000 1.0
C      1  0.5145290000000  0.4587410000000  0.5358190000000 1.0
C      1  0.4845580000000  0.4582110000000  0.4637220000000 1.0
C      1  0.5359030000000  0.5143260000000  0.4591930000000 1.0
C      1  0.4628160000000  0.4833620000000  0.4598270000000 1.0
C      1  0.5361920000000  0.4834880000000  0.5396060000000 1.0
C      1  0.4451490000000  0.4334150000000  0.4245240000000 1.0
C      1  0.5641060000000  0.5751740000000  0.4447390000000 1.0
C      1  0.5640100000000  0.4224860000000  0.5536920000000 1.0
C      1  0.4234950000000  0.5544730000000  0.5645820000000 1.0
END
