TITL C-2782233-7966-402 -0.000846704506219744 125000 -498.535864448043 0 0 88 (C1) n - 1
REM
REM in /home/nfs/bkarasulu/CARBON/AIRSS/Generating-Clusters/REBO/Higher-Symm/SD-CG/HFTN-CG
REM
REM
REM
REM
REM
REM ./C.cell (12c818d87b63d06a65506943cc24bca4)
REM
REM compiler GCC version 9.2.1 20190827 (Red Hat 9.2.1-1)
REM options -cpp -mtune=generic -march=x86-64 -g -O0 -fpre-include=/usr/include/finclude/math-vector-fortran.h
REM seed 450139010 -1099482155 2136264927 -1556848261 -1981752407 -1454444228 -1635158682 -1112066332 -364585939 -581539028 1780919740 -1427649264 684495001 2039169816 -1918808062 -783726163 2048595998 1981551294 1699988029 197402456 -300224394 -1737896479 -1735974745 1882863078 2053409894 1263978089 -131772037 -854592887 1452904450 -55824424 1606617002 360706818 -1774208592
REM
CELL 1.54180   50.00000   50.00000   50.00000   90.00000   90.00000   90.00000
LATT -1
SFAC C  
C      1  0.5114790000000  0.5149440000000  0.5623880000000 1.0
C      1  0.4448830000000  0.5125980000000  0.5326180000000 1.0
C      1  0.4422560000000  0.5112420000000  0.4626290000000 1.0
C      1  0.5277230000000  0.5130160000000  0.4388270000000 1.0
C      1  0.5698080000000  0.5126070000000  0.5026440000000 1.0
C      1  0.4836550000000  0.4850950000000  0.5619270000000 1.0
C      1  0.5578190000000  0.4852270000000  0.5390040000000 1.0
C      1  0.5475600000000  0.4854940000000  0.4619220000000 1.0
C      1  0.4820540000000  0.4845560000000  0.4358770000000 1.0
C      1  0.4354440000000  0.4845000000000  0.5045430000000 1.0
C      1  0.5556870000000  0.5452390000000  0.5454020000000 1.0
C      1  0.4691650000000  0.5372980000000  0.5693190000000 1.0
C      1  0.4266020000000  0.5456530000000  0.4977610000000 1.0
C      1  0.4806260000000  0.5459730000000  0.4304550000000 1.0
C      1  0.5638860000000  0.5449760000000  0.4655690000000 1.0
C      1  0.4468620000000  0.4528710000000  0.5469240000000 1.0
C      1  0.5277310000000  0.4531490000000  0.5664390000000 1.0
C      1  0.5728030000000  0.4517870000000  0.4959070000000 1.0
C      1  0.5216280000000  0.4497470000000  0.4345170000000 1.0
C      1  0.4395580000000  0.4496680000000  0.4643770000000 1.0
C      1  0.5112740000000  0.4802240000000  0.5426130000000 1.0
C      1  0.4640610000000  0.4790590000000  0.5224360000000 1.0
C      1  0.4721000000000  0.4720590000000  0.4659410000000 1.0
C      1  0.5137650000000  0.4796670000000  0.4596030000000 1.0
C      1  0.5424330000000  0.4717000000000  0.5113890000000 1.0
C      1  0.4922150000000  0.5210870000000  0.5413730000000 1.0
C      1  0.5403600000000  0.5256360000000  0.5145540000000 1.0
C      1  0.5327080000000  0.5210460000000  0.4718470000000 1.0
C      1  0.4734600000000  0.5251860000000  0.4630370000000 1.0
C      1  0.4556990000000  0.5187050000000  0.5010090000000 1.0
C      1  0.5229370000000  0.4823690000000  0.4280410000000 1.0
C      1  0.5714430000000  0.4851240000000  0.5001140000000 1.0
C      1  0.5214100000000  0.4856090000000  0.5739720000000 1.0
C      1  0.4394110000000  0.4845890000000  0.5441900000000 1.0
C      1  0.4408730000000  0.4835400000000  0.4630430000000 1.0
C      1  0.4815630000000  0.5121170000000  0.4336680000000 1.0
C      1  0.4232280000000  0.5123220000000  0.4992100000000 1.0
C      1  0.4739130000000  0.5085100000000  0.5745720000000 1.0
C      1  0.5574070000000  0.5130100000000  0.5416600000000 1.0
C      1  0.5591380000000  0.5154490000000  0.4505540000000 1.0
C      1  0.5599980000000  0.4373280000000  0.5213380000000 1.0
C      1  0.5008200000000  0.4386500000000  0.5616990000000 1.0
C      1  0.4404490000000  0.4381730000000  0.5212760000000 1.0
C      1  0.4636810000000  0.4370760000000  0.4489100000000 1.0
C      1  0.5424900000000  0.4390680000000  0.4543150000000 1.0
C      1  0.4378630000000  0.5575450000000  0.5226980000000 1.0
C      1  0.4954950000000  0.5514090000000  0.5671280000000 1.0
C      1  0.5604660000000  0.5597640000000  0.5188240000000 1.0
C      1  0.5397460000000  0.5530950000000  0.4489800000000 1.0
C      1  0.4588490000000  0.5594080000000  0.4491010000000 1.0
C      1  0.4602940000000  0.5704700000000  0.4790770000000 1.0
C      1  0.5090100000000  0.5634030000000  0.4520680000000 1.0
C      1  0.5436540000000  0.5709080000000  0.4938200000000 1.0
C      1  0.5183920000000  0.5644990000000  0.5466700000000 1.0
C      1  0.4649400000000  0.5698060000000  0.5296050000000 1.0
C      1  0.5326550000000  0.4223460000000  0.4766400000000 1.0
C      1  0.4901660000000  0.4232520000000  0.4579750000000 1.0
C      1  0.4567860000000  0.4248710000000  0.4989190000000 1.0
C      1  0.4838540000000  0.4268800000000  0.5379180000000 1.0
C      1  0.5305820000000  0.4278130000000  0.5303280000000 1.0
C      1  0.5143620000000  0.5404770000000  0.4286650000000 1.0
C      1  0.5705730000000  0.5416380000000  0.4939280000000 1.0
C      1  0.5294680000000  0.5412250000000  0.5670820000000 1.0
C      1  0.4479620000000  0.5385240000000  0.5476060000000 1.0
C      1  0.4369830000000  0.5407940000000  0.4674500000000 1.0
C      1  0.4889450000000  0.4546890000000  0.4342870000000 1.0
C      1  0.4322940000000  0.4561250000000  0.4955760000000 1.0
C      1  0.4738120000000  0.4568940000000  0.5619340000000 1.0
C      1  0.5522460000000  0.4563890000000  0.5469930000000 1.0
C      1  0.5610780000000  0.4582970000000  0.4660280000000 1.0
C      1  0.4889230000000  0.5482500000000  0.5259130000000 1.0
C      1  0.4709990000000  0.5450270000000  0.4990120000000 1.0
C      1  0.4928820000000  0.5488940000000  0.4745680000000 1.0
C      1  0.5227660000000  0.5461200000000  0.4851430000000 1.0
C      1  0.5199130000000  0.5505920000000  0.5178710000000 1.0
C      1  0.5096520000000  0.4543460000000  0.5259890000000 1.0
C      1  0.5260150000000  0.4476950000000  0.4968230000000 1.0
C      1  0.5058690000000  0.4514690000000  0.4711820000000 1.0
C      1  0.4763500000000  0.4474150000000  0.4857930000000 1.0
C      1  0.4784240000000  0.4529740000000  0.5169150000000 1.0
C      1  0.5231940000000  0.5012770000000  0.5266760000000 1.0
C      1  0.4838250000000  0.5009610000000  0.5226220000000 1.0
C      1  0.5340270000000  0.4945710000000  0.4903820000000 1.0
C      1  0.4975680000000  0.5023350000000  0.4698080000000 1.0
C      1  0.4697260000000  0.4957580000000  0.4874060000000 1.0
C      1  0.5105020000000  0.4062720000000  0.4695850000000 1.0
C      1  0.5459810000000  0.5952690000000  0.4813950000000 1.0
C      1  0.5054570000000  0.5078840000000  0.4996270000000 1.0
END
