TITL C-2782236-320-761 0.228469434927924 125000 -910.231464369804 0 0 157 (C1) n - 1
REM
REM in /home/nfs/bkarasulu/CARBON/AIRSS/Generating-Clusters/REBO/Higher-Symm/SD-CG/HFTN-CG
REM
REM
REM
REM
REM
REM ./C.cell (12c818d87b63d06a65506943cc24bca4)
REM
REM compiler GCC version 9.2.1 20190827 (Red Hat 9.2.1-1)
REM options -cpp -mtune=generic -march=x86-64 -g -O0 -fpre-include=/usr/include/finclude/math-vector-fortran.h
REM seed -330880801 -1113584877 -16632701 -1526971385 -1316301002 1436307117 -739498262 -2043381389 -1583811190 -1205895541 -1112468927 1947226701 -2112495340 108674186 1741382646 790778650 813381068 286632299 -1726886618 1639055642 800524728 -1638364255 923996004 -1203652360 -1797008111 306480692 -1144532311 830414856 543829410 707445280 2043903284 -1783939087 611021687
REM
CELL 1.54180   50.00000   50.00000   50.00000   90.00000   90.00000   90.00000
LATT -1
SFAC C  
C      1  0.5774840000000  0.5277790000000  0.4857050000000 1.0
C      1  0.5535220000000  0.5221720000000  0.4302870000000 1.0
C      1  0.4673580000000  0.4913370000000  0.6009080000000 1.0
C      1  0.4768230000000  0.5948900000000  0.4878690000000 1.0
C      1  0.4627040000000  0.4814400000000  0.5687690000000 1.0
C      1  0.4238250000000  0.5563800000000  0.4521880000000 1.0
C      1  0.4775520000000  0.5032480000000  0.4112350000000 1.0
C      1  0.4904900000000  0.4718390000000  0.4180180000000 1.0
C      1  0.5160940000000  0.4936510000000  0.5298430000000 1.0
C      1  0.4460890000000  0.4749520000000  0.4558790000000 1.0
C      1  0.5542930000000  0.5266090000000  0.5094760000000 1.0
C      1  0.6155850000000  0.4952570000000  0.5026650000000 1.0
C      1  0.5263800000000  0.4819700000000  0.4547050000000 1.0
C      1  0.4279910000000  0.4478200000000  0.4389250000000 1.0
C      1  0.5047880000000  0.5541900000000  0.4217210000000 1.0
C      1  0.4633460000000  0.5682620000000  0.5671030000000 1.0
C      1  0.4132670000000  0.4356020000000  0.5042770000000 1.0
C      1  0.4365650000000  0.5571940000000  0.5516070000000 1.0
C      1  0.4206680000000  0.4949430000000  0.4490340000000 1.0
C      1  0.5094370000000  0.5989870000000  0.4942780000000 1.0
C      1  0.5927950000000  0.4712900000000  0.5250020000000 1.0
C      1  0.4392120000000  0.5684460000000  0.5195710000000 1.0
C      1  0.4139580000000  0.5363180000000  0.5406500000000 1.0
C      1  0.4295590000000  0.5128940000000  0.4276470000000 1.0
C      1  0.4440160000000  0.4731060000000  0.4879090000000 1.0
C      1  0.4765920000000  0.4392660000000  0.5529340000000 1.0
C      1  0.5594420000000  0.5079640000000  0.5547310000000 1.0
C      1  0.4281660000000  0.5217490000000  0.5091370000000 1.0
C      1  0.5215500000000  0.5662240000000  0.4596860000000 1.0
C      1  0.5338070000000  0.5388950000000  0.5824870000000 1.0
C      1  0.5666680000000  0.5801380000000  0.5109090000000 1.0
C      1  0.4910790000000  0.4923630000000  0.5528430000000 1.0
C      1  0.4872910000000  0.4480670000000  0.4768040000000 1.0
C      1  0.4046720000000  0.4635150000000  0.5128840000000 1.0
C      1  0.5639220000000  0.5522060000000  0.5592480000000 1.0
C      1  0.6049650000000  0.5448810000000  0.5090370000000 1.0
C      1  0.5108320000000  0.4226460000000  0.5212780000000 1.0
C      1  0.5854860000000  0.4452030000000  0.4751750000000 1.0
C      1  0.5863540000000  0.5642080000000  0.4993250000000 1.0
C      1  0.5220260000000  0.5339620000000  0.4667300000000 1.0
C      1  0.4700740000000  0.5402040000000  0.4152460000000 1.0
C      1  0.5772470000000  0.5030270000000  0.4244680000000 1.0
C      1  0.5046520000000  0.4560690000000  0.5437700000000 1.0
C      1  0.4980810000000  0.5854840000000  0.5236720000000 1.0
C      1  0.4947120000000  0.4808520000000  0.4983130000000 1.0
C      1  0.5025690000000  0.5462520000000  0.5793140000000 1.0
C      1  0.5664570000000  0.4783830000000  0.5806130000000 1.0
C      1  0.5392530000000  0.5112190000000  0.4562220000000 1.0
C      1  0.4472800000000  0.5693880000000  0.4714740000000 1.0
C      1  0.4202320000000  0.4929580000000  0.5180910000000 1.0
C      1  0.4966160000000  0.4853400000000  0.4662490000000 1.0
C      1  0.4637610000000  0.4504450000000  0.4995980000000 1.0
C      1  0.4668870000000  0.4004020000000  0.4753370000000 1.0
C      1  0.5368650000000  0.4733810000000  0.5832670000000 1.0
C      1  0.5381930000000  0.5830290000000  0.4959300000000 1.0
C      1  0.4531250000000  0.4829510000000  0.4078450000000 1.0
C      1  0.4816090000000  0.5621750000000  0.4959460000000 1.0
C      1  0.5590530000000  0.4486460000000  0.4962060000000 1.0
C      1  0.5243200000000  0.4388750000000  0.4422680000000 1.0
C      1  0.5450440000000  0.4224790000000  0.5230150000000 1.0
C      1  0.4655680000000  0.4097830000000  0.5463410000000 1.0
C      1  0.4215790000000  0.4227840000000  0.5285790000000 1.0
C      1  0.4466610000000  0.4103650000000  0.5259430000000 1.0
C      1  0.5589500000000  0.5538450000000  0.4417320000000 1.0
C      1  0.5246480000000  0.5338640000000  0.4977200000000 1.0
C      1  0.4947460000000  0.5383100000000  0.4502460000000 1.0
C      1  0.5827930000000  0.4840660000000  0.4677260000000 1.0
C      1  0.4744670000000  0.4719960000000  0.4472240000000 1.0
C      1  0.5275290000000  0.5398880000000  0.5488190000000 1.0
C      1  0.4504220000000  0.6073280000000  0.4950360000000 1.0
C      1  0.4672190000000  0.5755100000000  0.5336800000000 1.0
C      1  0.5965070000000  0.5031420000000  0.4458690000000 1.0
C      1  0.4499500000000  0.5298440000000  0.4382450000000 1.0
C      1  0.4706880000000  0.5453580000000  0.5912680000000 1.0
C      1  0.5269270000000  0.4416740000000  0.4904500000000 1.0
C      1  0.4749420000000  0.5585190000000  0.4649090000000 1.0
C      1  0.4162040000000  0.5793130000000  0.4761360000000 1.0
C      1  0.5275070000000  0.5075040000000  0.5587470000000 1.0
C      1  0.4161590000000  0.4399660000000  0.5507460000000 1.0
C      1  0.5422680000000  0.4618260000000  0.4694570000000 1.0
C      1  0.3945310000000  0.4916510000000  0.4960450000000 1.0
C      1  0.4382860000000  0.4255980000000  0.4566140000000 1.0
C      1  0.4545250000000  0.4873880000000  0.5377080000000 1.0
C      1  0.4851690000000  0.4642930000000  0.5969620000000 1.0
C      1  0.4297090000000  0.5899690000000  0.5008160000000 1.0
C      1  0.4988510000000  0.5133380000000  0.4998880000000 1.0
C      1  0.4167370000000  0.4714960000000  0.5443260000000 1.0
C      1  0.5689070000000  0.5311110000000  0.5371620000000 1.0
C      1  0.4963770000000  0.5289880000000  0.3994970000000 1.0
C      1  0.6152410000000  0.5192840000000  0.4571080000000 1.0
C      1  0.4603220000000  0.4189250000000  0.5009330000000 1.0
C      1  0.4489690000000  0.4585130000000  0.4195530000000 1.0
C      1  0.4828200000000  0.5465710000000  0.5397590000000 1.0
C      1  0.4533170000000  0.5436410000000  0.5012960000000 1.0
C      1  0.4951220000000  0.4050080000000  0.5446460000000 1.0
C      1  0.4906930000000  0.4059450000000  0.4994610000000 1.0
C      1  0.5410760000000  0.5698670000000  0.5512380000000 1.0
C      1  0.4671300000000  0.4587390000000  0.5295010000000 1.0
C      1  0.5049090000000  0.5254750000000  0.5311490000000 1.0
C      1  0.5137610000000  0.5611450000000  0.5053600000000 1.0
C      1  0.4774430000000  0.5193270000000  0.4808850000000 1.0
C      1  0.4390660000000  0.5048310000000  0.5898250000000 1.0
C      1  0.5101820000000  0.4210800000000  0.5647020000000 1.0
C      1  0.5427960000000  0.4945280000000  0.5087320000000 1.0
C      1  0.5056440000000  0.4727080000000  0.5740740000000 1.0
C      1  0.4281240000000  0.4874880000000  0.5672490000000 1.0
C      1  0.5370610000000  0.4617320000000  0.5527070000000 1.0
C      1  0.5997410000000  0.4701890000000  0.4917950000000 1.0
C      1  0.4836140000000  0.5741460000000  0.4368560000000 1.0
C      1  0.5485270000000  0.4083750000000  0.4949160000000 1.0
C      1  0.5553250000000  0.4364090000000  0.4507780000000 1.0
C      1  0.5741680000000  0.5076960000000  0.5836580000000 1.0
C      1  0.5191140000000  0.4101040000000  0.4842540000000 1.0
C      1  0.5648020000000  0.5364300000000  0.5857060000000 1.0
C      1  0.4252920000000  0.4255590000000  0.4806690000000 1.0
C      1  0.4169280000000  0.5254820000000  0.4633810000000 1.0
C      1  0.4961100000000  0.4037640000000  0.4600290000000 1.0
C      1  0.4652620000000  0.4916160000000  0.5070210000000 1.0
C      1  0.5166910000000  0.5107270000000  0.5905050000000 1.0
C      1  0.4661690000000  0.5220020000000  0.5227380000000 1.0
C      1  0.5538030000000  0.4824170000000  0.5361770000000 1.0
C      1  0.4898490000000  0.4373710000000  0.5828920000000 1.0
C      1  0.4123450000000  0.4764340000000  0.4759120000000 1.0
C      1  0.5155260000000  0.5036280000000  0.4231630000000 1.0
C      1  0.5588990000000  0.5010010000000  0.4793930000000 1.0
C      1  0.5768970000000  0.4641160000000  0.5541510000000 1.0
C      1  0.5061880000000  0.4553830000000  0.5112630000000 1.0
C      1  0.4869340000000  0.5195920000000  0.5662310000000 1.0
C      1  0.3954170000000  0.5218270000000  0.4867300000000 1.0
C      1  0.6072420000000  0.5015160000000  0.5309170000000 1.0
C      1  0.5341880000000  0.4307740000000  0.5526600000000 1.0
C      1  0.4992550000000  0.5898320000000  0.4627830000000 1.0
C      1  0.4515670000000  0.5627910000000  0.4327640000000 1.0
C      1  0.5760430000000  0.5553730000000  0.4700580000000 1.0
C      1  0.5686510000000  0.4469000000000  0.5259190000000 1.0
C      1  0.4683150000000  0.4184130000000  0.4464120000000 1.0
C      1  0.4502130000000  0.5279900000000  0.4707450000000 1.0
C      1  0.5219720000000  0.4731520000000  0.4222130000000 1.0
C      1  0.5477040000000  0.4671500000000  0.4075910000000 1.0
C      1  0.4423190000000  0.5180700000000  0.5461450000000 1.0
C      1  0.5187170000000  0.5878210000000  0.5490280000000 1.0
C      1  0.5705740000000  0.4753510000000  0.4199420000000 1.0
C      1  0.5508210000000  0.5757730000000  0.4666820000000 1.0
C      1  0.4956800000000  0.5710230000000  0.5608650000000 1.0
C      1  0.6109000000000  0.5217660000000  0.4875640000000 1.0
C      1  0.5768680000000  0.4602340000000  0.4455930000000 1.0
C      1  0.4759730000000  0.4429530000000  0.4293210000000 1.0
C      1  0.4035670000000  0.4591110000000  0.4528210000000 1.0
C      1  0.5982680000000  0.5286520000000  0.5321250000000 1.0
C      1  0.4908750000000  0.5087660000000  0.4427490000000 1.0
C      1  0.5025540000000  0.4351930000000  0.4581290000000 1.0
C      1  0.5295950000000  0.5268690000000  0.4064890000000 1.0
C      1  0.5674370000000  0.4167500000000  0.4737980000000 1.0
C      1  0.5369190000000  0.5566500000000  0.4194130000000 1.0
C      1  0.4001750000000  0.5392920000000  0.5115390000000 1.0
C      1  0.4862060000000  0.5163850000000  0.6001450000000 1.0
C      1  0.4446190000000  0.5342370000000  0.5759790000000 1.0
END
