TITL C-2782234-8014-1367 0.00109835307265191 125000 -872.973623237864 0 0 150 (C1) n - 1
REM
REM in /home/nfs/bkarasulu/CARBON/AIRSS/Generating-Clusters/REBO/Higher-Symm/SD-CG/HFTN-CG
REM
REM
REM
REM
REM
REM ./C.cell (12c818d87b63d06a65506943cc24bca4)
REM
REM compiler GCC version 9.2.1 20190827 (Red Hat 9.2.1-1)
REM options -cpp -mtune=generic -march=x86-64 -g -O0 -fpre-include=/usr/include/finclude/math-vector-fortran.h
REM seed 1399309101 -743053521 -1451363127 -1191610037 -913283386 -670898042 890804869 178816111 1723765606 1954919679 1072418845 164779156 -262885317 -1691249133 -1359694080 -748835300 -255156713 -2010637728 685471027 1203301633 1872453241 1513296248 955405894 1493089641 1951540543 -47400527 229740001 -198249067 -2133020021 1180630587 237107561 551761545 -1887503470
REM
CELL 1.54180   50.00000   50.00000   50.00000   90.00000   90.00000   90.00000
LATT -1
SFAC C  
C      1  0.4227150000000  0.4332620000000  0.5160190000000 1.0
C      1  0.4043200000000  0.5407910000000  0.5181530000000 1.0
C      1  0.4939090000000  0.6104900000000  0.5232620000000 1.0
C      1  0.5872650000000  0.5641580000000  0.5107530000000 1.0
C      1  0.5933310000000  0.4588430000000  0.5167160000000 1.0
C      1  0.5064550000000  0.3983490000000  0.5270840000000 1.0
C      1  0.4853250000000  0.4151060000000  0.5669440000000 1.0
C      1  0.4288640000000  0.4536980000000  0.5564680000000 1.0
C      1  0.4276230000000  0.5473480000000  0.5598670000000 1.0
C      1  0.5017310000000  0.5862530000000  0.5652200000000 1.0
C      1  0.5853350000000  0.5353720000000  0.5528400000000 1.0
C      1  0.5704380000000  0.4516450000000  0.5580320000000 1.0
C      1  0.5955430000000  0.5097590000000  0.5182630000000 1.0
C      1  0.5532150000000  0.4201650000000  0.5171950000000 1.0
C      1  0.4620690000000  0.3991100000000  0.5207260000000 1.0
C      1  0.4049500000000  0.4892630000000  0.5183570000000 1.0
C      1  0.4464850000000  0.5811490000000  0.5161730000000 1.0
C      1  0.5420990000000  0.5878600000000  0.5217260000000 1.0
C      1  0.4928990000000  0.4286300000000  0.4813210000000 1.0
C      1  0.4346700000000  0.4740180000000  0.4844270000000 1.0
C      1  0.4377930000000  0.5469390000000  0.4805990000000 1.0
C      1  0.5081170000000  0.5727930000000  0.4829360000000 1.0
C      1  0.5635680000000  0.5262880000000  0.4859670000000 1.0
C      1  0.5638220000000  0.4513780000000  0.4774920000000 1.0
C      1  0.5100120000000  0.6041800000000  0.4741750000000 1.0
C      1  0.5775960000000  0.5437320000000  0.4635330000000 1.0
C      1  0.5894340000000  0.4605740000000  0.4691230000000 1.0
C      1  0.4938740000000  0.3961180000000  0.4745410000000 1.0
C      1  0.4210300000000  0.4566100000000  0.4615140000000 1.0
C      1  0.4105160000000  0.5388410000000  0.4707390000000 1.0
C      1  0.5304820000000  0.5048250000000  0.4800530000000 1.0
C      1  0.5196740000000  0.4774090000000  0.4787390000000 1.0
C      1  0.4900360000000  0.4718650000000  0.4780810000000 1.0
C      1  0.4687960000000  0.4942440000000  0.4793330000000 1.0
C      1  0.4806510000000  0.5215120000000  0.4782710000000 1.0
C      1  0.5097730000000  0.5271350000000  0.4788120000000 1.0
C      1  0.5124730000000  0.5841870000000  0.5147240000000 1.0
C      1  0.5763870000000  0.5336450000000  0.5139050000000 1.0
C      1  0.5649100000000  0.4462870000000  0.5080950000000 1.0
C      1  0.4853930000000  0.4200870000000  0.5125900000000 1.0
C      1  0.4233500000000  0.4646460000000  0.5122500000000 1.0
C      1  0.4311710000000  0.5566250000000  0.5101090000000 1.0
C      1  0.5257880000000  0.4440320000000  0.4167850000000 1.0
C      1  0.4685550000000  0.4456070000000  0.4106600000000 1.0
C      1  0.4357180000000  0.5006660000000  0.4103790000000 1.0
C      1  0.4743600000000  0.5559120000000  0.4176490000000 1.0
C      1  0.5320500000000  0.5534860000000  0.4116020000000 1.0
C      1  0.5642620000000  0.5006080000000  0.4106540000000 1.0
C      1  0.4646980000000  0.5752150000000  0.5410920000000 1.0
C      1  0.5493400000000  0.5673420000000  0.5443820000000 1.0
C      1  0.5890450000000  0.4975500000000  0.5492160000000 1.0
C      1  0.5318500000000  0.4262560000000  0.5403580000000 1.0
C      1  0.4572320000000  0.4160480000000  0.5482370000000 1.0
C      1  0.4122980000000  0.5007230000000  0.5495760000000 1.0
C      1  0.5656230000000  0.4942610000000  0.5251170000000 1.0
C      1  0.5202990000000  0.4346420000000  0.5002800000000 1.0
C      1  0.4576960000000  0.4468640000000  0.5024390000000 1.0
C      1  0.4327950000000  0.5083750000000  0.5242980000000 1.0
C      1  0.4807070000000  0.5668080000000  0.4984560000000 1.0
C      1  0.5403530000000  0.5586540000000  0.5018970000000 1.0
C      1  0.5442490000000  0.5252300000000  0.5750730000000 1.0
C      1  0.5421820000000  0.4765940000000  0.5704950000000 1.0
C      1  0.5009140000000  0.4514060000000  0.5725300000000 1.0
C      1  0.4567720000000  0.4746580000000  0.5751500000000 1.0
C      1  0.4572540000000  0.5242340000000  0.5730470000000 1.0
C      1  0.5007570000000  0.5472610000000  0.5719470000000 1.0
C      1  0.4840270000000  0.4467440000000  0.4578600000000 1.0
C      1  0.4458160000000  0.4875290000000  0.4566380000000 1.0
C      1  0.4621690000000  0.5429120000000  0.4593740000000 1.0
C      1  0.5154670000000  0.5533270000000  0.4593730000000 1.0
C      1  0.5538470000000  0.5121400000000  0.4576860000000 1.0
C      1  0.5386200000000  0.4572610000000  0.4608740000000 1.0
C      1  0.4724560000000  0.5223250000000  0.5269100000000 1.0
C      1  0.5010210000000  0.5357230000000  0.5310040000000 1.0
C      1  0.5273310000000  0.5160940000000  0.5341850000000 1.0
C      1  0.5258850000000  0.4831510000000  0.5309490000000 1.0
C      1  0.4961400000000  0.4699650000000  0.5321870000000 1.0
C      1  0.4698930000000  0.4890010000000  0.5331460000000 1.0
C      1  0.5294820000000  0.4299930000000  0.4453200000000 1.0
C      1  0.4626040000000  0.4332200000000  0.4397110000000 1.0
C      1  0.4225640000000  0.4980360000000  0.4390340000000 1.0
C      1  0.4708810000000  0.5713780000000  0.4459160000000 1.0
C      1  0.5365270000000  0.5655510000000  0.4402920000000 1.0
C      1  0.5771980000000  0.5028720000000  0.4393540000000 1.0
C      1  0.5309630000000  0.4838900000000  0.4411100000000 1.0
C      1  0.5033870000000  0.4666740000000  0.4409100000000 1.0
C      1  0.4744870000000  0.4830560000000  0.4414530000000 1.0
C      1  0.4690620000000  0.5157290000000  0.4406410000000 1.0
C      1  0.4965970000000  0.5330300000000  0.4416710000000 1.0
C      1  0.5252350000000  0.5165100000000  0.4422700000000 1.0
C      1  0.5004750000000  0.4382090000000  0.5344800000000 1.0
C      1  0.4411540000000  0.4720360000000  0.5384250000000 1.0
C      1  0.4430880000000  0.5366970000000  0.5314960000000 1.0
C      1  0.4977860000000  0.5666190000000  0.5371420000000 1.0
C      1  0.5541830000000  0.5339950000000  0.5373700000000 1.0
C      1  0.5547080000000  0.4657130000000  0.5312710000000 1.0
C      1  0.5666930000000  0.5753010000000  0.4934980000000 1.0
C      1  0.6039990000000  0.4703470000000  0.4922970000000 1.0
C      1  0.5159690000000  0.4000970000000  0.4968580000000 1.0
C      1  0.4422230000000  0.4222800000000  0.4963050000000 1.0
C      1  0.3953550000000  0.5290090000000  0.4931280000000 1.0
C      1  0.4840180000000  0.6024980000000  0.4943170000000 1.0
C      1  0.4716620000000  0.5488850000000  0.5615220000000 1.0
C      1  0.5298110000000  0.5499690000000  0.5643540000000 1.0
C      1  0.5590230000000  0.5013280000000  0.5639250000000 1.0
C      1  0.5276260000000  0.4520780000000  0.5601660000000 1.0
C      1  0.4686340000000  0.4446670000000  0.5641430000000 1.0
C      1  0.4405040000000  0.4990960000000  0.5672390000000 1.0
C      1  0.5348100000000  0.4965010000000  0.4093640000000 1.0
C      1  0.5134300000000  0.4707210000000  0.4080180000000 1.0
C      1  0.4801930000000  0.4729850000000  0.4092950000000 1.0
C      1  0.4655080000000  0.5036450000000  0.4087260000000 1.0
C      1  0.4870940000000  0.5296640000000  0.4082480000000 1.0
C      1  0.5197410000000  0.5265770000000  0.4100440000000 1.0
C      1  0.5400860000000  0.5962040000000  0.4884070000000 1.0
C      1  0.6050130000000  0.4989530000000  0.4914020000000 1.0
C      1  0.5461190000000  0.4053280000000  0.4925820000000 1.0
C      1  0.4621120000000  0.3987510000000  0.4865210000000 1.0
C      1  0.3946660000000  0.5004270000000  0.4915260000000 1.0
C      1  0.4540720000000  0.5955530000000  0.4919990000000 1.0
C      1  0.4614110000000  0.4036760000000  0.4528840000000 1.0
C      1  0.4032020000000  0.4908640000000  0.4664140000000 1.0
C      1  0.4484850000000  0.5856250000000  0.4662320000000 1.0
C      1  0.5433760000000  0.5937150000000  0.4550580000000 1.0
C      1  0.5961820000000  0.5096700000000  0.4669960000000 1.0
C      1  0.5509040000000  0.4150260000000  0.4669370000000 1.0
C      1  0.5192100000000  0.5412000000000  0.5045230000000 1.0
C      1  0.5456600000000  0.5089080000000  0.5075930000000 1.0
C      1  0.5240610000000  0.4620710000000  0.5048300000000 1.0
C      1  0.4792360000000  0.4622100000000  0.5051180000000 1.0
C      1  0.4518460000000  0.4920630000000  0.5057540000000 1.0
C      1  0.4660260000000  0.5407940000000  0.4989920000000 1.0
C      1  0.4331440000000  0.4420530000000  0.4455910000000 1.0
C      1  0.4085720000000  0.5255690000000  0.4472940000000 1.0
C      1  0.4957830000000  0.5912400000000  0.4497070000000 1.0
C      1  0.5667670000000  0.5602480000000  0.4485440000000 1.0
C      1  0.5924040000000  0.4754440000000  0.4455290000000 1.0
C      1  0.5058530000000  0.4084210000000  0.4493440000000 1.0
C      1  0.5004420000000  0.5277790000000  0.5941440000000 1.0
C      1  0.5256780000000  0.5141860000000  0.5955480000000 1.0
C      1  0.5253070000000  0.4855920000000  0.5936440000000 1.0
C      1  0.5005880000000  0.4711430000000  0.5936900000000 1.0
C      1  0.4758000000000  0.4849880000000  0.5946720000000 1.0
C      1  0.4756470000000  0.5137100000000  0.5944560000000 1.0
C      1  0.5814220000000  0.5627260000000  0.5408090000000 1.0
C      1  0.5925100000000  0.4661740000000  0.5441370000000 1.0
C      1  0.5094550000000  0.4055150000000  0.5555880000000 1.0
C      1  0.4287310000000  0.4277690000000  0.5441100000000 1.0
C      1  0.4059770000000  0.5321440000000  0.5453790000000 1.0
C      1  0.4820150000000  0.6016110000000  0.5481020000000 1.0
END
