TITL C-2782232-2968-394 0.00632873544337095 125000 -1100.34325424213 0 0 187 (C1) n - 1
REM
REM in /home/nfs/bkarasulu/CARBON/AIRSS/Generating-Clusters/REBO/Higher-Symm/SD-CG/HFTN-CG
REM
REM
REM
REM
REM
REM ./C.cell (12c818d87b63d06a65506943cc24bca4)
REM
REM compiler GCC version 9.2.1 20190827 (Red Hat 9.2.1-1)
REM options -cpp -mtune=generic -march=x86-64 -g -O0 -fpre-include=/usr/include/finclude/math-vector-fortran.h
REM seed -890791749 2118566731 -1147653084 -1465108782 864066435 -997393809 -357432171 -1383278949 -1998797148 -1128962505 1810124536 -1616700272 1879602101 505847849 -1863138001 -1182698467 -748093931 -1663882197 -1478020328 -1885940230 -1394048852 1332294173 1374795748 203611820 577181569 1274103356 1285696636 -1471953964 411243614 -1790149318 -1775293399 -882543706 -1713966158
REM
CELL 1.54180   50.00000   50.00000   50.00000   90.00000   90.00000   90.00000
LATT -1
SFAC C  
C      1  0.5316790000000  0.5717730000000  0.5369070000000 1.0
C      1  0.5300970000000  0.4347590000000  0.5421850000000 1.0
C      1  0.5277560000000  0.4922900000000  0.4217910000000 1.0
C      1  0.5531450000000  0.5191160000000  0.5871640000000 1.0
C      1  0.5624470000000  0.3996220000000  0.4760720000000 1.0
C      1  0.5610600000000  0.5714370000000  0.4386010000000 1.0
C      1  0.5111250000000  0.5895970000000  0.5579480000000 1.0
C      1  0.5153920000000  0.4043310000000  0.5496010000000 1.0
C      1  0.5084460000000  0.4986010000000  0.3941480000000 1.0
C      1  0.5287250000000  0.4336080000000  0.5965830000000 1.0
C      1  0.5194910000000  0.4499860000000  0.3887190000000 1.0
C      1  0.5253140000000  0.6178380000000  0.5123590000000 1.0
C      1  0.5513890000000  0.5009340000000  0.4663320000000 1.0
C      1  0.5517370000000  0.5280730000000  0.5132850000000 1.0
C      1  0.5482250000000  0.4764330000000  0.5097540000000 1.0
C      1  0.5745370000000  0.5242890000000  0.5639780000000 1.0
C      1  0.5718160000000  0.4227200000000  0.4942140000000 1.0
C      1  0.5792110000000  0.5452440000000  0.4459590000000 1.0
C      1  0.5933070000000  0.5777330000000  0.4794230000000 1.0
C      1  0.5871950000000  0.4836890000000  0.5868790000000 1.0
C      1  0.5795410000000  0.4418840000000  0.4476890000000 1.0
C      1  0.4273390000000  0.5254460000000  0.5965420000000 1.0
C      1  0.4331280000000  0.4028550000000  0.4716620000000 1.0
C      1  0.4312920000000  0.5732400000000  0.4326060000000 1.0
C      1  0.4188290000000  0.5209420000000  0.4296060000000 1.0
C      1  0.4268160000000  0.5512680000000  0.5398780000000 1.0
C      1  0.4449030000000  0.4425730000000  0.5175840000000 1.0
C      1  0.3969350000000  0.4749050000000  0.4412860000000 1.0
C      1  0.3958060000000  0.5716560000000  0.5096210000000 1.0
C      1  0.3970480000000  0.4601640000000  0.5511870000000 1.0
C      1  0.5181440000000  0.4632960000000  0.4545360000000 1.0
C      1  0.5180440000000  0.5604330000000  0.4892850000000 1.0
C      1  0.5168010000000  0.4770840000000  0.5501610000000 1.0
C      1  0.5732230000000  0.4204700000000  0.5432980000000 1.0
C      1  0.5630530000000  0.5057730000000  0.4087990000000 1.0
C      1  0.5692450000000  0.5769650000000  0.5495190000000 1.0
C      1  0.4638730000000  0.5797110000000  0.4401210000000 1.0
C      1  0.4601940000000  0.5174180000000  0.5971850000000 1.0
C      1  0.4664540000000  0.3997650000000  0.4660850000000 1.0
C      1  0.4142450000000  0.4210050000000  0.4653710000000 1.0
C      1  0.4098630000000  0.5672470000000  0.4490700000000 1.0
C      1  0.4087490000000  0.5120660000000  0.5809330000000 1.0
C      1  0.4949230000000  0.5793800000000  0.4311960000000 1.0
C      1  0.4903260000000  0.5212090000000  0.6006080000000 1.0
C      1  0.4963000000000  0.3930930000000  0.4664630000000 1.0
C      1  0.5003040000000  0.4409210000000  0.5528840000000 1.0
C      1  0.4978240000000  0.4833910000000  0.4291730000000 1.0
C      1  0.5019380000000  0.5706580000000  0.5243200000000 1.0
C      1  0.4862650000000  0.5680520000000  0.4859890000000 1.0
C      1  0.4911820000000  0.4774840000000  0.5700630000000 1.0
C      1  0.4911910000000  0.4451300000000  0.4481210000000 1.0
C      1  0.4941540000000  0.4770880000000  0.5251760000000 1.0
C      1  0.4988940000000  0.4875240000000  0.4680700000000 1.0
C      1  0.5002440000000  0.5358270000000  0.5049390000000 1.0
C      1  0.4404530000000  0.4702170000000  0.5733990000000 1.0
C      1  0.4379630000000  0.4449950000000  0.4438980000000 1.0
C      1  0.4395010000000  0.5819220000000  0.4884810000000 1.0
C      1  0.3786230000000  0.4729480000000  0.4851570000000 1.0
C      1  0.3717390000000  0.5361940000000  0.4890740000000 1.0
C      1  0.3814880000000  0.4979680000000  0.5274630000000 1.0
C      1  0.5999810000000  0.5371350000000  0.5360760000000 1.0
C      1  0.5983080000000  0.4531830000000  0.5148600000000 1.0
C      1  0.5971270000000  0.5097430000000  0.4492470000000 1.0
C      1  0.5016700000000  0.4138560000000  0.4415590000000 1.0
C      1  0.5022080000000  0.5854410000000  0.4625580000000 1.0
C      1  0.5009440000000  0.4904760000000  0.6001500000000 1.0
C      1  0.5436530000000  0.5836610000000  0.5662910000000 1.0
C      1  0.5470110000000  0.4054250000000  0.5384410000000 1.0
C      1  0.5352780000000  0.5178870000000  0.4003990000000 1.0
C      1  0.4141270000000  0.5079010000000  0.5481750000000 1.0
C      1  0.4109110000000  0.4535550000000  0.4720750000000 1.0
C      1  0.4080810000000  0.5429210000000  0.4725340000000 1.0
C      1  0.5622510000000  0.4770400000000  0.4084830000000 1.0
C      1  0.5681270000000  0.5872670000000  0.5230750000000 1.0
C      1  0.5708920000000  0.4388980000000  0.5653340000000 1.0
C      1  0.5597370000000  0.4233280000000  0.4540590000000 1.0
C      1  0.5671550000000  0.5867510000000  0.4668540000000 1.0
C      1  0.5605720000000  0.4879920000000  0.5903400000000 1.0
C      1  0.4845460000000  0.5451400000000  0.5339320000000 1.0
C      1  0.4841000000000  0.4445410000000  0.5246430000000 1.0
C      1  0.4816670000000  0.5068700000000  0.4459940000000 1.0
C      1  0.4320670000000  0.5312560000000  0.5188940000000 1.0
C      1  0.4348950000000  0.4683670000000  0.5128650000000 1.0
C      1  0.4151310000000  0.5080630000000  0.4542900000000 1.0
C      1  0.5284880000000  0.4314560000000  0.4514760000000 1.0
C      1  0.5344710000000  0.5804360000000  0.4670500000000 1.0
C      1  0.5281410000000  0.4888230000000  0.5799870000000 1.0
C      1  0.4791250000000  0.4122890000000  0.5353220000000 1.0
C      1  0.4751500000000  0.5102680000000  0.4125970000000 1.0
C      1  0.4758960000000  0.5712190000000  0.5541190000000 1.0
C      1  0.3820540000000  0.4872550000000  0.4619530000000 1.0
C      1  0.3836820000000  0.5464430000000  0.5117320000000 1.0
C      1  0.3881230000000  0.4714150000000  0.5270460000000 1.0
C      1  0.4844020000000  0.4620480000000  0.5999930000000 1.0
C      1  0.4844380000000  0.4309340000000  0.4178340000000 1.0
C      1  0.4866170000000  0.6023780000000  0.4863210000000 1.0
C      1  0.4057160000000  0.4641620000000  0.5026260000000 1.0
C      1  0.3870370000000  0.5181900000000  0.4672650000000 1.0
C      1  0.3993450000000  0.5255290000000  0.5264190000000 1.0
C      1  0.4823180000000  0.4789460000000  0.4003000000000 1.0
C      1  0.4870040000000  0.5982200000000  0.5362670000000 1.0
C      1  0.4882490000000  0.4130370000000  0.5681340000000 1.0
C      1  0.5830590000000  0.5535320000000  0.5549650000000 1.0
C      1  0.5866280000000  0.4268030000000  0.5187530000000 1.0
C      1  0.5798820000000  0.5198520000000  0.4258190000000 1.0
C      1  0.4929900000000  0.4498590000000  0.3962570000000 1.0
C      1  0.4984950000000  0.6128490000000  0.5112820000000 1.0
C      1  0.4994790000000  0.4384230000000  0.5867690000000 1.0
C      1  0.4775930000000  0.5364960000000  0.4622220000000 1.0
C      1  0.4760790000000  0.5193140000000  0.5544220000000 1.0
C      1  0.4772840000000  0.4383830000000  0.4927060000000 1.0
C      1  0.5420170000000  0.3784740000000  0.4889970000000 1.0
C      1  0.5452760000000  0.5671830000000  0.4096150000000 1.0
C      1  0.5369830000000  0.5441540000000  0.6010150000000 1.0
C      1  0.5504130000000  0.6086040000000  0.5171910000000 1.0
C      1  0.5540750000000  0.4323410000000  0.5872170000000 1.0
C      1  0.5436320000000  0.4620180000000  0.3929150000000 1.0
C      1  0.5334030000000  0.4554540000000  0.4906010000000 1.0
C      1  0.5366230000000  0.5289150000000  0.4669330000000 1.0
C      1  0.5343550000000  0.5116400000000  0.5352400000000 1.0
C      1  0.4473250000000  0.5469630000000  0.5854270000000 1.0
C      1  0.4514520000000  0.3978140000000  0.4967260000000 1.0
C      1  0.4527650000000  0.5538240000000  0.4206010000000 1.0
C      1  0.5295790000000  0.4007740000000  0.4663650000000 1.0
C      1  0.5287750000000  0.5819780000000  0.4335420000000 1.0
C      1  0.5198220000000  0.5208440000000  0.5834340000000 1.0
C      1  0.4971570000000  0.5294420000000  0.3976950000000 1.0
C      1  0.4941160000000  0.5731320000000  0.5810040000000 1.0
C      1  0.4988020000000  0.3904060000000  0.5235460000000 1.0
C      1  0.4263350000000  0.4724630000000  0.4301460000000 1.0
C      1  0.4227710000000  0.5852580000000  0.5170480000000 1.0
C      1  0.4231220000000  0.4449670000000  0.5586250000000 1.0
C      1  0.4471780000000  0.5243620000000  0.4148570000000 1.0
C      1  0.4463520000000  0.5662670000000  0.5616640000000 1.0
C      1  0.4510980000000  0.4120240000000  0.5231680000000 1.0
C      1  0.5081150000000  0.5153180000000  0.5432800000000 1.0
C      1  0.5064360000000  0.4536450000000  0.4929390000000 1.0
C      1  0.5069600000000  0.5300570000000  0.4659510000000 1.0
C      1  0.4817270000000  0.4776840000000  0.4932500000000 1.0
C      1  0.5123310000000  0.5075760000000  0.4902100000000 1.0
C      1  0.4840390000000  0.5087130000000  0.5175790000000 1.0
C      1  0.4526180000000  0.4820910000000  0.4904250000000 1.0
C      1  0.4396470000000  0.5092960000000  0.4761060000000 1.0
C      1  0.4537860000000  0.5132590000000  0.5291040000000 1.0
C      1  0.4586400000000  0.4837260000000  0.5965860000000 1.0
C      1  0.4606600000000  0.4208500000000  0.4399870000000 1.0
C      1  0.4608630000000  0.5931660000000  0.4684300000000 1.0
C      1  0.5321310000000  0.3853900000000  0.5189230000000 1.0
C      1  0.5264700000000  0.5474590000000  0.3977680000000 1.0
C      1  0.5269240000000  0.5730150000000  0.5905360000000 1.0
C      1  0.5696160000000  0.4648440000000  0.4347680000000 1.0
C      1  0.5695390000000  0.5639440000000  0.4996110000000 1.0
C      1  0.5675630000000  0.4676710000000  0.5559680000000 1.0
C      1  0.5577010000000  0.5484020000000  0.4710240000000 1.0
C      1  0.5549710000000  0.4992560000000  0.5525640000000 1.0
C      1  0.5623660000000  0.4487110000000  0.4847970000000 1.0
C      1  0.4304000000000  0.4211320000000  0.5478060000000 1.0
C      1  0.4407810000000  0.4906760000000  0.4162090000000 1.0
C      1  0.4321450000000  0.5904280000000  0.5423530000000 1.0
C      1  0.5844910000000  0.5347090000000  0.5102580000000 1.0
C      1  0.5786040000000  0.4743710000000  0.5244870000000 1.0
C      1  0.5809300000000  0.4933180000000  0.4669840000000 1.0
C      1  0.5084060000000  0.3812260000000  0.4936780000000 1.0
C      1  0.4969490000000  0.5608430000000  0.4066470000000 1.0
C      1  0.5034940000000  0.5508830000000  0.6034300000000 1.0
C      1  0.5832310000000  0.4686390000000  0.4801940000000 1.0
C      1  0.5873520000000  0.5353830000000  0.4782150000000 1.0
C      1  0.5859000000000  0.5002350000000  0.5419230000000 1.0
C      1  0.6147440000000  0.5626060000000  0.4682210000000 1.0
C      1  0.6087220000000  0.4957580000000  0.5743980000000 1.0
C      1  0.6053150000000  0.4416190000000  0.4608160000000 1.0
C      1  0.4648610000000  0.4876720000000  0.5575850000000 1.0
C      1  0.4640160000000  0.4430300000000  0.4658390000000 1.0
C      1  0.4587210000000  0.5548500000000  0.4817630000000 1.0
C      1  0.4094810000000  0.5753810000000  0.4808390000000 1.0
C      1  0.4117910000000  0.4817530000000  0.5687630000000 1.0
C      1  0.4039330000000  0.4416100000000  0.4411340000000 1.0
C      1  0.5387650000000  0.5566800000000  0.5114540000000 1.0
C      1  0.5414860000000  0.4636140000000  0.5379510000000 1.0
C      1  0.5435150000000  0.4807630000000  0.4449970000000 1.0
C      1  0.4260940000000  0.4795340000000  0.4693880000000 1.0
C      1  0.4353840000000  0.5357610000000  0.4893470000000 1.0
C      1  0.4377870000000  0.4866650000000  0.5370400000000 1.0
C      1  0.6141280000000  0.5140070000000  0.5504220000000 1.0
C      1  0.6112160000000  0.4565700000000  0.4871800000000 1.0
C      1  0.6151510000000  0.5326900000000  0.4606910000000 1.0
C      1  0.5415350000000  0.5029160000000  0.4969010000000 1.0
END
