TITL C-2782236-320-527 0.00160681033541771 125000 -792.5582421279 0 0 140 (C1) n - 1
REM
REM in /home/nfs/bkarasulu/CARBON/AIRSS/Generating-Clusters/REBO/Higher-Symm/SD-CG/HFTN-CG
REM
REM
REM
REM
REM
REM ./C.cell (12c818d87b63d06a65506943cc24bca4)
REM
REM compiler GCC version 9.2.1 20190827 (Red Hat 9.2.1-1)
REM options -cpp -mtune=generic -march=x86-64 -g -O0 -fpre-include=/usr/include/finclude/math-vector-fortran.h
REM seed -768786124 1466933073 1950768548 -1097307029 -26070259 -239543028 1750807857 1759448541 -579901724 -426519314 1552484678 150648079 1438735417 398260978 240701647 208090626 1369736161 -149137278 1666539267 587504518 -476331580 -1194011535 -1373566453 2038151479 -1410569197 -2136557433 44982492 724493965 1737980811 210496584 521563889 -1346706658 95024616
REM
CELL 1.54180   50.00000   50.00000   50.00000   90.00000   90.00000   90.00000
LATT -1
SFAC C  
C      1  0.5386710000000  0.4571080000000  0.4902560000000 1.0
C      1  0.5388310000000  0.5065550000000  0.5396870000000 1.0
C      1  0.5388130000000  0.5361720000000  0.4613730000000 1.0
C      1  0.4717320000000  0.4314580000000  0.4389290000000 1.0
C      1  0.4752220000000  0.4856880000000  0.5922240000000 1.0
C      1  0.4761570000000  0.5841170000000  0.4814040000000 1.0
C      1  0.5072770000000  0.4162400000000  0.4921520000000 1.0
C      1  0.5113290000000  0.5303130000000  0.5784970000000 1.0
C      1  0.5041260000000  0.5498740000000  0.4282490000000 1.0
C      1  0.4512200000000  0.5106900000000  0.4254830000000 1.0
C      1  0.4496550000000  0.4310710000000  0.5277310000000 1.0
C      1  0.4523310000000  0.5472820000000  0.5624250000000 1.0
C      1  0.5068120000000  0.5000990000000  0.4383280000000 1.0
C      1  0.5021690000000  0.4486990000000  0.5300690000000 1.0
C      1  0.5093470000000  0.5507490000000  0.5323990000000 1.0
C      1  0.5514080000000  0.5797410000000  0.5096860000000 1.0
C      1  0.5426460000000  0.4780340000000  0.4384680000000 1.0
C      1  0.5376200000000  0.4599190000000  0.5444940000000 1.0
C      1  0.5307010000000  0.4416480000000  0.5732210000000 1.0
C      1  0.5175300000000  0.6103200000000  0.5231990000000 1.0
C      1  0.5329330000000  0.4614570000000  0.4107670000000 1.0
C      1  0.4469810000000  0.4634710000000  0.4073730000000 1.0
C      1  0.4428810000000  0.4498960000000  0.5762820000000 1.0
C      1  0.4450120000000  0.5818070000000  0.5247050000000 1.0
C      1  0.4560970000000  0.6024540000000  0.5014890000000 1.0
C      1  0.4617660000000  0.4334680000000  0.4064730000000 1.0
C      1  0.4595220000000  0.4588130000000  0.6040670000000 1.0
C      1  0.5745720000000  0.4444380000000  0.5191420000000 1.0
C      1  0.5767050000000  0.5527960000000  0.5427720000000 1.0
C      1  0.5643350000000  0.5207300000000  0.4347780000000 1.0
C      1  0.5575390000000  0.5491180000000  0.5583110000000 1.0
C      1  0.5653250000000  0.5440290000000  0.4205520000000 1.0
C      1  0.5734960000000  0.4190820000000  0.5084090000000 1.0
C      1  0.4466010000000  0.4410890000000  0.4966970000000 1.0
C      1  0.4444760000000  0.5196700000000  0.5515290000000 1.0
C      1  0.4462570000000  0.5184060000000  0.4520830000000 1.0
C      1  0.4389830000000  0.4673120000000  0.5157280000000 1.0
C      1  0.4570010000000  0.5197360000000  0.5137050000000 1.0
C      1  0.4517170000000  0.4923130000000  0.4726160000000 1.0
C      1  0.5726060000000  0.5531590000000  0.5124150000000 1.0
C      1  0.5560990000000  0.5012150000000  0.4516740000000 1.0
C      1  0.5595950000000  0.4667250000000  0.5248810000000 1.0
C      1  0.4833810000000  0.4572520000000  0.4517680000000 1.0
C      1  0.4825950000000  0.4816430000000  0.5628880000000 1.0
C      1  0.4803270000000  0.5551840000000  0.4882440000000 1.0
C      1  0.3959740000000  0.4772430000000  0.4963140000000 1.0
C      1  0.4164070000000  0.5165100000000  0.5367400000000 1.0
C      1  0.4210540000000  0.5179800000000  0.4734820000000 1.0
C      1  0.5767460000000  0.4675240000000  0.4841880000000 1.0
C      1  0.5883820000000  0.5120480000000  0.5332770000000 1.0
C      1  0.5872760000000  0.5437590000000  0.4766720000000 1.0
C      1  0.5772130000000  0.5226140000000  0.4983370000000 1.0
C      1  0.5660800000000  0.4973650000000  0.4796640000000 1.0
C      1  0.5680510000000  0.4931870000000  0.5134740000000 1.0
C      1  0.5269260000000  0.4320600000000  0.4518420000000 1.0
C      1  0.5273710000000  0.4877890000000  0.5840890000000 1.0
C      1  0.5254670000000  0.5963140000000  0.4590650000000 1.0
C      1  0.5380720000000  0.4261190000000  0.5469870000000 1.0
C      1  0.5351720000000  0.5902770000000  0.5329620000000 1.0
C      1  0.5628330000000  0.4686900000000  0.4123080000000 1.0
C      1  0.4865460000000  0.4495920000000  0.5570780000000 1.0
C      1  0.4864780000000  0.5714200000000  0.5178800000000 1.0
C      1  0.4902490000000  0.4770630000000  0.4260330000000 1.0
C      1  0.4825100000000  0.6170040000000  0.4860120000000 1.0
C      1  0.4947010000000  0.4300820000000  0.4071270000000 1.0
C      1  0.4932160000000  0.4539340000000  0.6066960000000 1.0
C      1  0.4984330000000  0.4814220000000  0.5263140000000 1.0
C      1  0.5035380000000  0.5387710000000  0.5026190000000 1.0
C      1  0.5113640000000  0.4931940000000  0.4712320000000 1.0
C      1  0.5721110000000  0.4733880000000  0.5621110000000 1.0
C      1  0.5736470000000  0.5731880000000  0.4848860000000 1.0
C      1  0.5640390000000  0.4430610000000  0.4419250000000 1.0
C      1  0.5619580000000  0.5557760000000  0.4585750000000 1.0
C      1  0.5607630000000  0.4442620000000  0.4693130000000 1.0
C      1  0.5667810000000  0.5003130000000  0.5548420000000 1.0
C      1  0.4019190000000  0.4711780000000  0.4689530000000 1.0
C      1  0.4038830000000  0.4878690000000  0.5423300000000 1.0
C      1  0.4209460000000  0.5430070000000  0.4935520000000 1.0
C      1  0.5228740000000  0.4941790000000  0.5189860000000 1.0
C      1  0.5270950000000  0.5323540000000  0.4852100000000 1.0
C      1  0.5289760000000  0.4845140000000  0.4914480000000 1.0
C      1  0.4989850000000  0.4866800000000  0.6122160000000 1.0
C      1  0.4945010000000  0.5999590000000  0.4593280000000 1.0
C      1  0.4949750000000  0.4107960000000  0.4351300000000 1.0
C      1  0.4361750000000  0.4795060000000  0.5899020000000 1.0
C      1  0.4312470000000  0.5818320000000  0.4945110000000 1.0
C      1  0.4348570000000  0.4394950000000  0.4257790000000 1.0
C      1  0.5565330000000  0.5705670000000  0.4313010000000 1.0
C      1  0.5607190000000  0.4159550000000  0.4835450000000 1.0
C      1  0.5638530000000  0.5172660000000  0.5814620000000 1.0
C      1  0.4094550000000  0.4697830000000  0.5222940000000 1.0
C      1  0.4335030000000  0.5373640000000  0.5174860000000 1.0
C      1  0.4213960000000  0.4876660000000  0.4580780000000 1.0
C      1  0.4503050000000  0.4219990000000  0.4725740000000 1.0
C      1  0.4578280000000  0.5307840000000  0.5875100000000 1.0
C      1  0.4453160000000  0.5800270000000  0.4457780000000 1.0
C      1  0.5112030000000  0.5145780000000  0.6087730000000 1.0
C      1  0.5008220000000  0.5802960000000  0.4320890000000 1.0
C      1  0.5053080000000  0.4006550000000  0.4634800000000 1.0
C      1  0.4719070000000  0.5047400000000  0.5476030000000 1.0
C      1  0.4693730000000  0.5376700000000  0.4679150000000 1.0
C      1  0.4727770000000  0.4563820000000  0.4793800000000 1.0
C      1  0.4941800000000  0.5787220000000  0.5563990000000 1.0
C      1  0.4736010000000  0.4968530000000  0.3840010000000 1.0
C      1  0.4643530000000  0.4069240000000  0.5676030000000 1.0
C      1  0.4724430000000  0.4675090000000  0.5115600000000 1.0
C      1  0.4868480000000  0.5198560000000  0.5213080000000 1.0
C      1  0.4806520000000  0.5054890000000  0.4675890000000 1.0
C      1  0.5342060000000  0.5869090000000  0.4322280000000 1.0
C      1  0.5375410000000  0.4089100000000  0.4675760000000 1.0
C      1  0.5417250000000  0.5111290000000  0.5958800000000 1.0
C      1  0.5230070000000  0.5792790000000  0.5568660000000 1.0
C      1  0.5870760000000  0.4695950000000  0.4005320000000 1.0
C      1  0.5415060000000  0.4026300000000  0.5342580000000 1.0
C      1  0.5387030000000  0.5916810000000  0.4819260000000 1.0
C      1  0.5172810000000  0.4574320000000  0.4479830000000 1.0
C      1  0.5155710000000  0.4768380000000  0.5620350000000 1.0
C      1  0.5045050000000  0.4441560000000  0.5822560000000 1.0
C      1  0.4942740000000  0.6014280000000  0.5125240000000 1.0
C      1  0.5066730000000  0.4558880000000  0.4094860000000 1.0
C      1  0.4917850000000  0.5306060000000  0.5530240000000 1.0
C      1  0.4851450000000  0.5265080000000  0.4406660000000 1.0
C      1  0.4853680000000  0.4364490000000  0.5038650000000 1.0
C      1  0.5448470000000  0.3797770000000  0.5218720000000 1.0
C      1  0.5361600000000  0.5746330000000  0.5802390000000 1.0
C      1  0.6106360000000  0.4704730000000  0.3890870000000 1.0
C      1  0.4291210000000  0.5761030000000  0.4673300000000 1.0
C      1  0.4336930000000  0.4274780000000  0.4505890000000 1.0
C      1  0.4415420000000  0.5071470000000  0.5904470000000 1.0
C      1  0.4602140000000  0.4330900000000  0.5570620000000 1.0
C      1  0.4650970000000  0.5680110000000  0.5444420000000 1.0
C      1  0.4654540000000  0.4875740000000  0.4096860000000 1.0
C      1  0.5246150000000  0.5286750000000  0.4379470000000 1.0
C      1  0.5247610000000  0.4383640000000  0.5067900000000 1.0
C      1  0.5312160000000  0.5344330000000  0.5525730000000 1.0
C      1  0.4684960000000  0.5848890000000  0.4331140000000 1.0
C      1  0.4732200000000  0.4074910000000  0.4708910000000 1.0
C      1  0.4840430000000  0.5319140000000  0.5978230000000 1.0
C      1  0.4133990000000  0.5053250000000  0.5045180000000 1.0
C      1  0.4451180000000  0.4947750000000  0.5012310000000 1.0
END
