TITL C-2782227-3064-1054 -0.000595777732692178 125000 -715.63945067863 0 0 126 (C1) n - 1
REM
REM in /home/nfs/bkarasulu/CARBON/AIRSS/Generating-Clusters/REBO/Higher-Symm/SD-CG/HFTN-CG
REM
REM
REM
REM
REM
REM ./C.cell (12c818d87b63d06a65506943cc24bca4)
REM
REM compiler GCC version 9.2.1 20190827 (Red Hat 9.2.1-1)
REM options -cpp -mtune=generic -march=x86-64 -g -O0 -fpre-include=/usr/include/finclude/math-vector-fortran.h
REM seed 876487271 414339225 1694146987 -2092203523 266427723 -832597388 -1541581442 -1119477861 1622346087 -1726205804 2011176528 740622994 53951792 -1484791558 -129409886 -1874805905 -2067464916 -1281616989 -1689117387 1466224692 -1567207949 -2023266062 -1799013083 -1684558504 -316855536 -74563834 -1879510100 1083078183 355189869 1488931491 1726501316 936219928 1400063175
REM
CELL 1.54180   50.00000   50.00000   50.00000   90.00000   90.00000   90.00000
LATT -1
SFAC C  
C      1  0.5199760000000  0.4329180000000  0.5251860000000 1.0
C      1  0.4261790000000  0.4827320000000  0.5255980000000 1.0
C      1  0.4825090000000  0.5696940000000  0.5254990000000 1.0
C      1  0.5652550000000  0.5167110000000  0.5282630000000 1.0
C      1  0.5146980000000  0.5696460000000  0.4758810000000 1.0
C      1  0.4284790000000  0.5232350000000  0.4677240000000 1.0
C      1  0.4842650000000  0.4319330000000  0.4764470000000 1.0
C      1  0.5724190000000  0.4765510000000  0.4654860000000 1.0
C      1  0.5303700000000  0.5487680000000  0.4967550000000 1.0
C      1  0.5506390000000  0.4638330000000  0.4877980000000 1.0
C      1  0.4676270000000  0.4547490000000  0.4954400000000 1.0
C      1  0.4500970000000  0.5372700000000  0.4894240000000 1.0
C      1  0.5359030000000  0.4518540000000  0.5032520000000 1.0
C      1  0.5445780000000  0.5335320000000  0.5094630000000 1.0
C      1  0.4643650000000  0.5503980000000  0.5043940000000 1.0
C      1  0.4511440000000  0.4690100000000  0.5069510000000 1.0
C      1  0.4207560000000  0.5559550000000  0.4696950000000 1.0
C      1  0.5474810000000  0.5709210000000  0.4683840000000 1.0
C      1  0.5789960000000  0.4440090000000  0.4677370000000 1.0
C      1  0.4519360000000  0.4294140000000  0.4688270000000 1.0
C      1  0.4271810000000  0.4504190000000  0.5330090000000 1.0
C      1  0.5511400000000  0.4264570000000  0.5330180000000 1.0
C      1  0.5730320000000  0.5489420000000  0.5332030000000 1.0
C      1  0.4503690000000  0.5738240000000  0.5335310000000 1.0
C      1  0.4951510000000  0.5326670000000  0.5545680000000 1.0
C      1  0.5311400000000  0.5039970000000  0.5618050000000 1.0
C      1  0.5072950000000  0.4660970000000  0.5613240000000 1.0
C      1  0.4648190000000  0.4969920000000  0.5509820000000 1.0
C      1  0.4984730000000  0.4650090000000  0.4471760000000 1.0
C      1  0.5355140000000  0.4942800000000  0.4353380000000 1.0
C      1  0.5012160000000  0.5341500000000  0.4475230000000 1.0
C      1  0.4657460000000  0.5061550000000  0.4397390000000 1.0
C      1  0.5670370000000  0.5211890000000  0.5609260000000 1.0
C      1  0.5215290000000  0.4289630000000  0.5589210000000 1.0
C      1  0.4294090000000  0.4802170000000  0.5587360000000 1.0
C      1  0.4800340000000  0.5693600000000  0.5589280000000 1.0
C      1  0.5720780000000  0.4792620000000  0.4317590000000 1.0
C      1  0.5176330000000  0.5702370000000  0.4426840000000 1.0
C      1  0.4289860000000  0.5201190000000  0.4339540000000 1.0
C      1  0.4814090000000  0.4292020000000  0.4428570000000 1.0
C      1  0.4396640000000  0.4901740000000  0.4256440000000 1.0
C      1  0.4886770000000  0.5598260000000  0.4296050000000 1.0
C      1  0.5622100000000  0.5105230000000  0.4230420000000 1.0
C      1  0.5105400000000  0.4384030000000  0.4299980000000 1.0
C      1  0.4399400000000  0.5092950000000  0.5707910000000 1.0
C      1  0.4922600000000  0.4379780000000  0.5726710000000 1.0
C      1  0.5607460000000  0.4906760000000  0.5721980000000 1.0
C      1  0.5085320000000  0.5591680000000  0.5713760000000 1.0
C      1  0.5248130000000  0.5430840000000  0.4246380000000 1.0
C      1  0.5430600000000  0.4656540000000  0.4200420000000 1.0
C      1  0.4746160000000  0.4564840000000  0.4244340000000 1.0
C      1  0.4579940000000  0.5348640000000  0.4238760000000 1.0
C      1  0.5305540000000  0.4521960000000  0.5820360000000 1.0
C      1  0.5390900000000  0.5337690000000  0.5758100000000 1.0
C      1  0.4723150000000  0.5426540000000  0.5780420000000 1.0
C      1  0.4582540000000  0.4741100000000  0.5752120000000 1.0
C      1  0.6092910000000  0.4694120000000  0.5138510000000 1.0
C      1  0.4692980000000  0.3916700000000  0.5140380000000 1.0
C      1  0.3836060000000  0.5452300000000  0.5214950000000 1.0
C      1  0.5317770000000  0.6087830000000  0.5149640000000 1.0
C      1  0.6113800000000  0.5349080000000  0.4813070000000 1.0
C      1  0.4674490000000  0.6121450000000  0.4823540000000 1.0
C      1  0.3879150000000  0.4647820000000  0.4818740000000 1.0
C      1  0.5332030000000  0.3882290000000  0.4843590000000 1.0
C      1  0.5670910000000  0.4274290000000  0.4874070000000 1.0
C      1  0.4322250000000  0.4382170000000  0.4870320000000 1.0
C      1  0.4333120000000  0.5735010000000  0.4881580000000 1.0
C      1  0.5670200000000  0.5611800000000  0.4866680000000 1.0
C      1  0.5642160000000  0.5680170000000  0.5135670000000 1.0
C      1  0.4299440000000  0.5678030000000  0.5149880000000 1.0
C      1  0.4369060000000  0.4322860000000  0.5136090000000 1.0
C      1  0.5704550000000  0.4348210000000  0.5139340000000 1.0
C      1  0.4476820000000  0.5572580000000  0.5613120000000 1.0
C      1  0.5609940000000  0.5548890000000  0.5627040000000 1.0
C      1  0.5539470000000  0.4411160000000  0.5616700000000 1.0
C      1  0.4429010000000  0.4485010000000  0.5611620000000 1.0
C      1  0.4493740000000  0.4426110000000  0.4398230000000 1.0
C      1  0.5622420000000  0.4473540000000  0.4401640000000 1.0
C      1  0.5499720000000  0.5578190000000  0.4392460000000 1.0
C      1  0.4361590000000  0.5526360000000  0.4417640000000 1.0
C      1  0.5366960000000  0.4942110000000  0.4659580000000 1.0
C      1  0.5137030000000  0.4702540000000  0.4733960000000 1.0
C      1  0.4636920000000  0.5047420000000  0.4706360000000 1.0
C      1  0.4861970000000  0.5292900000000  0.4740860000000 1.0
C      1  0.5263990000000  0.4971850000000  0.5288230000000 1.0
C      1  0.5099730000000  0.5276520000000  0.5285640000000 1.0
C      1  0.4591910000000  0.5047200000000  0.5230140000000 1.0
C      1  0.5056740000000  0.4698980000000  0.5309840000000 1.0
C      1  0.4171290000000  0.4623150000000  0.4750920000000 1.0
C      1  0.4597240000000  0.5836850000000  0.4763760000000 1.0
C      1  0.5822750000000  0.5374450000000  0.4738490000000 1.0
C      1  0.5403610000000  0.4164980000000  0.4769820000000 1.0
C      1  0.4133840000000  0.5443000000000  0.5253460000000 1.0
C      1  0.4630810000000  0.4195440000000  0.5234440000000 1.0
C      1  0.5816440000000  0.4618910000000  0.5228370000000 1.0
C      1  0.5381130000000  0.5808140000000  0.5240110000000 1.0
C      1  0.4727110000000  0.5108750000000  0.5808800000000 1.0
C      1  0.5086900000000  0.5276810000000  0.5848620000000 1.0
C      1  0.5315900000000  0.4829420000000  0.5881140000000 1.0
C      1  0.4852040000000  0.4685180000000  0.5862160000000 1.0
C      1  0.4718890000000  0.4854790000000  0.4149320000000 1.0
C      1  0.5111830000000  0.4695510000000  0.4158330000000 1.0
C      1  0.5304250000000  0.5166950000000  0.4118980000000 1.0
C      1  0.4889820000000  0.5282290000000  0.4161100000000 1.0
C      1  0.4844660000000  0.5612720000000  0.4716050000000 1.0
C      1  0.5668530000000  0.5088110000000  0.4642460000000 1.0
C      1  0.5150410000000  0.4383600000000  0.4719350000000 1.0
C      1  0.4337750000000  0.4907220000000  0.4681700000000 1.0
C      1  0.4891020000000  0.4401770000000  0.5303060000000 1.0
C      1  0.5588580000000  0.4860740000000  0.5275380000000 1.0
C      1  0.5122660000000  0.5597440000000  0.5306710000000 1.0
C      1  0.4288010000000  0.5154060000000  0.5249960000000 1.0
C      1  0.4283880000000  0.5337940000000  0.5540290000000 1.0
C      1  0.5336110000000  0.5697680000000  0.5555650000000 1.0
C      1  0.5693830000000  0.4669320000000  0.5537440000000 1.0
C      1  0.4673170000000  0.4304650000000  0.5547540000000 1.0
C      1  0.4302350000000  0.4665490000000  0.4442190000000 1.0
C      1  0.5361890000000  0.4297320000000  0.4463840000000 1.0
C      1  0.5704070000000  0.5346510000000  0.4422800000000 1.0
C      1  0.4632970000000  0.5694060000000  0.4459740000000 1.0
C      1  0.5014900000000  0.4806660000000  0.5019820000000 1.0
C      1  0.4761120000000  0.5003000000000  0.4994570000000 1.0
C      1  0.5274980000000  0.5007870000000  0.4944790000000 1.0
C      1  0.5023830000000  0.5203600000000  0.4996410000000 1.0
C      1  0.5017840000000  0.4991750000000  0.4061620000000 1.0
C      1  0.5017650000000  0.4974120000000  0.5925200000000 1.0
END
