TITL C-2782237-5345-1143 -0.00173266968531363 125000 -1072.84046450121 0 0 182 (C1) n - 1
REM
REM in /home/nfs/bkarasulu/CARBON/AIRSS/Generating-Clusters/REBO/Higher-Symm/SD-CG/HFTN-CG
REM
REM
REM
REM
REM
REM ./C.cell (12c818d87b63d06a65506943cc24bca4)
REM
REM compiler GCC version 9.2.1 20190827 (Red Hat 9.2.1-1)
REM options -cpp -mtune=generic -march=x86-64 -g -O0 -fpre-include=/usr/include/finclude/math-vector-fortran.h
REM seed -1271606447 -381457960 423794209 514523377 -588488950 -1161631388 -1685614759 1572379455 1605353737 802634005 1258574928 904878509 2128749567 84280909 1382438333 1091609668 1105103049 -1947072024 370636646 2003406571 1567530340 754118601 1868314695 -1443947175 1100599629 -850854269 -24805399 -2026890531 1861443046 -1958934267 159900874 -1286759856 -995473321
REM
CELL 1.54180   50.00000   50.00000   50.00000   90.00000   90.00000   90.00000
LATT -1
SFAC C  
C      1  0.5923840000000  0.4431300000000  0.5304270000000 1.0
C      1  0.5959590000000  0.5177670000000  0.4472750000000 1.0
C      1  0.5645710000000  0.5782560000000  0.5520200000000 1.0
C      1  0.5289510000000  0.6045710000000  0.4737510000000 1.0
C      1  0.4521200000000  0.5881410000000  0.5443390000000 1.0
C      1  0.4057520000000  0.5506640000000  0.4656280000000 1.0
C      1  0.3928380000000  0.4851120000000  0.5288930000000 1.0
C      1  0.4220670000000  0.4239930000000  0.4747290000000 1.0
C      1  0.4733350000000  0.3965430000000  0.5287040000000 1.0
C      1  0.5569990000000  0.4136930000000  0.4478150000000 1.0
C      1  0.5799710000000  0.6010260000000  0.4726280000000 1.0
C      1  0.4829300000000  0.6138620000000  0.5090680000000 1.0
C      1  0.4239490000000  0.5866340000000  0.4942470000000 1.0
C      1  0.3880760000000  0.5270780000000  0.5042130000000 1.0
C      1  0.3967590000000  0.4578380000000  0.4989090000000 1.0
C      1  0.4204590000000  0.3929520000000  0.5293400000000 1.0
C      1  0.5220140000000  0.3950910000000  0.4914760000000 1.0
C      1  0.5790540000000  0.3932380000000  0.5297580000000 1.0
C      1  0.6264250000000  0.4770080000000  0.4724290000000 1.0
C      1  0.5910270000000  0.5471590000000  0.5127820000000 1.0
C      1  0.4483460000000  0.4683520000000  0.4757610000000 1.0
C      1  0.4769530000000  0.4455560000000  0.5242430000000 1.0
C      1  0.5142670000000  0.4396890000000  0.4747540000000 1.0
C      1  0.5458900000000  0.4590080000000  0.5239730000000 1.0
C      1  0.5626530000000  0.4925510000000  0.4758420000000 1.0
C      1  0.5549190000000  0.5297590000000  0.5231100000000 1.0
C      1  0.5263270000000  0.5547340000000  0.4749130000000 1.0
C      1  0.4887580000000  0.5590770000000  0.5227540000000 1.0
C      1  0.4563420000000  0.5408220000000  0.4751890000000 1.0
C      1  0.4397250000000  0.5062630000000  0.5210650000000 1.0
C      1  0.5824150000000  0.4841700000000  0.5579650000000 1.0
C      1  0.5687590000000  0.5469460000000  0.4411390000000 1.0
C      1  0.5316920000000  0.5753840000000  0.5574710000000 1.0
C      1  0.4781080000000  0.5864580000000  0.4513100000000 1.0
C      1  0.4319340000000  0.5541130000000  0.5499460000000 1.0
C      1  0.4112490000000  0.5029890000000  0.4485970000000 1.0
C      1  0.4300430000000  0.4553240000000  0.5528730000000 1.0
C      1  0.4634780000000  0.4243340000000  0.4452450000000 1.0
C      1  0.5198400000000  0.4167970000000  0.5528770000000 1.0
C      1  0.5630030000000  0.4460910000000  0.4404330000000 1.0
C      1  0.5504050000000  0.5274070000000  0.4894430000000 1.0
C      1  0.5244890000000  0.5504260000000  0.5086100000000 1.0
C      1  0.4900090000000  0.5554470000000  0.4900230000000 1.0
C      1  0.4590960000000  0.5378060000000  0.5071010000000 1.0
C      1  0.4446710000000  0.5055150000000  0.4892090000000 1.0
C      1  0.4522870000000  0.4713000000000  0.5076640000000 1.0
C      1  0.4789490000000  0.4479870000000  0.4902970000000 1.0
C      1  0.5132070000000  0.4436180000000  0.5085360000000 1.0
C      1  0.5431570000000  0.4616730000000  0.4902060000000 1.0
C      1  0.5579170000000  0.4933710000000  0.5085600000000 1.0
C      1  0.4496270000000  0.4347620000000  0.4809110000000 1.0
C      1  0.4940380000000  0.4187670000000  0.5227030000000 1.0
C      1  0.5475870000000  0.4325760000000  0.4745210000000 1.0
C      1  0.5771030000000  0.4684430000000  0.5219100000000 1.0
C      1  0.5788000000000  0.5197720000000  0.4716620000000 1.0
C      1  0.5506480000000  0.5634580000000  0.5246360000000 1.0
C      1  0.5077390000000  0.5818130000000  0.4775040000000 1.0
C      1  0.4583620000000  0.5667070000000  0.5229090000000 1.0
C      1  0.4274850000000  0.5290120000000  0.4735950000000 1.0
C      1  0.4232060000000  0.4784100000000  0.5212680000000 1.0
C      1  0.5226260000000  0.5655430000000  0.5949630000000 1.0
C      1  0.4826360000000  0.5660790000000  0.4072360000000 1.0
C      1  0.4430930000000  0.5451070000000  0.5891330000000 1.0
C      1  0.4311000000000  0.5057100000000  0.4131800000000 1.0
C      1  0.4406770000000  0.4666580000000  0.5962660000000 1.0
C      1  0.4712580000000  0.4392520000000  0.4027420000000 1.0
C      1  0.5119470000000  0.4344110000000  0.5969860000000 1.0
C      1  0.5514870000000  0.4558380000000  0.4034870000000 1.0
C      1  0.5635300000000  0.4915800000000  0.5997690000000 1.0
C      1  0.5558730000000  0.5405490000000  0.4038680000000 1.0
C      1  0.4662660000000  0.4545720000000  0.5917180000000 1.0
C      1  0.4990650000000  0.4418030000000  0.4094700000000 1.0
C      1  0.5303930000000  0.4550270000000  0.5920510000000 1.0
C      1  0.5543290000000  0.4828270000000  0.4061800000000 1.0
C      1  0.5524160000000  0.5171740000000  0.5942160000000 1.0
C      1  0.5302150000000  0.5485940000000  0.4087040000000 1.0
C      1  0.4966960000000  0.5603900000000  0.5874600000000 1.0
C      1  0.4647090000000  0.5450330000000  0.4126750000000 1.0
C      1  0.4432590000000  0.5181030000000  0.5870150000000 1.0
C      1  0.4450970000000  0.4816370000000  0.4134850000000 1.0
C      1  0.5544340000000  0.4488360000000  0.5788070000000 1.0
C      1  0.5774860000000  0.4938070000000  0.4173880000000 1.0
C      1  0.5673030000000  0.5377430000000  0.5818590000000 1.0
C      1  0.5258500000000  0.5708590000000  0.4261390000000 1.0
C      1  0.4800140000000  0.5792210000000  0.5745370000000 1.0
C      1  0.4430490000000  0.5501100000000  0.4301640000000 1.0
C      1  0.4230970000000  0.5056570000000  0.5711880000000 1.0
C      1  0.4342490000000  0.4597450000000  0.4280330000000 1.0
C      1  0.4694820000000  0.4305590000000  0.5762980000000 1.0
C      1  0.5152100000000  0.4219480000000  0.4217370000000 1.0
C      1  0.5822640000000  0.4214220000000  0.5429720000000 1.0
C      1  0.6176750000000  0.4968780000000  0.4498260000000 1.0
C      1  0.5869930000000  0.5598120000000  0.5407700000000 1.0
C      1  0.5526350000000  0.5991880000000  0.4616400000000 1.0
C      1  0.4662790000000  0.6136840000000  0.5363500000000 1.0
C      1  0.4164510000000  0.5758660000000  0.4658810000000 1.0
C      1  0.3881910000000  0.5117680000000  0.5310980000000 1.0
C      1  0.4037000000000  0.4437730000000  0.4719110000000 1.0
C      1  0.4490910000000  0.3986270000000  0.5401020000000 1.0
C      1  0.5349360000000  0.3965720000000  0.4629580000000 1.0
C      1  0.5211640000000  0.5180030000000  0.5885360000000 1.0
C      1  0.5082730000000  0.5260230000000  0.4102860000000 1.0
C      1  0.4895650000000  0.5300350000000  0.5848570000000 1.0
C      1  0.4763010000000  0.5157550000000  0.4128260000000 1.0
C      1  0.4705070000000  0.5018740000000  0.5875390000000 1.0
C      1  0.4774920000000  0.4816950000000  0.4102820000000 1.0
C      1  0.4893510000000  0.4747750000000  0.5869910000000 1.0
C      1  0.5098830000000  0.4716170000000  0.4123140000000 1.0
C      1  0.5209540000000  0.4843340000000  0.5868310000000 1.0
C      1  0.5280950000000  0.5001900000000  0.4091850000000 1.0
C      1  0.5024450000000  0.4715550000000  0.4809100000000 1.0
C      1  0.5178070000000  0.4771910000000  0.5169410000000 1.0
C      1  0.5285050000000  0.4916620000000  0.4813970000000 1.0
C      1  0.5281000000000  0.5089660000000  0.5170740000000 1.0
C      1  0.5170560000000  0.5222140000000  0.4813070000000 1.0
C      1  0.5001710000000  0.5273470000000  0.5167880000000 1.0
C      1  0.4846870000000  0.5224960000000  0.4805320000000 1.0
C      1  0.4739270000000  0.5081280000000  0.5162460000000 1.0
C      1  0.4743420000000  0.4904770000000  0.4804640000000 1.0
C      1  0.4852840000000  0.4776590000000  0.5163260000000 1.0
C      1  0.4489730000000  0.5717050000000  0.5725460000000 1.0
C      1  0.4256860000000  0.5282330000000  0.4317500000000 1.0
C      1  0.4242950000000  0.4770520000000  0.5743020000000 1.0
C      1  0.4510270000000  0.4366590000000  0.4232990000000 1.0
C      1  0.4970350000000  0.4222200000000  0.5754060000000 1.0
C      1  0.5450390000000  0.4279520000000  0.4192290000000 1.0
C      1  0.5714980000000  0.4716880000000  0.5805340000000 1.0
C      1  0.5798090000000  0.5254430000000  0.4195730000000 1.0
C      1  0.5526950000000  0.5647900000000  0.5810370000000 1.0
C      1  0.4986250000000  0.5783630000000  0.4276940000000 1.0
C      1  0.4423220000000  0.4956850000000  0.4572820000000 1.0
C      1  0.4563300000000  0.4666060000000  0.5411560000000 1.0
C      1  0.4856540000000  0.4450100000000  0.4568060000000 1.0
C      1  0.5198150000000  0.4463260000000  0.5418870000000 1.0
C      1  0.5486700000000  0.4681640000000  0.4566310000000 1.0
C      1  0.5578850000000  0.5012180000000  0.5420000000000 1.0
C      1  0.5449370000000  0.5336800000000  0.4557690000000 1.0
C      1  0.5161710000000  0.5533460000000  0.5421110000000 1.0
C      1  0.4808550000000  0.5546600000000  0.4572360000000 1.0
C      1  0.4510110000000  0.5311590000000  0.5393330000000 1.0
C      1  0.4500460000000  0.5918890000000  0.4783860000000 1.0
C      1  0.4050560000000  0.5461300000000  0.5223240000000 1.0
C      1  0.3990010000000  0.4819540000000  0.4794640000000 1.0
C      1  0.4162630000000  0.4206380000000  0.5402820000000 1.0
C      1  0.4968430000000  0.4005910000000  0.4726230000000 1.0
C      1  0.5504840000000  0.3988760000000  0.5365610000000 1.0
C      1  0.6006590000000  0.4627280000000  0.4613190000000 1.0
C      1  0.5966410000000  0.5224900000000  0.5321250000000 1.0
C      1  0.5784920000000  0.5688890000000  0.4640190000000 1.0
C      1  0.5039860000000  0.6035440000000  0.5290080000000 1.0
C      1  0.5106080000000  0.4040970000000  0.4438060000000 1.0
C      1  0.5526200000000  0.4246200000000  0.5594170000000 1.0
C      1  0.5949020000000  0.4799200000000  0.4345320000000 1.0
C      1  0.5871000000000  0.5358400000000  0.5607870000000 1.0
C      1  0.5510740000000  0.5751120000000  0.4421600000000 1.0
C      1  0.4881140000000  0.6000730000000  0.5568490000000 1.0
C      1  0.4456510000000  0.5759260000000  0.4484680000000 1.0
C      1  0.4107540000000  0.5272500000000  0.5505450000000 1.0
C      1  0.4123220000000  0.4688920000000  0.4504910000000 1.0
C      1  0.4445990000000  0.4252340000000  0.5592150000000 1.0
C      1  0.4680160000000  0.5019490000000  0.4427930000000 1.0
C      1  0.4697620000000  0.4889350000000  0.5555330000000 1.0
C      1  0.4841170000000  0.4715090000000  0.4425220000000 1.0
C      1  0.5035160000000  0.4629860000000  0.5583560000000 1.0
C      1  0.5248680000000  0.4786600000000  0.4421900000000 1.0
C      1  0.5312240000000  0.4966630000000  0.5566470000000 1.0
C      1  0.5295110000000  0.5126950000000  0.4411710000000 1.0
C      1  0.5168070000000  0.5276350000000  0.5560280000000 1.0
C      1  0.4951530000000  0.5399070000000  0.4381080000000 1.0
C      1  0.4756410000000  0.5228750000000  0.5545500000000 1.0
C      1  0.4253140000000  0.5707310000000  0.5205020000000 1.0
C      1  0.3983460000000  0.5137150000000  0.4786310000000 1.0
C      1  0.4078570000000  0.4487350000000  0.5278450000000 1.0
C      1  0.4714070000000  0.4114330000000  0.4728440000000 1.0
C      1  0.5223450000000  0.4021320000000  0.5215890000000 1.0
C      1  0.5789780000000  0.4456590000000  0.4694920000000 1.0
C      1  0.5955660000000  0.4945900000000  0.5313630000000 1.0
C      1  0.5845660000000  0.5478810000000  0.4860810000000 1.0
C      1  0.5277660000000  0.5888520000000  0.5281040000000 1.0
C      1  0.4802370000000  0.5998850000000  0.4826990000000 1.0
C      1  0.5005820000000  0.4998130000000  0.4521080000000 1.0
C      1  0.4996100000000  0.5002240000000  0.5458310000000 1.0
END
