TITL C-2782239-8622-1495 -0.00208494523257092 125000 -607.622204373788 0 0 103 (C1) n - 1
REM
REM in /home/nfs/bkarasulu/CARBON/AIRSS/Generating-Clusters/REBO/Higher-Symm/SD-CG/HFTN-CG
REM
REM
REM
REM
REM
REM ./C.cell (12c818d87b63d06a65506943cc24bca4)
REM
REM compiler GCC version 9.2.1 20190827 (Red Hat 9.2.1-1)
REM options -cpp -mtune=generic -march=x86-64 -g -O0 -fpre-include=/usr/include/finclude/math-vector-fortran.h
REM seed 1326755961 -791886837 -490509558 -293176706 1774776458 999988801 -1423325370 -1605779010 -428075681 -1239008622 1320915380 550676782 467270567 -110196841 1983460485 -1228192052 1455072560 -1671889764 -549467753 707556573 -1765327584 280428370 821455560 -160369582 1710811769 -1139219189 648499738 -1926720279 1631668162 -1872910503 306514083 -60410546 1132526682
REM
CELL 1.54180   50.00000   50.00000   50.00000   90.00000   90.00000   90.00000
LATT -1
SFAC C  
C      1  0.5054550000000  0.4591740000000  0.5740170000000 1.0
C      1  0.4775100000000  0.4782810000000  0.5700140000000 1.0
C      1  0.4614810000000  0.5345000000000  0.5746800000000 1.0
C      1  0.5168020000000  0.5244380000000  0.5730620000000 1.0
C      1  0.5390530000000  0.5001900000000  0.5731730000000 1.0
C      1  0.4556760000000  0.4582680000000  0.4772860000000 1.0
C      1  0.4454960000000  0.5311470000000  0.4794220000000 1.0
C      1  0.5113850000000  0.5626760000000  0.4813400000000 1.0
C      1  0.5625750000000  0.5083700000000  0.4845770000000 1.0
C      1  0.5297530000000  0.4448810000000  0.4824100000000 1.0
C      1  0.4678710000000  0.4843060000000  0.5383460000000 1.0
C      1  0.4684370000000  0.5239500000000  0.5426790000000 1.0
C      1  0.5146880000000  0.5276410000000  0.5396530000000 1.0
C      1  0.5432700000000  0.4913900000000  0.5433960000000 1.0
C      1  0.5066740000000  0.4734880000000  0.5431430000000 1.0
C      1  0.4622750000000  0.4845930000000  0.3809280000000 1.0
C      1  0.4818480000000  0.5009730000000  0.3701680000000 1.0
C      1  0.5128630000000  0.4877200000000  0.3734400000000 1.0
C      1  0.5018700000000  0.4741390000000  0.4030620000000 1.0
C      1  0.4722870000000  0.4676710000000  0.4019320000000 1.0
C      1  0.4703440000000  0.4346760000000  0.4696670000000 1.0
C      1  0.4276250000000  0.5097410000000  0.4723280000000 1.0
C      1  0.4858530000000  0.5727950000000  0.4731210000000 1.0
C      1  0.5636780000000  0.5359810000000  0.4762200000000 1.0
C      1  0.5566770000000  0.4504130000000  0.4736600000000 1.0
C      1  0.4963160000000  0.4587640000000  0.4992970000000 1.0
C      1  0.4603230000000  0.4914080000000  0.4990810000000 1.0
C      1  0.4815970000000  0.5323770000000  0.4964450000000 1.0
C      1  0.5320400000000  0.5279620000000  0.5036990000000 1.0
C      1  0.5371370000000  0.4818310000000  0.5018400000000 1.0
C      1  0.5912340000000  0.4821830000000  0.5541460000000 1.0
C      1  0.5110840000000  0.4132500000000  0.5498740000000 1.0
C      1  0.4222130000000  0.4633130000000  0.5514180000000 1.0
C      1  0.4339290000000  0.5674090000000  0.5473450000000 1.0
C      1  0.5378920000000  0.5733100000000  0.5558910000000 1.0
C      1  0.4471550000000  0.4630700000000  0.5649310000000 1.0
C      1  0.4363960000000  0.5413800000000  0.5591960000000 1.0
C      1  0.5166830000000  0.5569610000000  0.5666560000000 1.0
C      1  0.5731230000000  0.4990450000000  0.5684700000000 1.0
C      1  0.5224480000000  0.4352320000000  0.5642850000000 1.0
C      1  0.4728780000000  0.4676470000000  0.5120360000000 1.0
C      1  0.4638450000000  0.5161820000000  0.5117370000000 1.0
C      1  0.5039790000000  0.5382130000000  0.5118190000000 1.0
C      1  0.5412910000000  0.5051120000000  0.5182360000000 1.0
C      1  0.5188560000000  0.4649720000000  0.5152320000000 1.0
C      1  0.4388650000000  0.5263830000000  0.4291730000000 1.0
C      1  0.5036510000000  0.5556110000000  0.4314640000000 1.0
C      1  0.5594490000000  0.5137610000000  0.4335270000000 1.0
C      1  0.5332750000000  0.4471450000000  0.4313170000000 1.0
C      1  0.4628180000000  0.4597920000000  0.4275490000000 1.0
C      1  0.5314580000000  0.5711110000000  0.4985060000000 1.0
C      1  0.5786710000000  0.4912470000000  0.4990270000000 1.0
C      1  0.5169560000000  0.4245480000000  0.4958340000000 1.0
C      1  0.4336180000000  0.4622270000000  0.4931990000000 1.0
C      1  0.4433870000000  0.5530560000000  0.4957870000000 1.0
C      1  0.5475460000000  0.5966370000000  0.5670540000000 1.0
C      1  0.6164750000000  0.4757670000000  0.5635970000000 1.0
C      1  0.5121960000000  0.3867210000000  0.5574070000000 1.0
C      1  0.3987970000000  0.4529530000000  0.5618970000000 1.0
C      1  0.4178240000000  0.5880030000000  0.5560020000000 1.0
C      1  0.5360040000000  0.4930540000000  0.4721840000000 1.0
C      1  0.5072990000000  0.4653840000000  0.4697570000000 1.0
C      1  0.4727160000000  0.4867170000000  0.4693850000000 1.0
C      1  0.4760250000000  0.5294680000000  0.4643910000000 1.0
C      1  0.5148010000000  0.5294820000000  0.4743520000000 1.0
C      1  0.4333770000000  0.5022430000000  0.4444600000000 1.0
C      1  0.4799990000000  0.5646930000000  0.4460010000000 1.0
C      1  0.5535550000000  0.5379410000000  0.4484650000000 1.0
C      1  0.5551180000000  0.4599390000000  0.4455570000000 1.0
C      1  0.4796990000000  0.4401080000000  0.4420410000000 1.0
C      1  0.5448010000000  0.5365910000000  0.5425120000000 1.0
C      1  0.5566220000000  0.4664610000000  0.5420240000000 1.0
C      1  0.4888310000000  0.4450180000000  0.5406780000000 1.0
C      1  0.4398920000000  0.4958160000000  0.5366630000000 1.0
C      1  0.4719160000000  0.5559040000000  0.5427520000000 1.0
C      1  0.4908030000000  0.5655520000000  0.5592040000000 1.0
C      1  0.5649830000000  0.5248360000000  0.5555230000000 1.0
C      1  0.5480530000000  0.4439100000000  0.5559540000000 1.0
C      1  0.4667070000000  0.4425390000000  0.5558840000000 1.0
C      1  0.4284680000000  0.5186460000000  0.5447540000000 1.0
C      1  0.4899140000000  0.5183960000000  0.4360080000000 1.0
C      1  0.4946420000000  0.5357560000000  0.4108710000000 1.0
C      1  0.5041240000000  0.5189190000000  0.3886150000000 1.0
C      1  0.5273270000000  0.4976440000000  0.4026160000000 1.0
C      1  0.5069830000000  0.4944990000000  0.4297800000000 1.0
C      1  0.4191210000000  0.4902670000000  0.4908430000000 1.0
C      1  0.4656380000000  0.5753800000000  0.4923740000000 1.0
C      1  0.5592540000000  0.5561140000000  0.4955680000000 1.0
C      1  0.5750800000000  0.4601480000000  0.4929430000000 1.0
C      1  0.4853990000000  0.4214650000000  0.4902190000000 1.0
C      1  0.5487160000000  0.5636870000000  0.5268440000000 1.0
C      1  0.5822000000000  0.4697530000000  0.5247850000000 1.0
C      1  0.4975820000000  0.4213640000000  0.5221170000000 1.0
C      1  0.4214820000000  0.4756930000000  0.5214270000000 1.0
C      1  0.4527250000000  0.5704090000000  0.5226410000000 1.0
C      1  0.5529160000000  0.4889940000000  0.4457220000000 1.0
C      1  0.5074810000000  0.4486170000000  0.4430290000000 1.0
C      1  0.4532870000000  0.4811640000000  0.4442990000000 1.0
C      1  0.4567860000000  0.5450590000000  0.4409450000000 1.0
C      1  0.5253940000000  0.5460190000000  0.4479830000000 1.0
C      1  0.5037100000000  0.4985540000000  0.4676470000000 1.0
C      1  0.4947970000000  0.5031890000000  0.5439760000000 1.0
C      1  0.5067060000000  0.4926680000000  0.5805260000000 1.0
END
