TITL C-2782239-8622-1437 -3.98016376506452e-05 125000 -128.167112013336 0 0 26 (D3) n - 1
REM
REM in /home/nfs/bkarasulu/CARBON/AIRSS/Generating-Clusters/REBO/Higher-Symm/SD-CG/HFTN-CG
REM
REM
REM
REM
REM
REM ./C.cell (12c818d87b63d06a65506943cc24bca4)
REM
REM compiler GCC version 9.2.1 20190827 (Red Hat 9.2.1-1)
REM options -cpp -mtune=generic -march=x86-64 -g -O0 -fpre-include=/usr/include/finclude/math-vector-fortran.h
REM seed 1690518846 1554850222 -626334671 -1650685440 805423814 1703048836 599222608 53416856 955129855 -1189102063 -1438661223 -1799847359 -1449450768 -1128397329 -1244601640 1783685776 766777828 -23429570 1318384821 -358762908 -1998625035 653862493 -621433527 1399602510 -1852130917 -581118595 1972550518 681602223 -1064950116 -1998269769 164775937 -1308075618 -458870217
REM
CELL 1.54180   50.00000   50.00000   50.00000   90.00000   90.00000   90.00000
LATT -1
SFAC C  
C      1  0.5008110000000  0.4981180000000  0.5313180000000 1.0
C      1  0.5264780000000  0.4978730000000  0.4829100000000 1.0
C      1  0.4717220000000  0.4980950000000  0.4848850000000 1.0
C      1  0.5008850000000  0.4954800000000  0.4681010000000 1.0
C      1  0.5264240000000  0.4955230000000  0.5165770000000 1.0
C      1  0.4716730000000  0.4957330000000  0.5144570000000 1.0
C      1  0.4964780000000  0.4749240000000  0.5514910000000 1.0
C      1  0.5459170000000  0.4745070000000  0.4766000000000 1.0
C      1  0.4563400000000  0.4748450000000  0.4712290000000 1.0
C      1  0.4967880000000  0.5187070000000  0.4479170000000 1.0
C      1  0.5460300000000  0.5187350000000  0.5229390000000 1.0
C      1  0.4564390000000  0.5191030000000  0.5280720000000 1.0
C      1  0.4954550000000  0.4462370000000  0.4511550000000 1.0
C      1  0.4592950000000  0.4466070000000  0.5276820000000 1.0
C      1  0.5436500000000  0.4462530000000  0.5207350000000 1.0
C      1  0.4957250000000  0.5474020000000  0.5482510000000 1.0
C      1  0.4597660000000  0.5473170000000  0.4716280000000 1.0
C      1  0.5441030000000  0.5470060000000  0.4787980000000 1.0
C      1  0.4802320000000  0.5287650000000  0.4758200000000 1.0
C      1  0.4889660000000  0.5288860000000  0.5284500000000 1.0
C      1  0.5301770000000  0.5286230000000  0.4945710000000 1.0
C      1  0.4799170000000  0.4649970000000  0.5235440000000 1.0
C      1  0.4887900000000  0.4648060000000  0.4709380000000 1.0
C      1  0.5299120000000  0.4647450000000  0.5049260000000 1.0
C      1  0.4995160000000  0.4588100000000  0.4998210000000 1.0
C      1  0.4998160000000  0.5347970000000  0.4995960000000 1.0
END
