TITL C-2782238-9940-692 0.00159346557438272 125000 -951.09997303246 0 0 164 (C1) n - 1
REM
REM in /home/nfs/bkarasulu/CARBON/AIRSS/Generating-Clusters/REBO/Higher-Symm/SD-CG/HFTN-CG
REM
REM
REM
REM
REM
REM ./C.cell (12c818d87b63d06a65506943cc24bca4)
REM
REM compiler GCC version 9.2.1 20190827 (Red Hat 9.2.1-1)
REM options -cpp -mtune=generic -march=x86-64 -g -O0 -fpre-include=/usr/include/finclude/math-vector-fortran.h
REM seed -1010057762 -488802797 1238590654 -1889643508 -1910477903 -346408853 934091008 418373091 -2071639529 -378970000 370447352 682334987 -1996526932 -1254913910 825705199 923525093 1067836564 1906830879 435693312 -1557546130 -1591335416 1556639259 -1906827078 1777285769 -124087487 -105667036 612018263 130340409 -287658182 21965963 -1960840407 -377540345 -467438978
REM
CELL 1.54180   50.00000   50.00000   50.00000   90.00000   90.00000   90.00000
LATT -1
SFAC C  
C      1  0.4993500000000  0.3886220000000  0.5294780000000 1.0
C      1  0.5186480000000  0.3920350000000  0.4856110000000 1.0
C      1  0.4692610000000  0.3754430000000  0.4783160000000 1.0
C      1  0.4978030000000  0.6103000000000  0.4724070000000 1.0
C      1  0.5192040000000  0.6094750000000  0.5143950000000 1.0
C      1  0.4660480000000  0.6156100000000  0.5254300000000 1.0
C      1  0.5194510000000  0.5523370000000  0.4102780000000 1.0
C      1  0.4176990000000  0.5524470000000  0.5337950000000 1.0
C      1  0.5740040000000  0.5562520000000  0.5588120000000 1.0
C      1  0.5117470000000  0.4452610000000  0.5828350000000 1.0
C      1  0.4159410000000  0.4422820000000  0.4780900000000 1.0
C      1  0.5714760000000  0.4381520000000  0.4384800000000 1.0
C      1  0.5268740000000  0.5838450000000  0.4475820000000 1.0
C      1  0.4418620000000  0.5785220000000  0.5035020000000 1.0
C      1  0.5301870000000  0.5848360000000  0.5516470000000 1.0
C      1  0.5222750000000  0.4164430000000  0.5465730000000 1.0
C      1  0.4464760000000  0.4129920000000  0.5010010000000 1.0
C      1  0.5293160000000  0.4100830000000  0.4442030000000 1.0
C      1  0.4711690000000  0.5788860000000  0.4450990000000 1.0
C      1  0.4658180000000  0.5725960000000  0.5519470000000 1.0
C      1  0.5610730000000  0.5858980000000  0.5064620000000 1.0
C      1  0.4690920000000  0.4259630000000  0.5539750000000 1.0
C      1  0.4627590000000  0.4112350000000  0.4481940000000 1.0
C      1  0.5570890000000  0.4171430000000  0.4902170000000 1.0
C      1  0.5440730000000  0.5862830000000  0.4768460000000 1.0
C      1  0.4559300000000  0.5732670000000  0.4751700000000 1.0
C      1  0.4989560000000  0.5804670000000  0.5529660000000 1.0
C      1  0.5407370000000  0.4205210000000  0.5198620000000 1.0
C      1  0.4523570000000  0.4334080000000  0.5281830000000 1.0
C      1  0.4965380000000  0.4123150000000  0.4430640000000 1.0
C      1  0.5309830000000  0.4890950000000  0.4731290000000 1.0
C      1  0.4458300000000  0.4915800000000  0.4972470000000 1.0
C      1  0.5112770000000  0.4889540000000  0.5367240000000 1.0
C      1  0.5302220000000  0.5125900000000  0.5247410000000 1.0
C      1  0.4596180000000  0.5166060000000  0.5103150000000 1.0
C      1  0.5106630000000  0.5139050000000  0.4625590000000 1.0
C      1  0.5360080000000  0.5199070000000  0.5952840000000 1.0
C      1  0.5743240000000  0.5199820000000  0.4352430000000 1.0
C      1  0.4013970000000  0.5187430000000  0.4628700000000 1.0
C      1  0.5425140000000  0.4957540000000  0.3984070000000 1.0
C      1  0.5770530000000  0.4910260000000  0.5745610000000 1.0
C      1  0.3930840000000  0.4871560000000  0.5201380000000 1.0
C      1  0.5655490000000  0.5589300000000  0.4367470000000 1.0
C      1  0.4050810000000  0.5584380000000  0.4824360000000 1.0
C      1  0.5212870000000  0.5568260000000  0.5909520000000 1.0
C      1  0.5557810000000  0.4449740000000  0.5631800000000 1.0
C      1  0.4132130000000  0.4411470000000  0.5295830000000 1.0
C      1  0.5270430000000  0.4508450000000  0.4197260000000 1.0
C      1  0.4484780000000  0.5284870000000  0.5751540000000 1.0
C      1  0.5946460000000  0.5324240000000  0.5080890000000 1.0
C      1  0.4647260000000  0.5264200000000  0.4225000000000 1.0
C      1  0.4465920000000  0.4580010000000  0.4305060000000 1.0
C      1  0.5880670000000  0.4596230000000  0.4902300000000 1.0
C      1  0.4651150000000  0.4738520000000  0.5808010000000 1.0
C      1  0.5537830000000  0.4915460000000  0.6009560000000 1.0
C      1  0.5710290000000  0.4925010000000  0.4173450000000 1.0
C      1  0.3916930000000  0.4713800000000  0.4909460000000 1.0
C      1  0.5493760000000  0.5254510000000  0.4123020000000 1.0
C      1  0.5671830000000  0.5217750000000  0.5799360000000 1.0
C      1  0.3954380000000  0.5108180000000  0.4955270000000 1.0
C      1  0.5308020000000  0.5275900000000  0.4855060000000 1.0
C      1  0.4784980000000  0.5273640000000  0.4884150000000 1.0
C      1  0.5049740000000  0.5348500000000  0.5308090000000 1.0
C      1  0.5220160000000  0.4765810000000  0.5095720000000 1.0
C      1  0.4741990000000  0.4771490000000  0.5048490000000 1.0
C      1  0.5022570000000  0.4749970000000  0.4605950000000 1.0
C      1  0.4816870000000  0.5215590000000  0.5725830000000 1.0
C      1  0.5739280000000  0.5302850000000  0.4835480000000 1.0
C      1  0.4460440000000  0.5185490000000  0.4497560000000 1.0
C      1  0.4755120000000  0.4686230000000  0.4318510000000 1.0
C      1  0.5731780000000  0.4699860000000  0.5162550000000 1.0
C      1  0.4466960000000  0.4806520000000  0.5539450000000 1.0
C      1  0.4207750000000  0.5186170000000  0.5697940000000 1.0
C      1  0.6002460000000  0.5212310000000  0.5340130000000 1.0
C      1  0.4843320000000  0.5154650000000  0.4039760000000 1.0
C      1  0.4192950000000  0.4665570000000  0.4356270000000 1.0
C      1  0.5974140000000  0.4713800000000  0.4653790000000 1.0
C      1  0.4859600000000  0.4812510000000  0.6011920000000 1.0
C      1  0.4651930000000  0.4443630000000  0.5752030000000 1.0
C      1  0.5811890000000  0.4316490000000  0.4879630000000 1.0
C      1  0.4483260000000  0.4294970000000  0.4326950000000 1.0
C      1  0.4717760000000  0.5543460000000  0.4274970000000 1.0
C      1  0.5828670000000  0.5602170000000  0.5085120000000 1.0
C      1  0.4490460000000  0.5570780000000  0.5738790000000 1.0
C      1  0.4388170000000  0.4915890000000  0.4656980000000 1.0
C      1  0.4987300000000  0.4954930000000  0.5661620000000 1.0
C      1  0.5601250000000  0.5009960000000  0.4811350000000 1.0
C      1  0.4459070000000  0.5083830000000  0.5404110000000 1.0
C      1  0.4935500000000  0.4971080000000  0.4382860000000 1.0
C      1  0.5598320000000  0.5005620000000  0.5154080000000 1.0
C      1  0.5058990000000  0.5459210000000  0.4603580000000 1.0
C      1  0.4668120000000  0.5491020000000  0.5196120000000 1.0
C      1  0.5353500000000  0.5463710000000  0.5259100000000 1.0
C      1  0.4994040000000  0.4559630000000  0.5346660000000 1.0
C      1  0.4629430000000  0.4451430000000  0.4840040000000 1.0
C      1  0.5341990000000  0.4569100000000  0.4756240000000 1.0
C      1  0.4925150000000  0.3984730000000  0.4737620000000 1.0
C      1  0.4772320000000  0.4200480000000  0.5127900000000 1.0
C      1  0.5212550000000  0.3948630000000  0.5129240000000 1.0
C      1  0.4932630000000  0.5987940000000  0.5252370000000 1.0
C      1  0.4836870000000  0.5853650000000  0.4823860000000 1.0
C      1  0.5228330000000  0.6101720000000  0.4866360000000 1.0
C      1  0.5054930000000  0.5348560000000  0.3920640000000 1.0
C      1  0.4034170000000  0.5414680000000  0.5565700000000 1.0
C      1  0.5959440000000  0.5404330000000  0.5558380000000 1.0
C      1  0.5019800000000  0.4570300000000  0.6073750000000 1.0
C      1  0.4047630000000  0.4457570000000  0.4512700000000 1.0
C      1  0.5960570000000  0.4527020000000  0.4425030000000 1.0
C      1  0.5184030000000  0.4403580000000  0.4936830000000 1.0
C      1  0.4841230000000  0.4314500000000  0.4751360000000 1.0
C      1  0.4990730000000  0.4369300000000  0.5138890000000 1.0
C      1  0.5228320000000  0.5631890000000  0.5013190000000 1.0
C      1  0.4857320000000  0.5674000000000  0.5177860000000 1.0
C      1  0.5028580000000  0.5640430000000  0.4819100000000 1.0
C      1  0.4623040000000  0.5408280000000  0.4685160000000 1.0
C      1  0.4895520000000  0.5477220000000  0.5523930000000 1.0
C      1  0.5506150000000  0.5537820000000  0.4855470000000 1.0
C      1  0.4519090000000  0.4635120000000  0.5249750000000 1.0
C      1  0.4951650000000  0.4460020000000  0.4484150000000 1.0
C      1  0.5447110000000  0.4538850000000  0.5139020000000 1.0
C      1  0.5542520000000  0.4450180000000  0.4616920000000 1.0
C      1  0.4402230000000  0.4588320000000  0.4753430000000 1.0
C      1  0.4988730000000  0.4621290000000  0.5631290000000 1.0
C      1  0.5596640000000  0.5625460000000  0.5315980000000 1.0
C      1  0.4444620000000  0.5412740000000  0.5374800000000 1.0
C      1  0.5013950000000  0.5553780000000  0.4340590000000 1.0
C      1  0.4239930000000  0.5430950000000  0.4586810000000 1.0
C      1  0.5008060000000  0.5427260000000  0.5903860000000 1.0
C      1  0.5799250000000  0.5515080000000  0.4587190000000 1.0
C      1  0.4210990000000  0.4584810000000  0.5497110000000 1.0
C      1  0.5021060000000  0.4645520000000  0.4131150000000 1.0
C      1  0.5724670000000  0.4474650000000  0.5417190000000 1.0
C      1  0.4527290000000  0.3996000000000  0.4732430000000 1.0
C      1  0.4918910000000  0.4100410000000  0.5486270000000 1.0
C      1  0.5394280000000  0.4043510000000  0.4708000000000 1.0
C      1  0.4535890000000  0.5889720000000  0.5276420000000 1.0
C      1  0.4981340000000  0.5934170000000  0.4462520000000 1.0
C      1  0.5402290000000  0.5973090000000  0.5282620000000 1.0
C      1  0.4235840000000  0.4765040000000  0.5142590000000 1.0
C      1  0.5531720000000  0.4692400000000  0.5775910000000 1.0
C      1  0.5449770000000  0.4737230000000  0.4241770000000 1.0
C      1  0.4254750000000  0.5245200000000  0.4872380000000 1.0
C      1  0.5424450000000  0.5267310000000  0.4455220000000 1.0
C      1  0.5412310000000  0.5341960000000  0.5647870000000 1.0
C      1  0.4071810000000  0.5031790000000  0.5466370000000 1.0
C      1  0.5883990000000  0.4930300000000  0.5425380000000 1.0
C      1  0.5087260000000  0.4918780000000  0.4013840000000 1.0
C      1  0.4071290000000  0.4944740000000  0.4415810000000 1.0
C      1  0.5922640000000  0.5012770000000  0.4573690000000 1.0
C      1  0.5055940000000  0.5067410000000  0.6035270000000 1.0
C      1  0.4171110000000  0.5650620000000  0.5074630000000 1.0
C      1  0.5437380000000  0.5659790000000  0.5693760000000 1.0
C      1  0.5394120000000  0.5665150000000  0.4287150000000 1.0
C      1  0.4186790000000  0.4288130000000  0.5040470000000 1.0
C      1  0.5428450000000  0.4282250000000  0.4274030000000 1.0
C      1  0.5324050000000  0.4300620000000  0.5687190000000 1.0
C      1  0.5235320000000  0.4833230000000  0.5863220000000 1.0
C      1  0.5630150000000  0.4852190000000  0.4506290000000 1.0
C      1  0.4068990000000  0.4804310000000  0.4709630000000 1.0
C      1  0.5188800000000  0.5148250000000  0.4239070000000 1.0
C      1  0.5628300000000  0.5153180000000  0.5463360000000 1.0
C      1  0.4205860000000  0.5156850000000  0.5183650000000 1.0
C      1  0.4989090000000  0.4752450000000  0.4922630000000 1.0
C      1  0.5039070000000  0.5281030000000  0.4992650000000 1.0
END
