TITL C-2782239-8622-803 0.00127563578357727 125000 -1035.0339584607 0 0 183 (C1) n - 1
REM
REM in /home/nfs/bkarasulu/CARBON/AIRSS/Generating-Clusters/REBO/Higher-Symm/SD-CG/HFTN-CG
REM
REM
REM
REM
REM
REM ./C.cell (12c818d87b63d06a65506943cc24bca4)
REM
REM compiler GCC version 9.2.1 20190827 (Red Hat 9.2.1-1)
REM options -cpp -mtune=generic -march=x86-64 -g -O0 -fpre-include=/usr/include/finclude/math-vector-fortran.h
REM seed 1765260149 -646661966 2007286175 1195162514 -1043799956 -2033650986 342609686 610855169 -1178095017 1376473499 1573215454 -2089632352 -507573260 1053044465 470483228 -1994284203 -166718732 -1575547116 38328393 -471637751 74046768 101986706 913029553 -337092007 1578869156 1840252867 2074778517 -115613661 -1575834432 -679403208 1013320101 1860702912 -1325843327
REM
CELL 1.54180   50.00000   50.00000   50.00000   90.00000   90.00000   90.00000
LATT -1
SFAC C  
C      1  0.5213490000000  0.4222670000000  0.5692190000000 1.0
C      1  0.4315130000000  0.4250280000000  0.5169620000000 1.0
C      1  0.4765110000000  0.4212250000000  0.4312660000000 1.0
C      1  0.5668530000000  0.4241280000000  0.4822720000000 1.0
C      1  0.5180010000000  0.5750940000000  0.5622510000000 1.0
C      1  0.4353230000000  0.5795070000000  0.5218780000000 1.0
C      1  0.4812130000000  0.5787280000000  0.4340900000000 1.0
C      1  0.5630660000000  0.5814210000000  0.4788390000000 1.0
C      1  0.5044290000000  0.5766250000000  0.5240640000000 1.0
C      1  0.4780960000000  0.5762160000000  0.5038660000000 1.0
C      1  0.4976550000000  0.5769510000000  0.4771840000000 1.0
C      1  0.5247010000000  0.5769630000000  0.4967690000000 1.0
C      1  0.4985420000000  0.4238860000000  0.5225160000000 1.0
C      1  0.4816160000000  0.4229420000000  0.4952580000000 1.0
C      1  0.4878490000000  0.3894530000000  0.4878600000000 1.0
C      1  0.5117100000000  0.3990680000000  0.5059930000000 1.0
C      1  0.4978570000000  0.4266550000000  0.4088880000000 1.0
C      1  0.5885370000000  0.4290410000000  0.5080900000000 1.0
C      1  0.4987720000000  0.4281100000000  0.5919820000000 1.0
C      1  0.4067050000000  0.4344800000000  0.4990600000000 1.0
C      1  0.5027450000000  0.5729620000000  0.4098870000000 1.0
C      1  0.5879530000000  0.5789120000000  0.5013890000000 1.0
C      1  0.4998590000000  0.5680560000000  0.5900420000000 1.0
C      1  0.4114160000000  0.5768760000000  0.5008670000000 1.0
C      1  0.4413340000000  0.5413850000000  0.4483100000000 1.0
C      1  0.5502460000000  0.5410260000000  0.4415460000000 1.0
C      1  0.5571000000000  0.5388330000000  0.5441590000000 1.0
C      1  0.4480600000000  0.5387760000000  0.5589570000000 1.0
C      1  0.4427930000000  0.4624820000000  0.4502250000000 1.0
C      1  0.5481710000000  0.4624030000000  0.4446060000000 1.0
C      1  0.5645760000000  0.4539910000000  0.5527340000000 1.0
C      1  0.4543890000000  0.4605180000000  0.5548100000000 1.0
C      1  0.4611220000000  0.5791090000000  0.5532810000000 1.0
C      1  0.4452980000000  0.5790090000000  0.4610580000000 1.0
C      1  0.5391260000000  0.5798540000000  0.4461840000000 1.0
C      1  0.5519490000000  0.5786280000000  0.5360790000000 1.0
C      1  0.4644990000000  0.4197510000000  0.5552400000000 1.0
C      1  0.4400650000000  0.4230660000000  0.4548130000000 1.0
C      1  0.5392820000000  0.4235960000000  0.4451080000000 1.0
C      1  0.5544270000000  0.4161370000000  0.5461450000000 1.0
C      1  0.4784920000000  0.3969260000000  0.5436610000000 1.0
C      1  0.4586440000000  0.4061840000000  0.4673110000000 1.0
C      1  0.5240230000000  0.4083310000000  0.4641850000000 1.0
C      1  0.5383290000000  0.3973490000000  0.5251220000000 1.0
C      1  0.4737810000000  0.5989560000000  0.5364530000000 1.0
C      1  0.4637570000000  0.5978420000000  0.4736480000000 1.0
C      1  0.5264490000000  0.6003600000000  0.4628900000000 1.0
C      1  0.5358500000000  0.6010670000000  0.5263150000000 1.0
C      1  0.5251990000000  0.4845620000000  0.4770340000000 1.0
C      1  0.5315910000000  0.4831000000000  0.5307490000000 1.0
C      1  0.4724980000000  0.4842090000000  0.5178790000000 1.0
C      1  0.4829310000000  0.4784960000000  0.4743640000000 1.0
C      1  0.5317830000000  0.5158100000000  0.4714260000000 1.0
C      1  0.5197290000000  0.5125180000000  0.5249800000000 1.0
C      1  0.4668830000000  0.5134610000000  0.5293660000000 1.0
C      1  0.4708360000000  0.5156480000000  0.4689510000000 1.0
C      1  0.4178820000000  0.4617970000000  0.5401650000000 1.0
C      1  0.4617970000000  0.4672060000000  0.4161830000000 1.0
C      1  0.5836320000000  0.4662120000000  0.4612420000000 1.0
C      1  0.5467140000000  0.4635700000000  0.5865800000000 1.0
C      1  0.4143990000000  0.5400190000000  0.5390040000000 1.0
C      1  0.4643080000000  0.5407470000000  0.4164440000000 1.0
C      1  0.5866580000000  0.5381920000000  0.4564090000000 1.0
C      1  0.5420150000000  0.5337130000000  0.5800940000000 1.0
C      1  0.5310210000000  0.4477640000000  0.5485060000000 1.0
C      1  0.4547650000000  0.4490800000000  0.5222050000000 1.0
C      1  0.4739300000000  0.4477740000000  0.4514960000000 1.0
C      1  0.5460140000000  0.4506450000000  0.4770030000000 1.0
C      1  0.5243130000000  0.5486500000000  0.5411640000000 1.0
C      1  0.4509930000000  0.5495360000000  0.5262620000000 1.0
C      1  0.4736060000000  0.5518700000000  0.4537070000000 1.0
C      1  0.5461180000000  0.5522160000000  0.4739760000000 1.0
C      1  0.4297010000000  0.4814480000000  0.5656060000000 1.0
C      1  0.4362910000000  0.4867100000000  0.4271300000000 1.0
C      1  0.5719360000000  0.4854200000000  0.4352760000000 1.0
C      1  0.5723530000000  0.4814430000000  0.5714340000000 1.0
C      1  0.4262310000000  0.5150250000000  0.5700870000000 1.0
C      1  0.4310590000000  0.5195960000000  0.4254020000000 1.0
C      1  0.5744000000000  0.5191340000000  0.4305470000000 1.0
C      1  0.5679960000000  0.5150030000000  0.5664110000000 1.0
C      1  0.5865740000000  0.4950610000000  0.5353450000000 1.0
C      1  0.4672200000000  0.4818720000000  0.5781560000000 1.0
C      1  0.4190740000000  0.4837450000000  0.4625180000000 1.0
C      1  0.5349230000000  0.4853500000000  0.4226730000000 1.0
C      1  0.5861780000000  0.5277640000000  0.5332180000000 1.0
C      1  0.4627060000000  0.5159150000000  0.5806150000000 1.0
C      1  0.4199210000000  0.5181070000000  0.4618050000000 1.0
C      1  0.5367830000000  0.5192180000000  0.4190820000000 1.0
C      1  0.5108180000000  0.5573370000000  0.3877330000000 1.0
C      1  0.6116150000000  0.5704340000000  0.5143970000000 1.0
C      1  0.4918560000000  0.5503620000000  0.6108370000000 1.0
C      1  0.3911540000000  0.5603990000000  0.4856780000000 1.0
C      1  0.5106990000000  0.4476850000000  0.3903520000000 1.0
C      1  0.5913900000000  0.4479470000000  0.5345270000000 1.0
C      1  0.4897040000000  0.4444740000000  0.6131960000000 1.0
C      1  0.3852610000000  0.4517720000000  0.4913420000000 1.0
C      1  0.3931980000000  0.5169270000000  0.5282550000000 1.0
C      1  0.4788520000000  0.5171050000000  0.3970850000000 1.0
C      1  0.6033630000000  0.5157590000000  0.4759120000000 1.0
C      1  0.5326720000000  0.5198260000000  0.6080940000000 1.0
C      1  0.3997490000000  0.4837990000000  0.5223330000000 1.0
C      1  0.4721160000000  0.4843580000000  0.3894400000000 1.0
C      1  0.6112780000000  0.4827800000000  0.4702490000000 1.0
C      1  0.5269680000000  0.4866690000000  0.6019290000000 1.0
C      1  0.4261010000000  0.4363050000000  0.4750080000000 1.0
C      1  0.5229750000000  0.4358620000000  0.4263540000000 1.0
C      1  0.5580170000000  0.4327840000000  0.5198660000000 1.0
C      1  0.4840980000000  0.4369160000000  0.5669170000000 1.0
C      1  0.4305520000000  0.5633430000000  0.4797190000000 1.0
C      1  0.5186220000000  0.5639330000000  0.4341700000000 1.0
C      1  0.5652360000000  0.5650160000000  0.5152010000000 1.0
C      1  0.4799200000000  0.5638370000000  0.5666070000000 1.0
C      1  0.3965400000000  0.5350130000000  0.4772580000000 1.0
C      1  0.5272070000000  0.5354620000000  0.3916830000000 1.0
C      1  0.6092870000000  0.5493870000000  0.5323640000000 1.0
C      1  0.4730340000000  0.5304940000000  0.6066340000000 1.0
C      1  0.3893760000000  0.4690050000000  0.4698220000000 1.0
C      1  0.5294230000000  0.4672000000000  0.3964110000000 1.0
C      1  0.6041280000000  0.4740440000000  0.5369640000000 1.0
C      1  0.4739750000000  0.4662530000000  0.6068700000000 1.0
C      1  0.5916950000000  0.4834310000000  0.4962870000000 1.0
C      1  0.4998090000000  0.4856350000000  0.5834300000000 1.0
C      1  0.4157140000000  0.4848750000000  0.4951080000000 1.0
C      1  0.4968420000000  0.4844550000000  0.4107950000000 1.0
C      1  0.5858570000000  0.5164820000000  0.5021180000000 1.0
C      1  0.5062300000000  0.5179830000000  0.5884950000000 1.0
C      1  0.4086590000000  0.5156880000000  0.5000830000000 1.0
C      1  0.5046170000000  0.5152440000000  0.4176610000000 1.0
C      1  0.4488640000000  0.5687140000000  0.4286550000000 1.0
C      1  0.5711860000000  0.5677460000000  0.4484790000000 1.0
C      1  0.5499260000000  0.5640540000000  0.5667580000000 1.0
C      1  0.4291800000000  0.5672290000000  0.5533480000000 1.0
C      1  0.4468760000000  0.4378300000000  0.4252620000000 1.0
C      1  0.5706100000000  0.4363700000000  0.4504310000000 1.0
C      1  0.5532940000000  0.4316440000000  0.5765180000000 1.0
C      1  0.4333890000000  0.4328990000000  0.5503420000000 1.0
C      1  0.4897840000000  0.4460410000000  0.4790520000000 1.0
C      1  0.5179980000000  0.4552700000000  0.4892270000000 1.0
C      1  0.5178540000000  0.4583310000000  0.5199540000000 1.0
C      1  0.4861540000000  0.4538660000000  0.5203760000000 1.0
C      1  0.4850870000000  0.5401730000000  0.4822140000000 1.0
C      1  0.5169950000000  0.5410510000000  0.4835360000000 1.0
C      1  0.5088150000000  0.5386230000000  0.5140780000000 1.0
C      1  0.4775270000000  0.5379240000000  0.5131220000000 1.0
C      1  0.4912750000000  0.4859200000000  0.5444890000000 1.0
C      1  0.4534700000000  0.4825140000000  0.4828190000000 1.0
C      1  0.5137650000000  0.4826450000000  0.4466410000000 1.0
C      1  0.5608810000000  0.4862200000000  0.5206710000000 1.0
C      1  0.4829000000000  0.5139430000000  0.5564860000000 1.0
C      1  0.4440790000000  0.5114170000000  0.4821430000000 1.0
C      1  0.5024120000000  0.5108170000000  0.4572920000000 1.0
C      1  0.5469490000000  0.5117760000000  0.5082900000000 1.0
C      1  0.4377500000000  0.4593430000000  0.4958150000000 1.0
C      1  0.4997450000000  0.4585350000000  0.4326290000000 1.0
C      1  0.5664560000000  0.4610970000000  0.5022420000000 1.0
C      1  0.5017800000000  0.4610900000000  0.5597250000000 1.0
C      1  0.4347670000000  0.5375920000000  0.4989840000000 1.0
C      1  0.5014240000000  0.5390810000000  0.4410230000000 1.0
C      1  0.5601000000000  0.5387970000000  0.5008190000000 1.0
C      1  0.5003710000000  0.5392240000000  0.5625410000000 1.0
C      1  0.4929330000000  0.6010640000000  0.4562430000000 1.0
C      1  0.5421340000000  0.6044120000000  0.4928770000000 1.0
C      1  0.5068590000000  0.6018420000000  0.5443070000000 1.0
C      1  0.4572000000000  0.6008600000000  0.5069820000000 1.0
C      1  0.4908270000000  0.4045070000000  0.4574700000000 1.0
C      1  0.5414690000000  0.4048150000000  0.4918360000000 1.0
C      1  0.5117710000000  0.4039400000000  0.5456470000000 1.0
C      1  0.4523490000000  0.4072400000000  0.4998070000000 1.0
C      1  0.4731550000000  0.4862330000000  0.4424040000000 1.0
C      1  0.5596140000000  0.4873980000000  0.4731170000000 1.0
C      1  0.5339340000000  0.4844310000000  0.5628910000000 1.0
C      1  0.4394050000000  0.4849340000000  0.5270490000000 1.0
C      1  0.4692140000000  0.5160680000000  0.4358080000000 1.0
C      1  0.5641510000000  0.5157060000000  0.4686910000000 1.0
C      1  0.5295500000000  0.5127110000000  0.5569430000000 1.0
C      1  0.4329570000000  0.5144830000000  0.5315520000000 1.0
C      1  0.5992980000000  0.5019180000000  0.4453660000000 1.0
C      1  0.4035660000000  0.4977890000000  0.5529360000000 1.0
C      1  0.5577330000000  0.5005890000000  0.5955650000000 1.0
C      1  0.4476310000000  0.5047270000000  0.4008830000000 1.0
C      1  0.5011080000000  0.6023620000000  0.5008690000000 1.0
C      1  0.4710510000000  0.3876670000000  0.5175420000000 1.0
C      1  0.5001300000000  0.4981620000000  0.4955900000000 1.0
END
