TITL C-2782227-3064-854 0.00280178469398836 125000 -1149.90803587855 0 0 197 (C1) n - 1
REM
REM in /home/nfs/bkarasulu/CARBON/AIRSS/Generating-Clusters/REBO/Higher-Symm/SD-CG/HFTN-CG
REM
REM
REM
REM
REM
REM ./C.cell (12c818d87b63d06a65506943cc24bca4)
REM
REM compiler GCC version 9.2.1 20190827 (Red Hat 9.2.1-1)
REM options -cpp -mtune=generic -march=x86-64 -g -O0 -fpre-include=/usr/include/finclude/math-vector-fortran.h
REM seed 923473721 1749141516 -1282688118 -1966630792 745771641 -336776547 710085016 -1784799451 -390080927 1040433960 -1687892448 -759775421 1134407532 -444029680 -234711487 1431645487 1022213733 1895855951 -1098523408 882293185 -462681713 497466501 767938482 1964111969 1852623013 443732075 -437316548 728864621 -1427023228 -359741440 1100737061 598384251 1065630156
REM
CELL 1.54180   50.00000   50.00000   50.00000   90.00000   90.00000   90.00000
LATT -1
SFAC C  
C      1  0.5656840000000  0.4736810000000  0.5564800000000 1.0
C      1  0.4586060000000  0.5071660000000  0.5911580000000 1.0
C      1  0.5592700000000  0.4469760000000  0.5118390000000 1.0
C      1  0.4578920000000  0.4685460000000  0.4909410000000 1.0
C      1  0.4681550000000  0.4215250000000  0.5911570000000 1.0
C      1  0.4350720000000  0.5090200000000  0.5355010000000 1.0
C      1  0.4880460000000  0.4028860000000  0.5741110000000 1.0
C      1  0.5112770000000  0.4316670000000  0.4809640000000 1.0
C      1  0.4885880000000  0.4031500000000  0.5159580000000 1.0
C      1  0.5211900000000  0.4352910000000  0.5386780000000 1.0
C      1  0.4808520000000  0.5548700000000  0.5621390000000 1.0
C      1  0.5595000000000  0.4969760000000  0.4046750000000 1.0
C      1  0.4732880000000  0.5858680000000  0.5207820000000 1.0
C      1  0.5966970000000  0.4703210000000  0.5445310000000 1.0
C      1  0.4659450000000  0.5814890000000  0.5519790000000 1.0
C      1  0.5253810000000  0.5010560000000  0.5511650000000 1.0
C      1  0.4835770000000  0.5749630000000  0.4714420000000 1.0
C      1  0.4619370000000  0.5242140000000  0.6124060000000 1.0
C      1  0.4710690000000  0.5542050000000  0.4347060000000 1.0
C      1  0.5423350000000  0.5647090000000  0.5592140000000 1.0
C      1  0.4395840000000  0.5488180000000  0.4246390000000 1.0
C      1  0.5439840000000  0.5243850000000  0.6084910000000 1.0
C      1  0.4584200000000  0.5283860000000  0.4533290000000 1.0
C      1  0.5945630000000  0.4865820000000  0.5090190000000 1.0
C      1  0.4109030000000  0.4585770000000  0.4527870000000 1.0
C      1  0.4297500000000  0.5217390000000  0.4355700000000 1.0
C      1  0.5043350000000  0.3889740000000  0.5497800000000 1.0
C      1  0.5215460000000  0.4918780000000  0.4298340000000 1.0
C      1  0.4911490000000  0.5567810000000  0.5927620000000 1.0
C      1  0.5723530000000  0.4779690000000  0.4747590000000 1.0
C      1  0.6040700000000  0.4993800000000  0.4862480000000 1.0
C      1  0.4546260000000  0.5417020000000  0.5234430000000 1.0
C      1  0.5655270000000  0.5332860000000  0.5921170000000 1.0
C      1  0.5529480000000  0.5042830000000  0.4519610000000 1.0
C      1  0.4572740000000  0.4413030000000  0.4621680000000 1.0
C      1  0.5165180000000  0.5294380000000  0.5367630000000 1.0
C      1  0.5254900000000  0.5633050000000  0.4785140000000 1.0
C      1  0.4881170000000  0.6098060000000  0.5173180000000 1.0
C      1  0.6017260000000  0.5326150000000  0.5299870000000 1.0
C      1  0.4667000000000  0.5047350000000  0.4014290000000 1.0
C      1  0.5031270000000  0.5226310000000  0.4534390000000 1.0
C      1  0.4164020000000  0.4986110000000  0.5619970000000 1.0
C      1  0.3999260000000  0.5367600000000  0.4878550000000 1.0
C      1  0.5111670000000  0.4827950000000  0.3787590000000 1.0
C      1  0.5021220000000  0.5552590000000  0.4230770000000 1.0
C      1  0.5425770000000  0.4786030000000  0.3913200000000 1.0
C      1  0.5807880000000  0.5622190000000  0.5493630000000 1.0
C      1  0.4228880000000  0.5886040000000  0.4737140000000 1.0
C      1  0.5893860000000  0.4504420000000  0.4632630000000 1.0
C      1  0.5499040000000  0.5975050000000  0.4881660000000 1.0
C      1  0.4930660000000  0.4123440000000  0.4589890000000 1.0
C      1  0.4712250000000  0.5299090000000  0.5458060000000 1.0
C      1  0.5185480000000  0.5745050000000  0.5099190000000 1.0
C      1  0.4896520000000  0.4522230000000  0.4416560000000 1.0
C      1  0.5207770000000  0.4763340000000  0.5301650000000 1.0
C      1  0.4329800000000  0.4685630000000  0.5350340000000 1.0
C      1  0.4452910000000  0.3993110000000  0.4889650000000 1.0
C      1  0.5587980000000  0.5701010000000  0.4782230000000 1.0
C      1  0.5102240000000  0.5360340000000  0.3958780000000 1.0
C      1  0.4999980000000  0.5375290000000  0.5017170000000 1.0
C      1  0.4815200000000  0.5514260000000  0.3962360000000 1.0
C      1  0.4452890000000  0.4145670000000  0.5427390000000 1.0
C      1  0.4881110000000  0.4807200000000  0.5542780000000 1.0
C      1  0.4978110000000  0.4345700000000  0.5816570000000 1.0
C      1  0.5457940000000  0.5275330000000  0.4833820000000 1.0
C      1  0.4358580000000  0.4501350000000  0.4143790000000 1.0
C      1  0.4972640000000  0.5455380000000  0.4710100000000 1.0
C      1  0.4142270000000  0.4953010000000  0.4228250000000 1.0
C      1  0.4791580000000  0.5867090000000  0.4270740000000 1.0
C      1  0.5915330000000  0.4549160000000  0.5154650000000 1.0
C      1  0.3950540000000  0.5098570000000  0.4698660000000 1.0
C      1  0.5682440000000  0.5572730000000  0.5773380000000 1.0
C      1  0.5256050000000  0.5563600000000  0.4451300000000 1.0
C      1  0.5622340000000  0.5253080000000  0.4057470000000 1.0
C      1  0.4085940000000  0.4373950000000  0.5117300000000 1.0
C      1  0.4863930000000  0.5387130000000  0.6138970000000 1.0
C      1  0.5680070000000  0.4929190000000  0.5291580000000 1.0
C      1  0.5243710000000  0.4034580000000  0.5368050000000 1.0
C      1  0.4377060000000  0.4212940000000  0.5107840000000 1.0
C      1  0.5625050000000  0.6016080000000  0.5166960000000 1.0
C      1  0.4240070000000  0.4341980000000  0.4594310000000 1.0
C      1  0.4823040000000  0.4760440000000  0.3954530000000 1.0
C      1  0.4279990000000  0.4717470000000  0.5057690000000 1.0
C      1  0.5687630000000  0.4094880000000  0.5020720000000 1.0
C      1  0.5403810000000  0.4962620000000  0.5138740000000 1.0
C      1  0.5215410000000  0.4166030000000  0.4315770000000 1.0
C      1  0.5391750000000  0.4949510000000  0.6039830000000 1.0
C      1  0.5078710000000  0.5936500000000  0.4318470000000 1.0
C      1  0.5690220000000  0.4858710000000  0.4311810000000 1.0
C      1  0.5168960000000  0.4435680000000  0.4520420000000 1.0
C      1  0.4683890000000  0.4980120000000  0.4406500000000 1.0
C      1  0.4340890000000  0.5697650000000  0.4478360000000 1.0
C      1  0.4738530000000  0.4457640000000  0.6114030000000 1.0
C      1  0.4663620000000  0.6106330000000  0.4763000000000 1.0
C      1  0.4385020000000  0.4063910000000  0.4625270000000 1.0
C      1  0.5936020000000  0.5604250000000  0.5116800000000 1.0
C      1  0.5075110000000  0.4864190000000  0.6089760000000 1.0
C      1  0.4665160000000  0.4475260000000  0.5490450000000 1.0
C      1  0.5507520000000  0.5208510000000  0.5571700000000 1.0
C      1  0.5657590000000  0.5724540000000  0.4221390000000 1.0
C      1  0.5676820000000  0.4561720000000  0.4407970000000 1.0
C      1  0.4683860000000  0.4720500000000  0.4587950000000 1.0
C      1  0.4358690000000  0.6015060000000  0.5178600000000 1.0
C      1  0.5045310000000  0.5602700000000  0.5378340000000 1.0
C      1  0.5604730000000  0.4217560000000  0.5329220000000 1.0
C      1  0.5228370000000  0.6074220000000  0.4812110000000 1.0
C      1  0.4963750000000  0.4499310000000  0.5544710000000 1.0
C      1  0.4330710000000  0.4891100000000  0.5875210000000 1.0
C      1  0.4398940000000  0.6046060000000  0.4898560000000 1.0
C      1  0.5420370000000  0.4487820000000  0.4005170000000 1.0
C      1  0.3959630000000  0.4644440000000  0.5010500000000 1.0
C      1  0.5361280000000  0.4669660000000  0.4437590000000 1.0
C      1  0.4274050000000  0.5549300000000  0.5337440000000 1.0
C      1  0.4732650000000  0.5588860000000  0.5000640000000 1.0
C      1  0.5680690000000  0.5343930000000  0.5363740000000 1.0
C      1  0.5088090000000  0.5053770000000  0.4012120000000 1.0
C      1  0.4811240000000  0.5091130000000  0.5704870000000 1.0
C      1  0.3823690000000  0.5148270000000  0.5074660000000 1.0
C      1  0.5026000000000  0.3876050000000  0.4888900000000 1.0
C      1  0.5275810000000  0.5254450000000  0.4302080000000 1.0
C      1  0.5496120000000  0.4336810000000  0.4262150000000 1.0
C      1  0.5432520000000  0.5625570000000  0.5293480000000 1.0
C      1  0.4877010000000  0.5191120000000  0.4242180000000 1.0
C      1  0.4638350000000  0.4065340000000  0.4436650000000 1.0
C      1  0.4199250000000  0.5555520000000  0.4756690000000 1.0
C      1  0.3998460000000  0.5395190000000  0.5212730000000 1.0
C      1  0.4483800000000  0.5432470000000  0.4824490000000 1.0
C      1  0.5096800000000  0.6111970000000  0.5367690000000 1.0
C      1  0.5311010000000  0.4286110000000  0.5067090000000 1.0
C      1  0.5571590000000  0.4593000000000  0.6023900000000 1.0
C      1  0.4616370000000  0.4373220000000  0.4954620000000 1.0
C      1  0.5335280000000  0.6009710000000  0.5243120000000 1.0
C      1  0.4902390000000  0.4162430000000  0.4247790000000 1.0
C      1  0.4500500000000  0.4622150000000  0.6116560000000 1.0
C      1  0.4485820000000  0.4337750000000  0.5707030000000 1.0
C      1  0.4638610000000  0.5060800000000  0.4792110000000 1.0
C      1  0.5821590000000  0.5833660000000  0.5277310000000 1.0
C      1  0.5923860000000  0.5285700000000  0.4750960000000 1.0
C      1  0.5208940000000  0.4847090000000  0.5776590000000 1.0
C      1  0.5901140000000  0.4333380000000  0.4905810000000 1.0
C      1  0.4138020000000  0.4653840000000  0.5619210000000 1.0
C      1  0.5624040000000  0.5010540000000  0.4905290000000 1.0
C      1  0.5209640000000  0.3961660000000  0.4659270000000 1.0
C      1  0.4124840000000  0.5292820000000  0.5503990000000 1.0
C      1  0.5271410000000  0.5389010000000  0.5737290000000 1.0
C      1  0.4908160000000  0.5064420000000  0.5318160000000 1.0
C      1  0.3773390000000  0.4882920000000  0.5099570000000 1.0
C      1  0.5830170000000  0.5570270000000  0.4851770000000 1.0
C      1  0.5064060000000  0.5207980000000  0.5845340000000 1.0
C      1  0.4668540000000  0.4937730000000  0.5107560000000 1.0
C      1  0.4917930000000  0.6157920000000  0.4897620000000 1.0
C      1  0.5377340000000  0.5483710000000  0.4068420000000 1.0
C      1  0.4207680000000  0.4382300000000  0.5425390000000 1.0
C      1  0.5111680000000  0.5192410000000  0.6177240000000 1.0
C      1  0.5265210000000  0.5031410000000  0.4678060000000 1.0
C      1  0.4406780000000  0.4883490000000  0.6213840000000 1.0
C      1  0.5706530000000  0.5449710000000  0.4290320000000 1.0
C      1  0.5347160000000  0.4604340000000  0.5576090000000 1.0
C      1  0.5047490000000  0.4552870000000  0.6059310000000 1.0
C      1  0.3987870000000  0.5155610000000  0.4421510000000 1.0
C      1  0.4580290000000  0.4857700000000  0.5412560000000 1.0
C      1  0.4596490000000  0.5877930000000  0.4529540000000 1.0
C      1  0.5132680000000  0.4517180000000  0.3909790000000 1.0
C      1  0.4506910000000  0.4336390000000  0.4296440000000 1.0
C      1  0.4587630000000  0.5351650000000  0.4017530000000 1.0
C      1  0.5592570000000  0.4279780000000  0.4766540000000 1.0
C      1  0.5402100000000  0.3959760000000  0.5121410000000 1.0
C      1  0.4314260000000  0.4975420000000  0.4851510000000 1.0
C      1  0.5794320000000  0.5234940000000  0.5062230000000 1.0
C      1  0.5709030000000  0.4781380000000  0.5878480000000 1.0
C      1  0.5458060000000  0.4146230000000  0.4546610000000 1.0
C      1  0.4726940000000  0.4001560000000  0.5438410000000 1.0
C      1  0.6043280000000  0.4795820000000  0.4609430000000 1.0
C      1  0.4987660000000  0.5897620000000  0.5556360000000 1.0
C      1  0.5339400000000  0.5792220000000  0.4207380000000 1.0
C      1  0.5865950000000  0.5070170000000  0.4513450000000 1.0
C      1  0.5066720000000  0.5934210000000  0.4604020000000 1.0
C      1  0.4375510000000  0.5832570000000  0.5382220000000 1.0
C      1  0.4867400000000  0.4445600000000  0.4085220000000 1.0
C      1  0.5332040000000  0.5377450000000  0.5082960000000 1.0
C      1  0.5216490000000  0.4725040000000  0.4817540000000 1.0
C      1  0.4704250000000  0.3876270000000  0.4932800000000 1.0
C      1  0.5105580000000  0.5051510000000  0.5044200000000 1.0
C      1  0.5149920000000  0.5710700000000  0.5748600000000 1.0
C      1  0.4909840000000  0.4797250000000  0.4267000000000 1.0
C      1  0.5597730000000  0.5365290000000  0.4536170000000 1.0
C      1  0.5067430000000  0.4602590000000  0.5085190000000 1.0
C      1  0.5339830000000  0.4490840000000  0.5901360000000 1.0
C      1  0.5940580000000  0.5043890000000  0.5476030000000 1.0
C      1  0.4899110000000  0.4327330000000  0.5056960000000 1.0
C      1  0.4174240000000  0.4679740000000  0.4268090000000 1.0
C      1  0.4050320000000  0.4793260000000  0.4742090000000 1.0
C      1  0.5760000000000  0.5075360000000  0.5751190000000 1.0
C      1  0.5487960000000  0.4580830000000  0.4821870000000 1.0
C      1  0.4326060000000  0.4549200000000  0.5857860000000 1.0
C      1  0.4376320000000  0.5205360000000  0.5053670000000 1.0
C      1  0.4929440000000  0.4909820000000  0.4810700000000 1.0
END
