TITL C-2782232-2968-1138 -0.00179372355069393 125000 -747.72035795082 0 0 127 (C1) n - 1
REM
REM in /home/nfs/bkarasulu/CARBON/AIRSS/Generating-Clusters/REBO/Higher-Symm/SD-CG/HFTN-CG
REM
REM
REM
REM
REM
REM ./C.cell (12c818d87b63d06a65506943cc24bca4)
REM
REM compiler GCC version 9.2.1 20190827 (Red Hat 9.2.1-1)
REM options -cpp -mtune=generic -march=x86-64 -g -O0 -fpre-include=/usr/include/finclude/math-vector-fortran.h
REM seed -1560130805 1018751429 -852543393 148405970 1375192231 597365939 -236720488 1687196982 -435356947 -1285698319 829836406 -2136495571 -534957747 -1993108973 1319390628 -79471527 -107821635 1929125234 797574445 834171936 505622167 -1693480818 -1879166303 -2030158881 -1510018069 544992018 489434117 -2030581632 -1205785482 2068058503 600404946 35024725 -1698731056
REM
CELL 1.54180   50.00000   50.00000   50.00000   90.00000   90.00000   90.00000
LATT -1
SFAC C  
C      1  0.4740800000000  0.5558000000000  0.4704490000000 1.0
C      1  0.4539000000000  0.4750990000000  0.4815270000000 1.0
C      1  0.5203590000000  0.4370390000000  0.4679850000000 1.0
C      1  0.5664200000000  0.5181880000000  0.4654540000000 1.0
C      1  0.4678140000000  0.5454650000000  0.5208490000000 1.0
C      1  0.4443270000000  0.4770260000000  0.5297620000000 1.0
C      1  0.5132850000000  0.4398360000000  0.5256410000000 1.0
C      1  0.5600090000000  0.5283990000000  0.5278260000000 1.0
C      1  0.5826410000000  0.4667400000000  0.4383950000000 1.0
C      1  0.5215360000000  0.5505130000000  0.4510590000000 1.0
C      1  0.4311640000000  0.5255590000000  0.4475130000000 1.0
C      1  0.4700920000000  0.4486980000000  0.4422590000000 1.0
C      1  0.5632530000000  0.4735460000000  0.5475380000000 1.0
C      1  0.5266490000000  0.5643900000000  0.5654000000000 1.0
C      1  0.4349970000000  0.5319580000000  0.5622740000000 1.0
C      1  0.4619090000000  0.4540030000000  0.5477600000000 1.0
C      1  0.5780780000000  0.4879900000000  0.5699450000000 1.0
C      1  0.5129850000000  0.5775620000000  0.5844720000000 1.0
C      1  0.4253860000000  0.5081250000000  0.5739920000000 1.0
C      1  0.4794780000000  0.4376130000000  0.5586900000000 1.0
C      1  0.5797950000000  0.4900570000000  0.4234850000000 1.0
C      1  0.5104800000000  0.5695210000000  0.4342440000000 1.0
C      1  0.4239170000000  0.5089270000000  0.4280680000000 1.0
C      1  0.4891970000000  0.4296870000000  0.4330170000000 1.0
C      1  0.4248250000000  0.5260460000000  0.5112130000000 1.0
C      1  0.4579840000000  0.4149050000000  0.5298690000000 1.0
C      1  0.5820300000000  0.4732430000000  0.5196310000000 1.0
C      1  0.5233160000000  0.5750470000000  0.5275500000000 1.0
C      1  0.4223590000000  0.5276510000000  0.4781990000000 1.0
C      1  0.4623420000000  0.4140990000000  0.4981560000000 1.0
C      1  0.5787500000000  0.4718190000000  0.4702900000000 1.0
C      1  0.5262500000000  0.5782790000000  0.4792460000000 1.0
C      1  0.4891550000000  0.4785990000000  0.4630200000000 1.0
C      1  0.5288760000000  0.4817620000000  0.4979420000000 1.0
C      1  0.5261460000000  0.5367600000000  0.4794770000000 1.0
C      1  0.4758240000000  0.5160220000000  0.4676190000000 1.0
C      1  0.4815400000000  0.4809750000000  0.5157390000000 1.0
C      1  0.5350950000000  0.4839900000000  0.5314610000000 1.0
C      1  0.5101630000000  0.5433920000000  0.5480640000000 1.0
C      1  0.4610490000000  0.5271560000000  0.5462760000000 1.0
C      1  0.5228510000000  0.4621730000000  0.4234700000000 1.0
C      1  0.5415590000000  0.5280970000000  0.4246930000000 1.0
C      1  0.4736430000000  0.5416460000000  0.4196690000000 1.0
C      1  0.4611530000000  0.4837670000000  0.4068470000000 1.0
C      1  0.5163820000000  0.4640780000000  0.5700090000000 1.0
C      1  0.5553540000000  0.5276160000000  0.5815780000000 1.0
C      1  0.4815190000000  0.5410980000000  0.5937840000000 1.0
C      1  0.4684140000000  0.4884280000000  0.5668520000000 1.0
C      1  0.5303970000000  0.5166640000000  0.5889870000000 1.0
C      1  0.4876560000000  0.5229940000000  0.6138070000000 1.0
C      1  0.4829070000000  0.4908720000000  0.5908520000000 1.0
C      1  0.5164820000000  0.4700600000000  0.5966850000000 1.0
C      1  0.5210640000000  0.5214800000000  0.4007780000000 1.0
C      1  0.4876370000000  0.5204800000000  0.4002650000000 1.0
C      1  0.4762380000000  0.4858680000000  0.3843050000000 1.0
C      1  0.5241680000000  0.4692710000000  0.3965170000000 1.0
C      1  0.4982420000000  0.5906840000000  0.5184700000000 1.0
C      1  0.4084210000000  0.4968520000000  0.5180440000000 1.0
C      1  0.4899430000000  0.4074270000000  0.5258070000000 1.0
C      1  0.5981780000000  0.5016250000000  0.5097530000000 1.0
C      1  0.5006760000000  0.5949030000000  0.4895200000000 1.0
C      1  0.4067100000000  0.5012350000000  0.4859830000000 1.0
C      1  0.4926040000000  0.4056480000000  0.4933900000000 1.0
C      1  0.5967720000000  0.4967110000000  0.4795890000000 1.0
C      1  0.4759990000000  0.5882160000000  0.4761180000000 1.0
C      1  0.4010590000000  0.4711600000000  0.4887900000000 1.0
C      1  0.5246730000000  0.4090320000000  0.4841840000000 1.0
C      1  0.5909450000000  0.5301670000000  0.4826900000000 1.0
C      1  0.4726770000000  0.5788640000000  0.5268950000000 1.0
C      1  0.4021860000000  0.4659750000000  0.5217030000000 1.0
C      1  0.5232520000000  0.4102760000000  0.5181350000000 1.0
C      1  0.5901970000000  0.5341220000000  0.5163870000000 1.0
C      1  0.4214280000000  0.5541000000000  0.5512460000000 1.0
C      1  0.4295950000000  0.4577690000000  0.5540530000000 1.0
C      1  0.5621030000000  0.4410280000000  0.5532830000000 1.0
C      1  0.5518060000000  0.5441640000000  0.5564610000000 1.0
C      1  0.4545910000000  0.5472410000000  0.4439760000000 1.0
C      1  0.4560290000000  0.4500760000000  0.4659920000000 1.0
C      1  0.5783410000000  0.4367410000000  0.4343900000000 1.0
C      1  0.5531510000000  0.5440840000000  0.4510570000000 1.0
C      1  0.5568540000000  0.4939680000000  0.4831090000000 1.0
C      1  0.5017530000000  0.5551640000000  0.4868740000000 1.0
C      1  0.4619930000000  0.5020240000000  0.4879350000000 1.0
C      1  0.4939400000000  0.4517880000000  0.4786330000000 1.0
C      1  0.5593300000000  0.4985340000000  0.5167360000000 1.0
C      1  0.5000080000000  0.5509240000000  0.5187250000000 1.0
C      1  0.4519340000000  0.5074910000000  0.5200460000000 1.0
C      1  0.4901880000000  0.4533600000000  0.5068340000000 1.0
C      1  0.4442020000000  0.4294180000000  0.4822510000000 1.0
C      1  0.5705530000000  0.4394740000000  0.4645130000000 1.0
C      1  0.5520500000000  0.5665940000000  0.4735180000000 1.0
C      1  0.4344330000000  0.5581990000000  0.4693520000000 1.0
C      1  0.4341620000000  0.4262280000000  0.5413200000000 1.0
C      1  0.5682440000000  0.4421460000000  0.5236980000000 1.0
C      1  0.5498380000000  0.5666450000000  0.5329760000000 1.0
C      1  0.4262540000000  0.5561220000000  0.5231440000000 1.0
C      1  0.4876210000000  0.5249650000000  0.4447490000000 1.0
C      1  0.4757420000000  0.4770990000000  0.4316220000000 1.0
C      1  0.5076650000000  0.4844870000000  0.4369750000000 1.0
C      1  0.5130510000000  0.5131610000000  0.4329410000000 1.0
C      1  0.4845710000000  0.5302640000000  0.5651090000000 1.0
C      1  0.4842000000000  0.4868500000000  0.5431410000000 1.0
C      1  0.5137880000000  0.4880490000000  0.5511050000000 1.0
C      1  0.5134410000000  0.5147990000000  0.5636010000000 1.0
C      1  0.5740530000000  0.5644900000000  0.5183380000000 1.0
C      1  0.4446680000000  0.5771210000000  0.5136260000000 1.0
C      1  0.4107850000000  0.4365880000000  0.5260560000000 1.0
C      1  0.5537090000000  0.4224630000000  0.5091200000000 1.0
C      1  0.5750630000000  0.5594670000000  0.4894400000000 1.0
C      1  0.4474950000000  0.5815530000000  0.4854680000000 1.0
C      1  0.4166390000000  0.4411640000000  0.4941440000000 1.0
C      1  0.5556750000000  0.4224400000000  0.4796460000000 1.0
C      1  0.4896720000000  0.5681020000000  0.4167440000000 1.0
C      1  0.4347470000000  0.4921010000000  0.4099400000000 1.0
C      1  0.5168360000000  0.4375590000000  0.4374190000000 1.0
C      1  0.5673150000000  0.5116810000000  0.4333180000000 1.0
C      1  0.4901820000000  0.5680530000000  0.5967900000000 1.0
C      1  0.4399980000000  0.4845550000000  0.5687610000000 1.0
C      1  0.5069050000000  0.4420010000000  0.5550340000000 1.0
C      1  0.5777320000000  0.5110450000000  0.5838590000000 1.0
C      1  0.5288020000000  0.4510780000000  0.4975450000000 1.0
C      1  0.5418320000000  0.5300490000000  0.4999370000000 1.0
C      1  0.4376250000000  0.4650880000000  0.5028610000000 1.0
C      1  0.4540310000000  0.5429100000000  0.4932000000000 1.0
C      1  0.5106510000000  0.5004430000000  0.6073310000000 1.0
C      1  0.5068850000000  0.4944810000000  0.3875870000000 1.0
C      1  0.4995560000000  0.4890970000000  0.4916810000000 1.0
END
