TITL C-2782240-8521-1205 -0.00185203639840316 125000 -546.849857308775 0 0 91 (C1) n - 1
REM
REM in /home/nfs/bkarasulu/CARBON/AIRSS/Generating-Clusters/REBO/Higher-Symm/SD-CG/HFTN-CG
REM
REM
REM
REM
REM
REM ./C.cell (12c818d87b63d06a65506943cc24bca4)
REM
REM compiler GCC version 9.2.1 20190827 (Red Hat 9.2.1-1)
REM options -cpp -mtune=generic -march=x86-64 -g -O0 -fpre-include=/usr/include/finclude/math-vector-fortran.h
REM seed 1484352515 -799062548 -829401014 -436281951 -1964902165 -1563750212 -2109246648 2105175875 -244328969 251186455 1622211761 843399567 1791783084 973943961 1910707041 377442484 1263642082 -316272564 205002568 -235373231 335775597 -1924040727 1756994002 335033526 -1532201807 1745989411 -1407898383 -2068514366 -517471056 1672038460 963273704 -2121565982 1859097522
REM
CELL 1.54180   50.00000   50.00000   50.00000   90.00000   90.00000   90.00000
LATT -1
SFAC C  
C      1  0.4696050000000  0.4543430000000  0.5694230000000 1.0
C      1  0.5742840000000  0.4597850000000  0.4873180000000 1.0
C      1  0.4540240000000  0.4561920000000  0.4402170000000 1.0
C      1  0.4685400000000  0.5388200000000  0.5615010000000 1.0
C      1  0.5733430000000  0.5386240000000  0.4916580000000 1.0
C      1  0.4553570000000  0.5384150000000  0.4406250000000 1.0
C      1  0.5353720000000  0.4604970000000  0.5662190000000 1.0
C      1  0.4284770000000  0.4603270000000  0.4898590000000 1.0
C      1  0.5409830000000  0.4620360000000  0.4423280000000 1.0
C      1  0.5296640000000  0.5418740000000  0.5676310000000 1.0
C      1  0.4209170000000  0.5448640000000  0.4868090000000 1.0
C      1  0.5429040000000  0.5446630000000  0.4409270000000 1.0
C      1  0.5881280000000  0.4611740000000  0.5135150000000 1.0
C      1  0.4799780000000  0.4614040000000  0.4280370000000 1.0
C      1  0.4452260000000  0.4627280000000  0.5533220000000 1.0
C      1  0.5854820000000  0.5327860000000  0.5181950000000 1.0
C      1  0.4772350000000  0.5399730000000  0.4230970000000 1.0
C      1  0.4433720000000  0.5380310000000  0.5488730000000 1.0
C      1  0.4197130000000  0.4652870000000  0.5168870000000 1.0
C      1  0.5193460000000  0.4632880000000  0.4233200000000 1.0
C      1  0.5605960000000  0.4613510000000  0.5528520000000 1.0
C      1  0.4107790000000  0.5421040000000  0.5146280000000 1.0
C      1  0.5212480000000  0.5465150000000  0.4229400000000 1.0
C      1  0.5569560000000  0.5327950000000  0.5581540000000 1.0
C      1  0.5993350000000  0.4808460000000  0.5310080000000 1.0
C      1  0.4857660000000  0.4847350000000  0.4137410000000 1.0
C      1  0.4272990000000  0.4848820000000  0.5576150000000 1.0
C      1  0.5956900000000  0.5122150000000  0.5355160000000 1.0
C      1  0.4869810000000  0.5161160000000  0.4106510000000 1.0
C      1  0.4249560000000  0.5163850000000  0.5525670000000 1.0
C      1  0.4080230000000  0.4866640000000  0.5324930000000 1.0
C      1  0.5168560000000  0.4899910000000  0.4084500000000 1.0
C      1  0.5807000000000  0.4817500000000  0.5562200000000 1.0
C      1  0.4036580000000  0.5185640000000  0.5297030000000 1.0
C      1  0.5167820000000  0.5223730000000  0.4075660000000 1.0
C      1  0.5771790000000  0.5127280000000  0.5616340000000 1.0
C      1  0.4800330000000  0.5697350000000  0.4710770000000 1.0
C      1  0.4880150000000  0.5717930000000  0.5250850000000 1.0
C      1  0.5308830000000  0.5723240000000  0.4967600000000 1.0
C      1  0.4839860000000  0.4345030000000  0.4755860000000 1.0
C      1  0.4857910000000  0.4225410000000  0.5287000000000 1.0
C      1  0.5331670000000  0.4337600000000  0.5075500000000 1.0
C      1  0.5126720000000  0.5740400000000  0.4681630000000 1.0
C      1  0.5184060000000  0.5711300000000  0.5212220000000 1.0
C      1  0.4673780000000  0.5685090000000  0.5028530000000 1.0
C      1  0.5171620000000  0.4349240000000  0.4774750000000 1.0
C      1  0.5157550000000  0.4256820000000  0.5312290000000 1.0
C      1  0.4692880000000  0.4332540000000  0.5064460000000 1.0
C      1  0.4629750000000  0.4814850000000  0.4967110000000 1.0
C      1  0.5093580000000  0.4762770000000  0.5316270000000 1.0
C      1  0.5154730000000  0.4834510000000  0.4818730000000 1.0
C      1  0.4569890000000  0.5305870000000  0.4962920000000 1.0
C      1  0.5234160000000  0.5274340000000  0.5309250000000 1.0
C      1  0.5174410000000  0.5158540000000  0.4770910000000 1.0
C      1  0.5299240000000  0.4735190000000  0.5094270000000 1.0
C      1  0.4824010000000  0.4721010000000  0.5360650000000 1.0
C      1  0.4877150000000  0.4741830000000  0.4761840000000 1.0
C      1  0.5355360000000  0.5298870000000  0.5012710000000 1.0
C      1  0.4949950000000  0.5145690000000  0.5318130000000 1.0
C      1  0.4860740000000  0.5222830000000  0.4796430000000 1.0
C      1  0.4411760000000  0.5643670000000  0.4818510000000 1.0
C      1  0.5154510000000  0.5618870000000  0.5521440000000 1.0
C      1  0.5433950000000  0.5655000000000  0.4598450000000 1.0
C      1  0.4453840000000  0.4383250000000  0.4852130000000 1.0
C      1  0.5196680000000  0.4367400000000  0.5605690000000 1.0
C      1  0.5425390000000  0.4382050000000  0.4568450000000 1.0
C      1  0.5590940000000  0.5628060000000  0.4860970000000 1.0
C      1  0.4841980000000  0.5618370000000  0.5543560000000 1.0
C      1  0.4524710000000  0.5627370000000  0.4545840000000 1.0
C      1  0.5565970000000  0.4372810000000  0.4831540000000 1.0
C      1  0.4879150000000  0.4346160000000  0.5582270000000 1.0
C      1  0.4551610000000  0.4340260000000  0.4577410000000 1.0
C      1  0.4316340000000  0.5173260000000  0.4778000000000 1.0
C      1  0.5231390000000  0.5116370000000  0.5600810000000 1.0
C      1  0.5421800000000  0.5182840000000  0.4534190000000 1.0
C      1  0.4369000000000  0.4871330000000  0.4769440000000 1.0
C      1  0.5213590000000  0.4843340000000  0.5571940000000 1.0
C      1  0.5395130000000  0.4863130000000  0.4592360000000 1.0
C      1  0.5570000000000  0.5137640000000  0.4821000000000 1.0
C      1  0.4822200000000  0.5135330000000  0.5579200000000 1.0
C      1  0.4594890000000  0.5150590000000  0.4596460000000 1.0
C      1  0.5548190000000  0.4829500000000  0.4880900000000 1.0
C      1  0.4759060000000  0.4860140000000  0.5634830000000 1.0
C      1  0.4618720000000  0.4823730000000  0.4567940000000 1.0
C      1  0.4963250000000  0.5604230000000  0.4414570000000 1.0
C      1  0.5556590000000  0.4548230000000  0.5220790000000 1.0
C      1  0.5021660000000  0.4477320000000  0.4490550000000 1.0
C      1  0.4437290000000  0.5499100000000  0.5190530000000 1.0
C      1  0.5547590000000  0.5401980000000  0.5269050000000 1.0
C      1  0.4545120000000  0.4606260000000  0.5202030000000 1.0
C      1  0.4774590000000  0.5078580000000  0.5082230000000 1.0
END
