TITL C-2782225-7408-1484 -0.0028608687698849 125000 -596.706688298983 0 0 103 (C1) n - 1
REM
REM in /home/nfs/bkarasulu/CARBON/AIRSS/Generating-Clusters/REBO/Higher-Symm/SD-CG/HFTN-CG
REM
REM
REM
REM
REM
REM ./C.cell (12c818d87b63d06a65506943cc24bca4)
REM
REM compiler GCC version 9.2.1 20190827 (Red Hat 9.2.1-1)
REM options -cpp -mtune=generic -march=x86-64 -g -O0 -fpre-include=/usr/include/finclude/math-vector-fortran.h
REM seed 361333272 566366142 -1851834520 1936772770 838945099 1683407396 -1049491729 1397822524 -972072923 -1335275361 1389801711 -52802998 255029028 -1541307836 -1756160391 -1828320170 2127479475 -1186845730 -1964277918 -281934184 1448585339 -1370660666 930892799 1230240765 -1978204564 1300306289 1802023469 -1081331750 -120709689 1350071632 -112994222 -1821701315 1506086235
REM
CELL 1.54180   50.00000   50.00000   50.00000   90.00000   90.00000   90.00000
LATT -1
SFAC C  
C      1  0.5583250000000  0.5479600000000  0.4396400000000 1.0
C      1  0.4710360000000  0.5118790000000  0.4100060000000 1.0
C      1  0.5221550000000  0.4578730000000  0.5095320000000 1.0
C      1  0.5444240000000  0.5246740000000  0.4856020000000 1.0
C      1  0.4757510000000  0.4533220000000  0.4362750000000 1.0
C      1  0.5707930000000  0.4435870000000  0.5378620000000 1.0
C      1  0.4104750000000  0.5210340000000  0.5087630000000 1.0
C      1  0.4983480000000  0.5566690000000  0.5045210000000 1.0
C      1  0.4525180000000  0.4284770000000  0.5082970000000 1.0
C      1  0.5338440000000  0.4127700000000  0.4836180000000 1.0
C      1  0.5211820000000  0.5149300000000  0.5044700000000 1.0
C      1  0.4846010000000  0.5212390000000  0.5352950000000 1.0
C      1  0.5738120000000  0.5101060000000  0.4949580000000 1.0
C      1  0.4533440000000  0.5506500000000  0.5199440000000 1.0
C      1  0.5509220000000  0.4334520000000  0.4742850000000 1.0
C      1  0.5377140000000  0.5372470000000  0.5244290000000 1.0
C      1  0.4843200000000  0.4918360000000  0.4410200000000 1.0
C      1  0.5505530000000  0.5268410000000  0.5496200000000 1.0
C      1  0.5518180000000  0.4616220000000  0.4588110000000 1.0
C      1  0.4463050000000  0.4357560000000  0.4816880000000 1.0
C      1  0.5126520000000  0.5836040000000  0.5095910000000 1.0
C      1  0.4100650000000  0.5442640000000  0.4859630000000 1.0
C      1  0.4855270000000  0.5960330000000  0.4701010000000 1.0
C      1  0.6200650000000  0.4640470000000  0.5383270000000 1.0
C      1  0.5278180000000  0.4785540000000  0.4212670000000 1.0
C      1  0.5750600000000  0.4636950000000  0.5036530000000 1.0
C      1  0.4791230000000  0.4252100000000  0.5377680000000 1.0
C      1  0.4975290000000  0.5264070000000  0.4229760000000 1.0
C      1  0.5115760000000  0.5431260000000  0.4491800000000 1.0
C      1  0.5025450000000  0.4337030000000  0.5521030000000 1.0
C      1  0.4672540000000  0.4786690000000  0.4165510000000 1.0
C      1  0.5067160000000  0.4889460000000  0.4637000000000 1.0
C      1  0.4102290000000  0.5227530000000  0.5398520000000 1.0
C      1  0.4315270000000  0.5500350000000  0.4698180000000 1.0
C      1  0.4428260000000  0.5272320000000  0.5011560000000 1.0
C      1  0.4880590000000  0.4004070000000  0.4549550000000 1.0
C      1  0.4716890000000  0.4647320000000  0.4917880000000 1.0
C      1  0.4640010000000  0.4772250000000  0.5800610000000 1.0
C      1  0.5189440000000  0.4595080000000  0.4676100000000 1.0
C      1  0.5066990000000  0.5423110000000  0.5296010000000 1.0
C      1  0.5349040000000  0.4997800000000  0.4559220000000 1.0
C      1  0.4599370000000  0.5387380000000  0.4259530000000 1.0
C      1  0.4756960000000  0.4071290000000  0.5129510000000 1.0
C      1  0.5052580000000  0.4208410000000  0.4760560000000 1.0
C      1  0.4810450000000  0.5347000000000  0.5909400000000 1.0
C      1  0.5539870000000  0.5571130000000  0.5067010000000 1.0
C      1  0.5373720000000  0.5318870000000  0.4562280000000 1.0
C      1  0.4584490000000  0.4583920000000  0.4607670000000 1.0
C      1  0.4383010000000  0.5295250000000  0.4471140000000 1.0
C      1  0.5211580000000  0.4490950000000  0.5386740000000 1.0
C      1  0.4985830000000  0.4487750000000  0.4908710000000 1.0
C      1  0.4564360000000  0.5589340000000  0.4809670000000 1.0
C      1  0.4936170000000  0.5678740000000  0.5573180000000 1.0
C      1  0.4996230000000  0.5134150000000  0.5856940000000 1.0
C      1  0.5814220000000  0.4977010000000  0.5234700000000 1.0
C      1  0.5566520000000  0.5748150000000  0.4484610000000 1.0
C      1  0.4891130000000  0.5834260000000  0.5323920000000 1.0
C      1  0.4971740000000  0.4292550000000  0.4440010000000 1.0
C      1  0.4752340000000  0.4889150000000  0.5140430000000 1.0
C      1  0.5351250000000  0.5811050000000  0.4662630000000 1.0
C      1  0.4642020000000  0.5875450000000  0.4869520000000 1.0
C      1  0.4765040000000  0.5038640000000  0.4687660000000 1.0
C      1  0.4129280000000  0.4888840000000  0.5868940000000 1.0
C      1  0.5082120000000  0.4602720000000  0.4358920000000 1.0
C      1  0.4464100000000  0.5015400000000  0.4317110000000 1.0
C      1  0.5942530000000  0.4668160000000  0.5296650000000 1.0
C      1  0.5475790000000  0.4599600000000  0.5499260000000 1.0
C      1  0.4855740000000  0.5568970000000  0.4340260000000 1.0
C      1  0.4588180000000  0.5343010000000  0.5466750000000 1.0
C      1  0.4347250000000  0.4894250000000  0.5697660000000 1.0
C      1  0.4725170000000  0.5509910000000  0.5688330000000 1.0
C      1  0.5522670000000  0.4878680000000  0.5324860000000 1.0
C      1  0.5502500000000  0.5297180000000  0.4184280000000 1.0
C      1  0.5768240000000  0.5439550000000  0.4969110000000 1.0
C      1  0.5200100000000  0.5514160000000  0.5582300000000 1.0
C      1  0.5052520000000  0.4274790000000  0.5784920000000 1.0
C      1  0.5046240000000  0.5759700000000  0.4551110000000 1.0
C      1  0.5519600000000  0.4520500000000  0.4974930000000 1.0
C      1  0.5379410000000  0.5787600000000  0.4951590000000 1.0
C      1  0.5447260000000  0.4058260000000  0.5096370000000 1.0
C      1  0.5623620000000  0.4204060000000  0.5256370000000 1.0
C      1  0.4883100000000  0.4898600000000  0.5727900000000 1.0
C      1  0.5547650000000  0.4871890000000  0.4784500000000 1.0
C      1  0.4214030000000  0.4802690000000  0.4743260000000 1.0
C      1  0.5534430000000  0.4688400000000  0.4290230000000 1.0
C      1  0.4780290000000  0.5426770000000  0.4895220000000 1.0
C      1  0.4899350000000  0.4916230000000  0.5446360000000 1.0
C      1  0.4910740000000  0.5165820000000  0.5034350000000 1.0
C      1  0.4483600000000  0.4614370000000  0.5567660000000 1.0
C      1  0.4372620000000  0.4784610000000  0.4512550000000 1.0
C      1  0.4525290000000  0.5164550000000  0.4737290000000 1.0
C      1  0.5432890000000  0.4971550000000  0.5635930000000 1.0
C      1  0.5453140000000  0.4719970000000  0.5807710000000 1.0
C      1  0.4362020000000  0.5118990000000  0.5500760000000 1.0
C      1  0.5261280000000  0.5233810000000  0.5736750000000 1.0
C      1  0.5356320000000  0.4873030000000  0.5063810000000 1.0
C      1  0.4403780000000  0.4747130000000  0.5013460000000 1.0
C      1  0.4537110000000  0.4432020000000  0.5375010000000 1.0
C      1  0.4649140000000  0.5763290000000  0.5159650000000 1.0
C      1  0.5786760000000  0.5190760000000  0.5444320000000 1.0
C      1  0.4103670000000  0.4916550000000  0.5010430000000 1.0
C      1  0.5256610000000  0.5104890000000  0.4245490000000 1.0
C      1  0.4454480000000  0.5016670000000  0.5206040000000 1.0
END
