TITL C-2782227-3064-281 0.000216871580150122 125000 -524.425669721991 0 0 92 (C1) n - 1
REM
REM in /home/nfs/bkarasulu/CARBON/AIRSS/Generating-Clusters/REBO/Higher-Symm/SD-CG/HFTN-CG
REM
REM
REM
REM
REM
REM ./C.cell (12c818d87b63d06a65506943cc24bca4)
REM
REM compiler GCC version 9.2.1 20190827 (Red Hat 9.2.1-1)
REM options -cpp -mtune=generic -march=x86-64 -g -O0 -fpre-include=/usr/include/finclude/math-vector-fortran.h
REM seed 480349071 173929547 1772792395 1194087532 161182220 -390480083 -2066501551 1716375474 -1091436138 -1450007329 1403559501 482273519 1695280493 -393976244 -295265459 -178792443 795048916 1311279313 642675613 1516190577 -872797833 -2127490761 -81668178 -2103344420 -1675283342 -1641139462 -565702288 187280825 1987735713 -647943515 -1658118509 -1030870850 -419527584
REM
CELL 1.54180   50.00000   50.00000   50.00000   90.00000   90.00000   90.00000
LATT -1
SFAC C  
C      1  0.4269240000000  0.4920270000000  0.5175220000000 1.0
C      1  0.4409470000000  0.4924600000000  0.4563820000000 1.0
C      1  0.4980120000000  0.4948330000000  0.4293410000000 1.0
C      1  0.5573450000000  0.4936030000000  0.4531670000000 1.0
C      1  0.5696650000000  0.4933510000000  0.5136160000000 1.0
C      1  0.5317120000000  0.4937940000000  0.5614010000000 1.0
C      1  0.4675730000000  0.4918370000000  0.5664270000000 1.0
C      1  0.4970180000000  0.5364030000000  0.4642240000000 1.0
C      1  0.5244110000000  0.5320180000000  0.4770270000000 1.0
C      1  0.5375230000000  0.5370750000000  0.5055870000000 1.0
C      1  0.5199960000000  0.5367610000000  0.5310360000000 1.0
C      1  0.4912250000000  0.5273220000000  0.5312860000000 1.0
C      1  0.4696580000000  0.5312680000000  0.5089470000000 1.0
C      1  0.4728310000000  0.5262020000000  0.4800030000000 1.0
C      1  0.4324560000000  0.5761260000000  0.4875180000000 1.0
C      1  0.4672050000000  0.5641910000000  0.4406400000000 1.0
C      1  0.5287410000000  0.5788420000000  0.4355080000000 1.0
C      1  0.5673120000000  0.5668710000000  0.4848030000000 1.0
C      1  0.5534350000000  0.5681760000000  0.5422650000000 1.0
C      1  0.4981750000000  0.5773350000000  0.5712340000000 1.0
C      1  0.4437860000000  0.5755100000000  0.5445280000000 1.0
C      1  0.4676590000000  0.4206860000000  0.5077150000000 1.0
C      1  0.4742850000000  0.4219620000000  0.4800820000000 1.0
C      1  0.4996810000000  0.4228680000000  0.4678330000000 1.0
C      1  0.5251420000000  0.4227240000000  0.4798380000000 1.0
C      1  0.5311850000000  0.4232250000000  0.5073430000000 1.0
C      1  0.5136160000000  0.4234950000000  0.5293230000000 1.0
C      1  0.4854770000000  0.4221540000000  0.5298080000000 1.0
C      1  0.4401180000000  0.4381540000000  0.5138620000000 1.0
C      1  0.4521940000000  0.4392570000000  0.4625630000000 1.0
C      1  0.4994330000000  0.4408540000000  0.4402710000000 1.0
C      1  0.5469080000000  0.4402260000000  0.4625030000000 1.0
C      1  0.5583520000000  0.4404980000000  0.5133650000000 1.0
C      1  0.5257030000000  0.4410700000000  0.5542680000000 1.0
C      1  0.4729480000000  0.4396180000000  0.5552330000000 1.0
C      1  0.4483430000000  0.5442830000000  0.5400750000000 1.0
C      1  0.4376160000000  0.5445020000000  0.4847850000000 1.0
C      1  0.4686170000000  0.5390510000000  0.4276870000000 1.0
C      1  0.5296360000000  0.5472180000000  0.4406440000000 1.0
C      1  0.5808680000000  0.5424100000000  0.4888530000000 1.0
C      1  0.5599670000000  0.5432460000000  0.5538520000000 1.0
C      1  0.4989710000000  0.5456050000000  0.5659840000000 1.0
C      1  0.4402820000000  0.4822880000000  0.5473310000000 1.0
C      1  0.4271260000000  0.4812640000000  0.4847360000000 1.0
C      1  0.4668920000000  0.4830110000000  0.4355560000000 1.0
C      1  0.5302020000000  0.4844060000000  0.4356820000000 1.0
C      1  0.5724960000000  0.4823900000000  0.4821010000000 1.0
C      1  0.5570830000000  0.4827750000000  0.5438910000000 1.0
C      1  0.5002820000000  0.4841860000000  0.5718170000000 1.0
C      1  0.4506480000000  0.5126480000000  0.4305600000000 1.0
C      1  0.5245580000000  0.5167170000000  0.4260540000000 1.0
C      1  0.5753800000000  0.5151610000000  0.4726100000000 1.0
C      1  0.5691500000000  0.5145550000000  0.5406540000000 1.0
C      1  0.5112530000000  0.5160080000000  0.5774260000000 1.0
C      1  0.4442640000000  0.5149820000000  0.5568910000000 1.0
C      1  0.4229210000000  0.5144840000000  0.4917600000000 1.0
C      1  0.4632180000000  0.5666010000000  0.4917770000000 1.0
C      1  0.4846030000000  0.5670080000000  0.4688840000000 1.0
C      1  0.5183510000000  0.5697550000000  0.4648110000000 1.0
C      1  0.5347660000000  0.5680490000000  0.4909190000000 1.0
C      1  0.5257560000000  0.5702900000000  0.5237480000000 1.0
C      1  0.4973550000000  0.5681620000000  0.5400870000000 1.0
C      1  0.4726730000000  0.5621310000000  0.5234890000000 1.0
C      1  0.5289490000000  0.4538710000000  0.4389440000000 1.0
C      1  0.5674230000000  0.4521780000000  0.4842870000000 1.0
C      1  0.5538710000000  0.4525890000000  0.5428650000000 1.0
C      1  0.4995570000000  0.4531930000000  0.5692100000000 1.0
C      1  0.4447940000000  0.4513320000000  0.5436100000000 1.0
C      1  0.4318200000000  0.4510130000000  0.4851070000000 1.0
C      1  0.4693760000000  0.4526090000000  0.4383790000000 1.0
C      1  0.5649940000000  0.5257560000000  0.5097470000000 1.0
C      1  0.5339850000000  0.5264000000000  0.5555900000000 1.0
C      1  0.4763660000000  0.5238420000000  0.5598140000000 1.0
C      1  0.4408100000000  0.5224410000000  0.5179330000000 1.0
C      1  0.4464430000000  0.5248740000000  0.4613510000000 1.0
C      1  0.4953000000000  0.5273860000000  0.4356230000000 1.0
C      1  0.5477720000000  0.5255300000000  0.4571400000000 1.0
C      1  0.4824580000000  0.4618530000000  0.5334360000000 1.0
C      1  0.4633180000000  0.4603390000000  0.5078630000000 1.0
C      1  0.4709640000000  0.4617140000000  0.4772450000000 1.0
C      1  0.4997970000000  0.4627420000000  0.4648180000000 1.0
C      1  0.5285890000000  0.4625010000000  0.4780870000000 1.0
C      1  0.5345290000000  0.4630100000000  0.5094890000000 1.0
C      1  0.5134800000000  0.4633940000000  0.5332300000000 1.0
C      1  0.5302800000000  0.4958470000000  0.5179230000000 1.0
C      1  0.5029570000000  0.4960750000000  0.5339880000000 1.0
C      1  0.4716700000000  0.4930510000000  0.5284660000000 1.0
C      1  0.4619250000000  0.4932310000000  0.4994800000000 1.0
C      1  0.4773480000000  0.4948810000000  0.4721130000000 1.0
C      1  0.5083680000000  0.4950310000000  0.4673500000000 1.0
C      1  0.5354000000000  0.4946250000000  0.4855670000000 1.0
C      1  0.5079700000000  0.5115270000000  0.4975670000000 1.0
END
