TITL C-2782230-7391-370 0.00142556920277056 125000 -607.90085541033 0 0 104 (C1) n - 1
REM
REM in /home/nfs/bkarasulu/CARBON/AIRSS/Generating-Clusters/REBO/Higher-Symm/SD-CG/HFTN-CG
REM
REM
REM
REM
REM
REM ./C.cell (12c818d87b63d06a65506943cc24bca4)
REM
REM compiler GCC version 9.2.1 20190827 (Red Hat 9.2.1-1)
REM options -cpp -mtune=generic -march=x86-64 -g -O0 -fpre-include=/usr/include/finclude/math-vector-fortran.h
REM seed 1750802877 410549933 1261855062 -726502410 -158762984 -92604469 -447328160 1646041179 2050459220 -116824767 -355974139 1099569445 817266657 -803334370 1047305996 906843579 -734714144 -1735274230 -1814578137 -1775372127 -2067899356 1287502519 -426893686 -478018094 -1277051390 -726874781 930851991 -166063593 853423801 -1083829071 1537351719 451820788 1910906454
REM
CELL 1.54180   50.00000   50.00000   50.00000   90.00000   90.00000   90.00000
LATT -1
SFAC C  
C      1  0.5403980000000  0.4278550000000  0.5536190000000 1.0
C      1  0.5916490000000  0.5261580000000  0.5494640000000 1.0
C      1  0.5080660000000  0.5746960000000  0.5422140000000 1.0
C      1  0.4210450000000  0.5299790000000  0.5559300000000 1.0
C      1  0.4479380000000  0.4339790000000  0.5533770000000 1.0
C      1  0.5347020000000  0.4354730000000  0.4399610000000 1.0
C      1  0.5932730000000  0.5320240000000  0.4504430000000 1.0
C      1  0.5102200000000  0.5826290000000  0.4524890000000 1.0
C      1  0.3946560000000  0.5174560000000  0.4606780000000 1.0
C      1  0.4449740000000  0.4405040000000  0.4444920000000 1.0
C      1  0.4468510000000  0.5655830000000  0.4549140000000 1.0
C      1  0.4077960000000  0.4601570000000  0.4856780000000 1.0
C      1  0.4741770000000  0.3940320000000  0.4713900000000 1.0
C      1  0.5828570000000  0.4636950000000  0.4594690000000 1.0
C      1  0.5707910000000  0.5798990000000  0.4745970000000 1.0
C      1  0.4442910000000  0.5869190000000  0.5191740000000 1.0
C      1  0.4016600000000  0.4749930000000  0.5387430000000 1.0
C      1  0.4803250000000  0.3912540000000  0.5204660000000 1.0
C      1  0.5722540000000  0.4518510000000  0.5441280000000 1.0
C      1  0.5713010000000  0.5768770000000  0.5286590000000 1.0
C      1  0.5501720000000  0.5257390000000  0.5604420000000 1.0
C      1  0.4659660000000  0.5407300000000  0.5714030000000 1.0
C      1  0.4499290000000  0.4957680000000  0.5695380000000 1.0
C      1  0.4930670000000  0.4575330000000  0.5562190000000 1.0
C      1  0.5495310000000  0.4987110000000  0.5699380000000 1.0
C      1  0.5472500000000  0.5283880000000  0.4396550000000 1.0
C      1  0.4792020000000  0.5233220000000  0.4438980000000 1.0
C      1  0.4454380000000  0.5028110000000  0.4499430000000 1.0
C      1  0.4903710000000  0.4568370000000  0.4425410000000 1.0
C      1  0.5664730000000  0.5100410000000  0.4305080000000 1.0
C      1  0.4985080000000  0.6129930000000  0.5118360000000 1.0
C      1  0.4414550000000  0.5342820000000  0.5127000000000 1.0
C      1  0.4226390000000  0.4229010000000  0.5130380000000 1.0
C      1  0.5196250000000  0.4264610000000  0.5113080000000 1.0
C      1  0.5705640000000  0.5023710000000  0.5112830000000 1.0
C      1  0.4953090000000  0.6159160000000  0.4846340000000 1.0
C      1  0.4370180000000  0.5319490000000  0.4842860000000 1.0
C      1  0.4212890000000  0.4353440000000  0.4877540000000 1.0
C      1  0.5185210000000  0.4271280000000  0.4833690000000 1.0
C      1  0.5687970000000  0.5038480000000  0.4838470000000 1.0
C      1  0.4685190000000  0.5739330000000  0.5110960000000 1.0
C      1  0.4240860000000  0.4900900000000  0.5241860000000 1.0
C      1  0.4717710000000  0.4180520000000  0.5141230000000 1.0
C      1  0.5622950000000  0.4506820000000  0.5114380000000 1.0
C      1  0.5629680000000  0.5509030000000  0.5151220000000 1.0
C      1  0.4698410000000  0.5735370000000  0.4788350000000 1.0
C      1  0.4215360000000  0.4864550000000  0.4935160000000 1.0
C      1  0.4694740000000  0.4201820000000  0.4823460000000 1.0
C      1  0.5602990000000  0.4517700000000  0.4809950000000 1.0
C      1  0.5623870000000  0.5527370000000  0.4853860000000 1.0
C      1  0.4930100000000  0.4388890000000  0.4751710000000 1.0
C      1  0.5498620000000  0.4820660000000  0.4717360000000 1.0
C      1  0.5379490000000  0.5399100000000  0.4703130000000 1.0
C      1  0.4671650000000  0.5406970000000  0.4773020000000 1.0
C      1  0.4480200000000  0.4911620000000  0.4762790000000 1.0
C      1  0.4951420000000  0.4377540000000  0.5217490000000 1.0
C      1  0.5542930000000  0.4806590000000  0.5237450000000 1.0
C      1  0.5391970000000  0.5357710000000  0.5302140000000 1.0
C      1  0.4675820000000  0.5441370000000  0.5188880000000 1.0
C      1  0.4522830000000  0.4841560000000  0.5382150000000 1.0
C      1  0.4959990000000  0.5286810000000  0.4231990000000 1.0
C      1  0.4523600000000  0.4853490000000  0.4287390000000 1.0
C      1  0.5193200000000  0.4658380000000  0.4044610000000 1.0
C      1  0.5776240000000  0.5125290000000  0.4057980000000 1.0
C      1  0.5217950000000  0.5402030000000  0.4247970000000 1.0
C      1  0.4655690000000  0.5667930000000  0.5788650000000 1.0
C      1  0.4552560000000  0.4740200000000  0.5886340000000 1.0
C      1  0.5138740000000  0.4672520000000  0.5802530000000 1.0
C      1  0.5239600000000  0.4930330000000  0.5815810000000 1.0
C      1  0.5398260000000  0.5493040000000  0.5782530000000 1.0
C      1  0.4772480000000  0.4916250000000  0.5198990000000 1.0
C      1  0.4991820000000  0.4703290000000  0.5278000000000 1.0
C      1  0.5245940000000  0.4870610000000  0.5221810000000 1.0
C      1  0.5187070000000  0.5175900000000  0.5158590000000 1.0
C      1  0.4880660000000  0.5224450000000  0.5288890000000 1.0
C      1  0.4757660000000  0.4910450000000  0.4880010000000 1.0
C      1  0.4964600000000  0.4724580000000  0.4718480000000 1.0
C      1  0.5212680000000  0.4918330000000  0.4674660000000 1.0
C      1  0.5185540000000  0.5201660000000  0.4844740000000 1.0
C      1  0.4887020000000  0.5172640000000  0.4750060000000 1.0
C      1  0.5434470000000  0.4297380000000  0.5257000000000 1.0
C      1  0.5774480000000  0.5250830000000  0.5258510000000 1.0
C      1  0.4923610000000  0.5881740000000  0.5237950000000 1.0
C      1  0.4233460000000  0.5206900000000  0.5294150000000 1.0
C      1  0.4458280000000  0.4233890000000  0.5286700000000 1.0
C      1  0.5406410000000  0.4327440000000  0.4674690000000 1.0
C      1  0.5760420000000  0.5279090000000  0.4715710000000 1.0
C      1  0.4902870000000  0.5931930000000  0.4686270000000 1.0
C      1  0.4157710000000  0.5143280000000  0.4779760000000 1.0
C      1  0.4432870000000  0.4309220000000  0.4708030000000 1.0
C      1  0.4626980000000  0.4592960000000  0.4331440000000 1.0
C      1  0.5135470000000  0.4485550000000  0.4261990000000 1.0
C      1  0.5722050000000  0.4886130000000  0.4470360000000 1.0
C      1  0.5247000000000  0.5597100000000  0.4482690000000 1.0
C      1  0.4487530000000  0.5344230000000  0.4461550000000 1.0
C      1  0.4631050000000  0.4596640000000  0.5594840000000 1.0
C      1  0.5192730000000  0.4390910000000  0.5677450000000 1.0
C      1  0.5621990000000  0.4780800000000  0.5552900000000 1.0
C      1  0.5262630000000  0.5562830000000  0.5516590000000 1.0
C      1  0.4432080000000  0.5232240000000  0.5722480000000 1.0
C      1  0.4889200000000  0.5275740000000  0.5598690000000 1.0
C      1  0.5197080000000  0.4996480000000  0.4370490000000 1.0
C      1  0.5214100000000  0.4925460000000  0.4109630000000 1.0
C      1  0.5055670000000  0.5138560000000  0.5773990000000 1.0
END
