TITL C-2782232-2968-945 -0.0002061172631702 125000 -673.216053204491 0 0 119 (C1) n - 1
REM
REM in /home/nfs/bkarasulu/CARBON/AIRSS/Generating-Clusters/REBO/Higher-Symm/SD-CG/HFTN-CG
REM
REM
REM
REM
REM
REM ./C.cell (12c818d87b63d06a65506943cc24bca4)
REM
REM compiler GCC version 9.2.1 20190827 (Red Hat 9.2.1-1)
REM options -cpp -mtune=generic -march=x86-64 -g -O0 -fpre-include=/usr/include/finclude/math-vector-fortran.h
REM seed 56041483 1801728445 -1184149659 -1125256348 1001213535 -432774603 875116516 96001260 -1111327171 1063642214 1154340092 682388686 1077964414 931851409 -36236559 -364302933 478439686 -1106169476 950608146 -1961468510 135736036 -1292400937 -1268602615 9581079 632483086 -664104852 -1077465496 928184904 1554555775 -265344460 496108128 1636493184 978645880
REM
CELL 1.54180   50.00000   50.00000   50.00000   90.00000   90.00000   90.00000
LATT -1
SFAC C  
C      1  0.4660550000000  0.5068150000000  0.5447160000000 1.0
C      1  0.4693610000000  0.5209260000000  0.4477060000000 1.0
C      1  0.5597740000000  0.5124580000000  0.5093600000000 1.0
C      1  0.5222440000000  0.4886990000000  0.5488450000000 1.0
C      1  0.5241470000000  0.4902290000000  0.4504060000000 1.0
C      1  0.4329010000000  0.4791080000000  0.5036250000000 1.0
C      1  0.4973630000000  0.5083460000000  0.6040670000000 1.0
C      1  0.4176630000000  0.5171410000000  0.4472790000000 1.0
C      1  0.5959760000000  0.5069480000000  0.4575560000000 1.0
C      1  0.5188220000000  0.4814890000000  0.6027040000000 1.0
C      1  0.5838820000000  0.4826650000000  0.4364360000000 1.0
C      1  0.4115900000000  0.4863620000000  0.4593150000000 1.0
C      1  0.5081230000000  0.5814080000000  0.5358590000000 1.0
C      1  0.4573780000000  0.5854680000000  0.4773540000000 1.0
C      1  0.5352940000000  0.5744030000000  0.4617250000000 1.0
C      1  0.4942470000000  0.4197630000000  0.5459380000000 1.0
C      1  0.5472440000000  0.4236520000000  0.4890080000000 1.0
C      1  0.4762910000000  0.4178860000000  0.4681310000000 1.0
C      1  0.4651790000000  0.4632850000000  0.5209240000000 1.0
C      1  0.4944990000000  0.4688880000000  0.4697570000000 1.0
C      1  0.5273670000000  0.4694410000000  0.5142840000000 1.0
C      1  0.5329290000000  0.5374330000000  0.5291600000000 1.0
C      1  0.4990160000000  0.5346450000000  0.4741680000000 1.0
C      1  0.4729100000000  0.5370780000000  0.5080410000000 1.0
C      1  0.5089950000000  0.4514200000000  0.5900310000000 1.0
C      1  0.4201450000000  0.4553950000000  0.4550780000000 1.0
C      1  0.5740880000000  0.4524340000000  0.4486340000000 1.0
C      1  0.4902070000000  0.5371200000000  0.5879770000000 1.0
C      1  0.5820050000000  0.5379040000000  0.4604170000000 1.0
C      1  0.4207220000000  0.5464120000000  0.4586790000000 1.0
C      1  0.4675520000000  0.4479480000000  0.4684800000000 1.0
C      1  0.5404690000000  0.4557710000000  0.4900110000000 1.0
C      1  0.4853390000000  0.4494080000000  0.5350820000000 1.0
C      1  0.5304740000000  0.5438310000000  0.4752940000000 1.0
C      1  0.4528420000000  0.5566930000000  0.4905160000000 1.0
C      1  0.5086650000000  0.5515690000000  0.5436550000000 1.0
C      1  0.5408980000000  0.4164480000000  0.5361970000000 1.0
C      1  0.4566800000000  0.4183160000000  0.5100880000000 1.0
C      1  0.5138170000000  0.4203580000000  0.4547640000000 1.0
C      1  0.4633470000000  0.5797060000000  0.5214500000000 1.0
C      1  0.5453480000000  0.5783130000000  0.5078540000000 1.0
C      1  0.4908400000000  0.5728680000000  0.4424150000000 1.0
C      1  0.5671390000000  0.4809470000000  0.4661400000000 1.0
C      1  0.4955810000000  0.4796000000000  0.5771430000000 1.0
C      1  0.4454570000000  0.4898430000000  0.4551380000000 1.0
C      1  0.4364020000000  0.5122790000000  0.4766040000000 1.0
C      1  0.5139710000000  0.5082110000000  0.5739270000000 1.0
C      1  0.5620560000000  0.5110340000000  0.4538850000000 1.0
C      1  0.4497190000000  0.5017840000000  0.5737910000000 1.0
C      1  0.4726890000000  0.5062620000000  0.4170690000000 1.0
C      1  0.5905940000000  0.4980920000000  0.5114380000000 1.0
C      1  0.5522340000000  0.4880880000000  0.5627060000000 1.0
C      1  0.5386920000000  0.4963880000000  0.4201250000000 1.0
C      1  0.4136690000000  0.5029820000000  0.5187550000000 1.0
C      1  0.4648280000000  0.4847750000000  0.4949930000000 1.0
C      1  0.5118070000000  0.4965930000000  0.4809040000000 1.0
C      1  0.5079320000000  0.4956880000000  0.5205370000000 1.0
C      1  0.5269660000000  0.5144560000000  0.5043700000000 1.0
C      1  0.4803620000000  0.5057300000000  0.4760800000000 1.0
C      1  0.4801300000000  0.5046510000000  0.5160280000000 1.0
C      1  0.5155740000000  0.4568130000000  0.5415080000000 1.0
C      1  0.4475620000000  0.4479780000000  0.4962630000000 1.0
C      1  0.5266080000000  0.4612550000000  0.4631390000000 1.0
C      1  0.4803700000000  0.5372850000000  0.5390340000000 1.0
C      1  0.5517470000000  0.5455780000000  0.5019380000000 1.0
C      1  0.4721740000000  0.5519950000000  0.4613710000000 1.0
C      1  0.4392240000000  0.5318430000000  0.5287880000000 1.0
C      1  0.5031970000000  0.5309250000000  0.4189990000000 1.0
C      1  0.5769100000000  0.5223150000000  0.5540330000000 1.0
C      1  0.5670500000000  0.4646520000000  0.5447880000000 1.0
C      1  0.5005150000000  0.4656340000000  0.4297600000000 1.0
C      1  0.4195280000000  0.4760940000000  0.5471960000000 1.0
C      1  0.4459590000000  0.4097820000000  0.5339370000000 1.0
C      1  0.5058590000000  0.4397640000000  0.4366280000000 1.0
C      1  0.5586680000000  0.4352590000000  0.5441020000000 1.0
C      1  0.5524040000000  0.5901070000000  0.5316930000000 1.0
C      1  0.4992630000000  0.5579910000000  0.4193730000000 1.0
C      1  0.4476980000000  0.5588980000000  0.5301240000000 1.0
C      1  0.5444250000000  0.4461890000000  0.4446700000000 1.0
C      1  0.5234480000000  0.4414610000000  0.5648350000000 1.0
C      1  0.4196790000000  0.4412830000000  0.4792690000000 1.0
C      1  0.4422330000000  0.5596890000000  0.4468580000000 1.0
C      1  0.4688970000000  0.5371350000000  0.5701540000000 1.0
C      1  0.5816530000000  0.5487350000000  0.4875890000000 1.0
C      1  0.5719590000000  0.4444020000000  0.4811590000000 1.0
C      1  0.4836690000000  0.4427130000000  0.5688310000000 1.0
C      1  0.4469170000000  0.4524720000000  0.4427170000000 1.0
C      1  0.4223760000000  0.5481320000000  0.4873290000000 1.0
C      1  0.5127320000000  0.5481000000000  0.5749510000000 1.0
C      1  0.5533070000000  0.5495700000000  0.4497390000000 1.0
C      1  0.5656960000000  0.4889550000000  0.4144450000000 1.0
C      1  0.5460110000000  0.4878650000000  0.5915580000000 1.0
C      1  0.4052030000000  0.4884180000000  0.4891050000000 1.0
C      1  0.4424150000000  0.5181330000000  0.4274330000000 1.0
C      1  0.4638510000000  0.5091650000000  0.5986930000000 1.0
C      1  0.6051520000000  0.4990220000000  0.4842240000000 1.0
C      1  0.5241010000000  0.4101890000000  0.4802400000000 1.0
C      1  0.5143030000000  0.4081930000000  0.5296040000000 1.0
C      1  0.4783780000000  0.4072660000000  0.4946200000000 1.0
C      1  0.4838310000000  0.5897360000000  0.4675270000000 1.0
C      1  0.4897430000000  0.5894410000000  0.5158650000000 1.0
C      1  0.5295920000000  0.5890630000000  0.4860870000000 1.0
C      1  0.5385570000000  0.5246560000000  0.4365500000000 1.0
C      1  0.5364920000000  0.5307120000000  0.5763230000000 1.0
C      1  0.4080130000000  0.5318380000000  0.5038490000000 1.0
C      1  0.4521910000000  0.4796880000000  0.4230280000000 1.0
C      1  0.4667150000000  0.4725430000000  0.5687710000000 1.0
C      1  0.5758260000000  0.4738890000000  0.4946020000000 1.0
C      1  0.4494830000000  0.4773870000000  0.5423010000000 1.0
C      1  0.4760720000000  0.4796040000000  0.4462180000000 1.0
C      1  0.5558640000000  0.4796850000000  0.5180940000000 1.0
C      1  0.5520800000000  0.5324520000000  0.5531960000000 1.0
C      1  0.5092740000000  0.5194760000000  0.4484390000000 1.0
C      1  0.4457540000000  0.5190370000000  0.5014860000000 1.0
C      1  0.4267530000000  0.5094450000000  0.5496270000000 1.0
C      1  0.5825290000000  0.4947230000000  0.5434630000000 1.0
C      1  0.5047940000000  0.4966090000000  0.4160420000000 1.0
C      1  0.5059150000000  0.4031460000000  0.5020170000000 1.0
C      1  0.5015800000000  0.5944740000000  0.4897700000000 1.0
END
