TITL C-2782235-7892-76 -0.000681360806389331 125000 -1079.87820012137 0 0 187 (C1) n - 1
REM
REM in /home/nfs/bkarasulu/CARBON/AIRSS/Generating-Clusters/REBO/Higher-Symm/SD-CG/HFTN-CG
REM
REM
REM
REM
REM
REM ./C.cell (12c818d87b63d06a65506943cc24bca4)
REM
REM compiler GCC version 9.2.1 20190827 (Red Hat 9.2.1-1)
REM options -cpp -mtune=generic -march=x86-64 -g -O0 -fpre-include=/usr/include/finclude/math-vector-fortran.h
REM seed 1167190035 973145140 -1950708222 1569634050 -1501914910 52343941 603765482 -1100341413 1374137916 1197316270 -2021992428 663402031 -885540312 -761216794 -179301205 1516289819 -330357253 -75522861 589437863 -1776610592 -647939117 1317232359 791868138 1907206788 1974781221 -449845083 -1371992873 -1605916903 -1091351021 489448337 -42432215 -980079401 -1384507399
REM
CELL 1.54180   50.00000   50.00000   50.00000   90.00000   90.00000   90.00000
LATT -1
SFAC C  
C      1  0.4765300000000  0.5115470000000  0.3861850000000 1.0
C      1  0.5201420000000  0.4840780000000  0.3891370000000 1.0
C      1  0.4225600000000  0.4275810000000  0.4646360000000 1.0
C      1  0.5791250000000  0.5727810000000  0.4614300000000 1.0
C      1  0.5410540000000  0.4964080000000  0.5931400000000 1.0
C      1  0.4579940000000  0.5077470000000  0.5962420000000 1.0
C      1  0.4809370000000  0.4934350000000  0.5493320000000 1.0
C      1  0.5189290000000  0.5057980000000  0.5484390000000 1.0
C      1  0.4552660000000  0.5499950000000  0.4929740000000 1.0
C      1  0.5373500000000  0.4468060000000  0.4910720000000 1.0
C      1  0.4551880000000  0.5753570000000  0.5328180000000 1.0
C      1  0.5431060000000  0.4272250000000  0.5364170000000 1.0
C      1  0.5515050000000  0.4098720000000  0.5575980000000 1.0
C      1  0.4369310000000  0.5905570000000  0.5572640000000 1.0
C      1  0.4554670000000  0.5767620000000  0.4493970000000 1.0
C      1  0.5422260000000  0.4212850000000  0.4455490000000 1.0
C      1  0.5927350000000  0.4920360000000  0.5165880000000 1.0
C      1  0.4017240000000  0.5079960000000  0.5139020000000 1.0
C      1  0.5168760000000  0.6035780000000  0.4991980000000 1.0
C      1  0.4845040000000  0.3890750000000  0.4910350000000 1.0
C      1  0.4341890000000  0.5535660000000  0.5426960000000 1.0
C      1  0.5629450000000  0.4505190000000  0.5337150000000 1.0
C      1  0.4708030000000  0.5640190000000  0.5128240000000 1.0
C      1  0.5228390000000  0.4291660000000  0.5144220000000 1.0
C      1  0.5424250000000  0.5754540000000  0.5103100000000 1.0
C      1  0.4669650000000  0.4216620000000  0.5061580000000 1.0
C      1  0.4871410000000  0.4818530000000  0.3852740000000 1.0
C      1  0.5083570000000  0.5151280000000  0.3885110000000 1.0
C      1  0.5983700000000  0.5226170000000  0.5121180000000 1.0
C      1  0.4018110000000  0.4764830000000  0.5118350000000 1.0
C      1  0.5435710000000  0.4787950000000  0.4456570000000 1.0
C      1  0.4568850000000  0.5197680000000  0.4453160000000 1.0
C      1  0.4994180000000  0.5223020000000  0.5253680000000 1.0
C      1  0.5004070000000  0.4789930000000  0.5246670000000 1.0
C      1  0.3958360000000  0.5518940000000  0.5319110000000 1.0
C      1  0.6026520000000  0.4487810000000  0.5316380000000 1.0
C      1  0.5697920000000  0.4152850000000  0.5065340000000 1.0
C      1  0.4232830000000  0.5863950000000  0.5037600000000 1.0
C      1  0.5385040000000  0.5695340000000  0.4453410000000 1.0
C      1  0.4611970000000  0.4283220000000  0.4427750000000 1.0
C      1  0.5366060000000  0.6015120000000  0.5496970000000 1.0
C      1  0.4813350000000  0.4057680000000  0.5399240000000 1.0
C      1  0.4455050000000  0.4049060000000  0.4584890000000 1.0
C      1  0.5537900000000  0.5938420000000  0.4604780000000 1.0
C      1  0.6173560000000  0.4720350000000  0.4729270000000 1.0
C      1  0.3813250000000  0.5241410000000  0.4721440000000 1.0
C      1  0.5898870000000  0.4900630000000  0.4756820000000 1.0
C      1  0.4094170000000  0.5072630000000  0.4748100000000 1.0
C      1  0.5796700000000  0.5193610000000  0.4741700000000 1.0
C      1  0.4212270000000  0.4786500000000  0.4759500000000 1.0
C      1  0.4544680000000  0.5587900000000  0.4203500000000 1.0
C      1  0.5456090000000  0.4394760000000  0.4175420000000 1.0
C      1  0.4696420000000  0.4484100000000  0.4639570000000 1.0
C      1  0.5300450000000  0.5509830000000  0.4686080000000 1.0
C      1  0.5124400000000  0.4311190000000  0.4209790000000 1.0
C      1  0.4871810000000  0.5642470000000  0.4292580000000 1.0
C      1  0.5626360000000  0.5862540000000  0.5474620000000 1.0
C      1  0.4548560000000  0.4169720000000  0.5441170000000 1.0
C      1  0.4527050000000  0.3960570000000  0.4885120000000 1.0
C      1  0.5499930000000  0.6023240000000  0.4914090000000 1.0
C      1  0.4151160000000  0.5794220000000  0.5336410000000 1.0
C      1  0.5827560000000  0.4224140000000  0.5360280000000 1.0
C      1  0.5279050000000  0.5483470000000  0.5355140000000 1.0
C      1  0.4709720000000  0.4516510000000  0.5325990000000 1.0
C      1  0.5517500000000  0.5339310000000  0.4339920000000 1.0
C      1  0.4492490000000  0.4649800000000  0.4338070000000 1.0
C      1  0.5380390000000  0.5236590000000  0.5151090000000 1.0
C      1  0.4626520000000  0.4776550000000  0.5119490000000 1.0
C      1  0.5313940000000  0.5437660000000  0.5844810000000 1.0
C      1  0.4707100000000  0.4580860000000  0.5899390000000 1.0
C      1  0.5342170000000  0.3984600000000  0.5768350000000 1.0
C      1  0.4568650000000  0.6032280000000  0.5762740000000 1.0
C      1  0.4104240000000  0.5228080000000  0.4453920000000 1.0
C      1  0.5884610000000  0.4746760000000  0.4461400000000 1.0
C      1  0.5902540000000  0.5732530000000  0.4936130000000 1.0
C      1  0.4152420000000  0.4257750000000  0.4978650000000 1.0
C      1  0.4904920000000  0.4885250000000  0.4941420000000 1.0
C      1  0.5112040000000  0.5142930000000  0.4950680000000 1.0
C      1  0.4122520000000  0.5552720000000  0.5021710000000 1.0
C      1  0.5858800000000  0.4432960000000  0.5023870000000 1.0
C      1  0.4371820000000  0.4087460000000  0.5160930000000 1.0
C      1  0.5719380000000  0.5907810000000  0.5149640000000 1.0
C      1  0.4368910000000  0.5602070000000  0.4711840000000 1.0
C      1  0.5609470000000  0.4360120000000  0.4700690000000 1.0
C      1  0.4352000000000  0.5431910000000  0.4431540000000 1.0
C      1  0.5636900000000  0.4543760000000  0.4422160000000 1.0
C      1  0.4858500000000  0.5319260000000  0.4527520000000 1.0
C      1  0.5130150000000  0.4689140000000  0.4478590000000 1.0
C      1  0.5885040000000  0.4948900000000  0.5714020000000 1.0
C      1  0.4086340000000  0.4966030000000  0.5514770000000 1.0
C      1  0.4913900000000  0.5370100000000  0.5536410000000 1.0
C      1  0.5086910000000  0.4647160000000  0.5520830000000 1.0
C      1  0.4892080000000  0.4829900000000  0.4632410000000 1.0
C      1  0.5102850000000  0.5168050000000  0.4632300000000 1.0
C      1  0.5308010000000  0.4902210000000  0.5200350000000 1.0
C      1  0.4690010000000  0.5084800000000  0.5208490000000 1.0
C      1  0.5147880000000  0.4644230000000  0.4164130000000 1.0
C      1  0.4839580000000  0.5324350000000  0.4190230000000 1.0
C      1  0.4309330000000  0.4935340000000  0.5255990000000 1.0
C      1  0.5677700000000  0.5112160000000  0.5264030000000 1.0
C      1  0.4823360000000  0.5607820000000  0.4633920000000 1.0
C      1  0.5223930000000  0.4430100000000  0.4626680000000 1.0
C      1  0.5176090000000  0.5879860000000  0.5294250000000 1.0
C      1  0.4973110000000  0.4089130000000  0.5147460000000 1.0
C      1  0.5679070000000  0.4909630000000  0.4251150000000 1.0
C      1  0.4327340000000  0.5079280000000  0.4245000000000 1.0
C      1  0.4061210000000  0.5283290000000  0.5544730000000 1.0
C      1  0.5900420000000  0.4657100000000  0.5587190000000 1.0
C      1  0.5916800000000  0.4506160000000  0.4704900000000 1.0
C      1  0.4057310000000  0.5466080000000  0.4699330000000 1.0
C      1  0.3924940000000  0.4743320000000  0.4597800000000 1.0
C      1  0.6092670000000  0.5205930000000  0.4587790000000 1.0
C      1  0.5620140000000  0.5099320000000  0.5813900000000 1.0
C      1  0.4432180000000  0.4868430000000  0.5878660000000 1.0
C      1  0.6130660000000  0.4763640000000  0.5279400000000 1.0
C      1  0.3820900000000  0.5261190000000  0.5227770000000 1.0
C      1  0.5957230000000  0.5232670000000  0.5656110000000 1.0
C      1  0.4087560000000  0.4767120000000  0.5704090000000 1.0
C      1  0.5040160000000  0.4099120000000  0.4753580000000 1.0
C      1  0.4905820000000  0.5955230000000  0.4810850000000 1.0
C      1  0.4349900000000  0.4588130000000  0.5720360000000 1.0
C      1  0.5673630000000  0.5407150000000  0.5676650000000 1.0
C      1  0.5121010000000  0.5248700000000  0.5758450000000 1.0
C      1  0.4895930000000  0.4757380000000  0.5770680000000 1.0
C      1  0.5643300000000  0.4814440000000  0.5426700000000 1.0
C      1  0.4379480000000  0.5219970000000  0.5433870000000 1.0
C      1  0.5467710000000  0.4718360000000  0.4065610000000 1.0
C      1  0.4540400000000  0.5273990000000  0.4063250000000 1.0
C      1  0.5793170000000  0.4173590000000  0.5670630000000 1.0
C      1  0.4141880000000  0.5748570000000  0.5733300000000 1.0
C      1  0.4697520000000  0.5384460000000  0.5866160000000 1.0
C      1  0.5271890000000  0.4656730000000  0.5872110000000 1.0
C      1  0.5375340000000  0.4790220000000  0.5575680000000 1.0
C      1  0.4634130000000  0.5198190000000  0.5586000000000 1.0
C      1  0.4169620000000  0.4499260000000  0.5220830000000 1.0
C      1  0.5845540000000  0.5507170000000  0.5189590000000 1.0
C      1  0.4555440000000  0.5187690000000  0.4953420000000 1.0
C      1  0.5435350000000  0.4774510000000  0.4959330000000 1.0
C      1  0.5330580000000  0.4056900000000  0.4719710000000 1.0
C      1  0.4624030000000  0.5962710000000  0.4736180000000 1.0
C      1  0.4417470000000  0.5998690000000  0.4905770000000 1.0
C      1  0.5513290000000  0.4037690000000  0.4916780000000 1.0
C      1  0.5454120000000  0.5491900000000  0.4958680000000 1.0
C      1  0.4596150000000  0.4495900000000  0.4943490000000 1.0
C      1  0.5015160000000  0.5546820000000  0.5145200000000 1.0
C      1  0.4962940000000  0.4484790000000  0.5102070000000 1.0
C      1  0.4580710000000  0.4339380000000  0.5736300000000 1.0
C      1  0.5465820000000  0.5677210000000  0.5716380000000 1.0
C      1  0.5742610000000  0.4739720000000  0.4978500000000 1.0
C      1  0.4248080000000  0.5244210000000  0.4970770000000 1.0
C      1  0.5269950000000  0.5127240000000  0.4349940000000 1.0
C      1  0.4785780000000  0.4816880000000  0.4322230000000 1.0
C      1  0.4295490000000  0.4551240000000  0.4926600000000 1.0
C      1  0.5744220000000  0.5444610000000  0.4888920000000 1.0
C      1  0.5616010000000  0.5537460000000  0.5378630000000 1.0
C      1  0.4388050000000  0.4470610000000  0.5417120000000 1.0
C      1  0.4628190000000  0.5034800000000  0.4698890000000 1.0
C      1  0.5360590000000  0.4950960000000  0.4704840000000 1.0
C      1  0.4972670000000  0.4131660000000  0.4351600000000 1.0
C      1  0.5030680000000  0.5872580000000  0.4418870000000 1.0
C      1  0.4220060000000  0.4508940000000  0.4474300000000 1.0
C      1  0.5792030000000  0.5479740000000  0.4462470000000 1.0
C      1  0.4906150000000  0.5161630000000  0.6004050000000 1.0
C      1  0.5083660000000  0.4916480000000  0.5977660000000 1.0
C      1  0.5184280000000  0.4151920000000  0.5917950000000 1.0
C      1  0.4772960000000  0.5907370000000  0.5833370000000 1.0
C      1  0.5496390000000  0.5230910000000  0.4660150000000 1.0
C      1  0.4499430000000  0.4757350000000  0.4651590000000 1.0
C      1  0.4884430000000  0.4399280000000  0.5593410000000 1.0
C      1  0.5153950000000  0.5687270000000  0.5576620000000 1.0
C      1  0.4887200000000  0.5639360000000  0.5744010000000 1.0
C      1  0.5111370000000  0.4399210000000  0.5831780000000 1.0
C      1  0.5049980000000  0.5646120000000  0.4847510000000 1.0
C      1  0.4955750000000  0.4398290000000  0.4802160000000 1.0
C      1  0.3840800000000  0.4697930000000  0.4875900000000 1.0
C      1  0.6170240000000  0.5252410000000  0.4869560000000 1.0
C      1  0.5344610000000  0.5575610000000  0.4173930000000 1.0
C      1  0.4620080000000  0.4396620000000  0.4143710000000 1.0
C      1  0.4036490000000  0.5525740000000  0.5741370000000 1.0
C      1  0.5862740000000  0.4414860000000  0.5792230000000 1.0
C      1  0.4764380000000  0.4645690000000  0.4050650000000 1.0
C      1  0.5221170000000  0.5311160000000  0.4075390000000 1.0
C      1  0.5203770000000  0.5988120000000  0.4650300000000 1.0
C      1  0.4784930000000  0.3962860000000  0.4579860000000 1.0
C      1  0.4140640000000  0.4822340000000  0.4367710000000 1.0
C      1  0.5873590000000  0.5170060000000  0.4351190000000 1.0
C      1  0.4975850000000  0.5052160000000  0.4256220000000 1.0
END
