TITL C-2782236-320-704 -0.00436696072413029 125000 -543.612780715494 0 0 96 (C1) n - 1
REM
REM in /home/nfs/bkarasulu/CARBON/AIRSS/Generating-Clusters/REBO/Higher-Symm/SD-CG/HFTN-CG
REM
REM
REM
REM
REM
REM ./C.cell (12c818d87b63d06a65506943cc24bca4)
REM
REM compiler GCC version 9.2.1 20190827 (Red Hat 9.2.1-1)
REM options -cpp -mtune=generic -march=x86-64 -g -O0 -fpre-include=/usr/include/finclude/math-vector-fortran.h
REM seed -1352893632 1199319225 -727175763 575091190 1499247516 -1404732687 -594319158 -880702564 367307228 1694778219 -453144450 1330056 960186719 541664802 -759482010 458730064 2040388775 1646659858 -1924477181 948056193 -1656665541 496333902 1969574677 -854136123 1235574712 1214532691 -861919619 -1732510845 -1321350193 -527749890 1453728447 1926424713 -1379877208
REM
CELL 1.54180   50.00000   50.00000   50.00000   90.00000   90.00000   90.00000
LATT -1
SFAC C  
C      1  0.5169170000000  0.5541180000000  0.4503050000000 1.0
C      1  0.5235790000000  0.4450680000000  0.5608230000000 1.0
C      1  0.5248100000000  0.4483450000000  0.4426290000000 1.0
C      1  0.5190090000000  0.5561970000000  0.5533410000000 1.0
C      1  0.4699920000000  0.4281260000000  0.4521250000000 1.0
C      1  0.4703580000000  0.5524550000000  0.5376140000000 1.0
C      1  0.4674720000000  0.5683400000000  0.4540660000000 1.0
C      1  0.4677600000000  0.4370470000000  0.5345070000000 1.0
C      1  0.4530800000000  0.4543290000000  0.4428270000000 1.0
C      1  0.4491870000000  0.5319940000000  0.5530730000000 1.0
C      1  0.4512920000000  0.5417850000000  0.4445080000000 1.0
C      1  0.4491550000000  0.4548220000000  0.5569660000000 1.0
C      1  0.4508080000000  0.5157200000000  0.4669550000000 1.0
C      1  0.4486840000000  0.4772450000000  0.5309170000000 1.0
C      1  0.4522520000000  0.4816460000000  0.4638190000000 1.0
C      1  0.4424330000000  0.5105190000000  0.5270020000000 1.0
C      1  0.4959230000000  0.4192870000000  0.5261770000000 1.0
C      1  0.4918760000000  0.5757620000000  0.4767070000000 1.0
C      1  0.5011030000000  0.5806870000000  0.5184190000000 1.0
C      1  0.4923370000000  0.4211850000000  0.4767950000000 1.0
C      1  0.5593180000000  0.4835030000000  0.5542760000000 1.0
C      1  0.5567870000000  0.5173540000000  0.4466230000000 1.0
C      1  0.5591000000000  0.5168330000000  0.5557110000000 1.0
C      1  0.5576150000000  0.4850950000000  0.4468270000000 1.0
C      1  0.5435880000000  0.4343000000000  0.5371010000000 1.0
C      1  0.5438450000000  0.5668250000000  0.4596760000000 1.0
C      1  0.5453160000000  0.5660600000000  0.5389550000000 1.0
C      1  0.5420990000000  0.4334140000000  0.4658790000000 1.0
C      1  0.5013410000000  0.5136570000000  0.4218210000000 1.0
C      1  0.5028360000000  0.4855710000000  0.5793860000000 1.0
C      1  0.5023460000000  0.4845280000000  0.4189480000000 1.0
C      1  0.5039340000000  0.5147400000000  0.5775230000000 1.0
C      1  0.5443330000000  0.4702680000000  0.5196460000000 1.0
C      1  0.5514340000000  0.5338480000000  0.4881750000000 1.0
C      1  0.5516620000000  0.5341270000000  0.5145330000000 1.0
C      1  0.5441270000000  0.4676750000000  0.4874520000000 1.0
C      1  0.5789030000000  0.5239550000000  0.5282480000000 1.0
C      1  0.5740150000000  0.4790080000000  0.4763460000000 1.0
C      1  0.5768650000000  0.4786200000000  0.5251980000000 1.0
C      1  0.5781310000000  0.5241180000000  0.4733870000000 1.0
C      1  0.4913990000000  0.5620730000000  0.5523880000000 1.0
C      1  0.4939200000000  0.4467730000000  0.4462470000000 1.0
C      1  0.4924610000000  0.4447260000000  0.5567870000000 1.0
C      1  0.4903990000000  0.5494000000000  0.4468510000000 1.0
C      1  0.5334870000000  0.4720300000000  0.5734580000000 1.0
C      1  0.5297050000000  0.5228320000000  0.4263900000000 1.0
C      1  0.5327030000000  0.5220710000000  0.5767750000000 1.0
C      1  0.5335060000000  0.4726200000000  0.4259360000000 1.0
C      1  0.5002660000000  0.5445280000000  0.4853030000000 1.0
C      1  0.5009590000000  0.4520250000000  0.5183890000000 1.0
C      1  0.4978310000000  0.4522100000000  0.4858300000000 1.0
C      1  0.5043360000000  0.5478150000000  0.5173300000000 1.0
C      1  0.5270620000000  0.5314610000000  0.5311900000000 1.0
C      1  0.5192580000000  0.4658270000000  0.4703810000000 1.0
C      1  0.5196240000000  0.4662970000000  0.5358860000000 1.0
C      1  0.5275270000000  0.5321070000000  0.4708150000000 1.0
C      1  0.4725870000000  0.5127920000000  0.5396350000000 1.0
C      1  0.4841680000000  0.4756750000000  0.4534000000000 1.0
C      1  0.4797990000000  0.4737770000000  0.5441720000000 1.0
C      1  0.4820400000000  0.5202610000000  0.4561830000000 1.0
C      1  0.5320980000000  0.5762670000000  0.5133280000000 1.0
C      1  0.5251470000000  0.4230290000000  0.4862240000000 1.0
C      1  0.5276060000000  0.4225380000000  0.5157030000000 1.0
C      1  0.5254250000000  0.5755200000000  0.4829510000000 1.0
C      1  0.4749930000000  0.4660980000000  0.5768400000000 1.0
C      1  0.4713660000000  0.5244270000000  0.4232290000000 1.0
C      1  0.4802880000000  0.5266870000000  0.5672770000000 1.0
C      1  0.4742800000000  0.4700520000000  0.4212680000000 1.0
C      1  0.5642300000000  0.4529010000000  0.4566830000000 1.0
C      1  0.5672030000000  0.5491680000000  0.5478840000000 1.0
C      1  0.5656030000000  0.5493890000000  0.4543080000000 1.0
C      1  0.5682490000000  0.4516850000000  0.5445250000000 1.0
C      1  0.5444420000000  0.5006450000000  0.4125810000000 1.0
C      1  0.5463000000000  0.4984610000000  0.5887720000000 1.0
C      1  0.4784570000000  0.5896220000000  0.5019660000000 1.0
C      1  0.4752700000000  0.4127480000000  0.5019430000000 1.0
C      1  0.4184410000000  0.4645020000000  0.5039630000000 1.0
C      1  0.4226960000000  0.5438720000000  0.5016980000000 1.0
C      1  0.4309260000000  0.4406620000000  0.5035140000000 1.0
C      1  0.4291470000000  0.5707580000000  0.5045940000000 1.0
C      1  0.4740910000000  0.5386120000000  0.5067210000000 1.0
C      1  0.4704030000000  0.4549120000000  0.5058790000000 1.0
C      1  0.5255870000000  0.4994050000000  0.4679850000000 1.0
C      1  0.5218610000000  0.5002850000000  0.5335710000000 1.0
C      1  0.4548740000000  0.4807550000000  0.4974340000000 1.0
C      1  0.4481480000000  0.5245070000000  0.4966920000000 1.0
C      1  0.4507510000000  0.5873640000000  0.5051460000000 1.0
C      1  0.4494320000000  0.4209900000000  0.5028200000000 1.0
C      1  0.4094360000000  0.5172880000000  0.5036360000000 1.0
C      1  0.4108220000000  0.4903070000000  0.5040870000000 1.0
C      1  0.4949940000000  0.4975690000000  0.4687370000000 1.0
C      1  0.4919910000000  0.4947080000000  0.5280950000000 1.0
C      1  0.5460140000000  0.4967200000000  0.5019540000000 1.0
C      1  0.4853160000000  0.4944350000000  0.4979000000000 1.0
C      1  0.5167780000000  0.5081420000000  0.5003810000000 1.0
C      1  0.5787010000000  0.5032020000000  0.5007680000000 1.0
END
