TITL C-2782226-7400-1463 0.00375238504607118 125000 -543.571452944625 0 0 96 (C1) n - 1
REM
REM in /home/nfs/bkarasulu/CARBON/AIRSS/Generating-Clusters/REBO/Higher-Symm/SD-CG/HFTN-CG
REM
REM
REM
REM
REM
REM ./C.cell (12c818d87b63d06a65506943cc24bca4)
REM
REM compiler GCC version 9.2.1 20190827 (Red Hat 9.2.1-1)
REM options -cpp -mtune=generic -march=x86-64 -g -O0 -fpre-include=/usr/include/finclude/math-vector-fortran.h
REM seed -67175033 767148830 -236614454 -665089756 1446350971 676665868 -1070372448 -1876698393 -1291286239 -747656128 -459001679 -347577453 1119004876 -1572950656 -1640520924 -769359319 335460701 499932915 1598976074 1018917350 -215346953 -970274813 -1638211008 -2111232314 -1919855513 -565445329 -547595456 1843748581 1039456880 352735283 302832407 438441330 715175448
REM
CELL 1.54180   50.00000   50.00000   50.00000   90.00000   90.00000   90.00000
LATT -1
SFAC C  
C      1  0.4454850000000  0.4835260000000  0.4199180000000 1.0
C      1  0.5542960000000  0.4795570000000  0.5803540000000 1.0
C      1  0.4495450000000  0.5156070000000  0.4117690000000 1.0
C      1  0.5546680000000  0.5123430000000  0.5845080000000 1.0
C      1  0.5602590000000  0.5366840000000  0.4708860000000 1.0
C      1  0.4415490000000  0.5312270000000  0.5281370000000 1.0
C      1  0.5596100000000  0.4697540000000  0.4712340000000 1.0
C      1  0.4386990000000  0.4663410000000  0.5344690000000 1.0
C      1  0.4454840000000  0.4367210000000  0.5330020000000 1.0
C      1  0.5541690000000  0.4376580000000  0.4670370000000 1.0
C      1  0.4471880000000  0.5632160000000  0.5355800000000 1.0
C      1  0.5505840000000  0.5672920000000  0.4632930000000 1.0
C      1  0.4147900000000  0.5163130000000  0.4992830000000 1.0
C      1  0.5858050000000  0.5177510000000  0.4950020000000 1.0
C      1  0.4136300000000  0.4834240000000  0.5085140000000 1.0
C      1  0.5852350000000  0.4838110000000  0.4984660000000 1.0
C      1  0.4833940000000  0.5360520000000  0.4881180000000 1.0
C      1  0.5189360000000  0.5394560000000  0.5136860000000 1.0
C      1  0.4798020000000  0.4596240000000  0.4862670000000 1.0
C      1  0.5167710000000  0.4619070000000  0.5114280000000 1.0
C      1  0.5196790000000  0.5419880000000  0.5607430000000 1.0
C      1  0.4860920000000  0.5395500000000  0.4403130000000 1.0
C      1  0.5258160000000  0.4678150000000  0.5581540000000 1.0
C      1  0.4733850000000  0.4657910000000  0.4398650000000 1.0
C      1  0.4752050000000  0.5697490000000  0.5521880000000 1.0
C      1  0.5211320000000  0.5701160000000  0.4481800000000 1.0
C      1  0.4701390000000  0.4283810000000  0.5504190000000 1.0
C      1  0.5271070000000  0.4280080000000  0.4488450000000 1.0
C      1  0.5334930000000  0.4575460000000  0.5336700000000 1.0
C      1  0.4629570000000  0.4562710000000  0.4637290000000 1.0
C      1  0.5331510000000  0.5458090000000  0.5371730000000 1.0
C      1  0.4705670000000  0.5413910000000  0.4631090000000 1.0
C      1  0.5448520000000  0.4339720000000  0.4991970000000 1.0
C      1  0.4537590000000  0.4331180000000  0.5008910000000 1.0
C      1  0.5476840000000  0.5649450000000  0.4961500000000 1.0
C      1  0.4518060000000  0.5614390000000  0.5040410000000 1.0
C      1  0.4788200000000  0.4892110000000  0.4165150000000 1.0
C      1  0.5217230000000  0.4901030000000  0.5825150000000 1.0
C      1  0.4807920000000  0.5220350000000  0.4133930000000 1.0
C      1  0.5242030000000  0.5223200000000  0.5856870000000 1.0
C      1  0.5622260000000  0.5184810000000  0.4413620000000 1.0
C      1  0.4355260000000  0.5159910000000  0.5584810000000 1.0
C      1  0.5618590000000  0.4844010000000  0.4403940000000 1.0
C      1  0.4374320000000  0.4824980000000  0.5645940000000 1.0
C      1  0.5199710000000  0.5506640000000  0.4828090000000 1.0
C      1  0.4806640000000  0.5501290000000  0.5181290000000 1.0
C      1  0.5188510000000  0.4479410000000  0.4822520000000 1.0
C      1  0.4800030000000  0.4477880000000  0.5170580000000 1.0
C      1  0.5792410000000  0.4787120000000  0.5315870000000 1.0
C      1  0.4164020000000  0.4846190000000  0.4749570000000 1.0
C      1  0.5791810000000  0.5122330000000  0.5279190000000 1.0
C      1  0.4175990000000  0.5163650000000  0.4653640000000 1.0
C      1  0.5047530000000  0.5122550000000  0.4362480000000 1.0
C      1  0.4985480000000  0.5160950000000  0.5630030000000 1.0
C      1  0.5031120000000  0.4805190000000  0.4388180000000 1.0
C      1  0.4976420000000  0.4837260000000  0.5589880000000 1.0
C      1  0.4321740000000  0.5429870000000  0.4906340000000 1.0
C      1  0.5698530000000  0.5448700000000  0.5069420000000 1.0
C      1  0.4273280000000  0.4543850000000  0.4982290000000 1.0
C      1  0.5734150000000  0.4523390000000  0.5023400000000 1.0
C      1  0.5232440000000  0.5309720000000  0.4550570000000 1.0
C      1  0.4771960000000  0.5307270000000  0.5460870000000 1.0
C      1  0.5234980000000  0.4670980000000  0.4544480000000 1.0
C      1  0.4771870000000  0.4672410000000  0.5451060000000 1.0
C      1  0.4754480000000  0.4207850000000  0.4782760000000 1.0
C      1  0.5227120000000  0.4213410000000  0.5206700000000 1.0
C      1  0.4751250000000  0.5749770000000  0.4842860000000 1.0
C      1  0.5241570000000  0.5788470000000  0.5165520000000 1.0
C      1  0.4664580000000  0.5130470000000  0.5200660000000 1.0
C      1  0.5381510000000  0.5154490000000  0.4803280000000 1.0
C      1  0.4613350000000  0.4827650000000  0.5201290000000 1.0
C      1  0.5335030000000  0.4849990000000  0.4804430000000 1.0
C      1  0.5061280000000  0.5133800000000  0.4863620000000 1.0
C      1  0.5003470000000  0.5155650000000  0.5178090000000 1.0
C      1  0.4995720000000  0.4826690000000  0.4820190000000 1.0
C      1  0.4939800000000  0.4849070000000  0.5136750000000 1.0
C      1  0.4353800000000  0.4576020000000  0.4684210000000 1.0
C      1  0.5607110000000  0.4527990000000  0.5306810000000 1.0
C      1  0.4425000000000  0.5385590000000  0.4625670000000 1.0
C      1  0.5615620000000  0.5401600000000  0.5357500000000 1.0
C      1  0.4539410000000  0.5445430000000  0.5634180000000 1.0
C      1  0.5440220000000  0.5471070000000  0.4361830000000 1.0
C      1  0.4573230000000  0.4549000000000  0.5674500000000 1.0
C      1  0.5472540000000  0.4535670000000  0.4371650000000 1.0
C      1  0.5846170000000  0.4910490000000  0.4652990000000 1.0
C      1  0.4121580000000  0.4847110000000  0.5417490000000 1.0
C      1  0.5891170000000  0.5226970000000  0.4623340000000 1.0
C      1  0.4129250000000  0.5155230000000  0.5322780000000 1.0
C      1  0.5765760000000  0.4895020000000  0.5607080000000 1.0
C      1  0.4239280000000  0.4848300000000  0.4422450000000 1.0
C      1  0.5766910000000  0.5207070000000  0.5631900000000 1.0
C      1  0.4281840000000  0.5165030000000  0.4337250000000 1.0
C      1  0.5000810000000  0.4258430000000  0.4674550000000 1.0
C      1  0.4982200000000  0.4256950000000  0.5319000000000 1.0
C      1  0.4980180000000  0.5710750000000  0.4703990000000 1.0
C      1  0.5007120000000  0.5730380000000  0.5299330000000 1.0
END
