TITL C-2782226-7400-988 -1.57359231273247e-08 125000 -43.486417968362 0 0 8 (D(inf)h) n - 1
REM
REM in /home/nfs/bkarasulu/CARBON/AIRSS/Generating-Clusters/REBO/Higher-Symm/SD-CG/HFTN-CG
REM
REM
REM
REM
REM
REM ./C.cell (12c818d87b63d06a65506943cc24bca4)
REM
REM compiler GCC version 9.2.1 20190827 (Red Hat 9.2.1-1)
REM options -cpp -mtune=generic -march=x86-64 -g -O0 -fpre-include=/usr/include/finclude/math-vector-fortran.h
REM seed -1085372348 -1333550776 340004121 -1374966230 -352258111 995327228 -308312159 722538594 313108479 -44361367 325468228 21355899 1437937021 2086877219 -1893317442 -1639852784 -705188818 -1566605421 1704148495 -142379340 -1704517917 838367303 -96080000 1669822814 -303861635 -1747755762 -1557160770 2082501762 1181506633 1250450830 -468492282 1454735642 2017445003
REM
CELL 1.54180   50.00000   50.00000   50.00000   90.00000   90.00000   90.00000
LATT -1
SFAC C  
C      1  0.5006770000000  0.5021020000000  0.4334230000000 1.0
C      1  0.5006770000000  0.5021020000000  0.5133150000000 1.0
C      1  0.5006770000000  0.5021020000000  0.4866850000000 1.0
C      1  0.5006770000000  0.5021020000000  0.4600540000000 1.0
C      1  0.5006770000000  0.5021020000000  0.5399460000000 1.0
C      1  0.5006770000000  0.5021020000000  0.4072160000000 1.0
C      1  0.5006770000000  0.5021020000000  0.5665770000000 1.0
C      1  0.5006770000000  0.5021020000000  0.5927840000000 1.0
END
