TITL C-2782239-8622-66 1.69360667688007e-05 125000 -625.877636877103 0 0 110 (S10) n - 1
REM
REM in /home/nfs/bkarasulu/CARBON/AIRSS/Generating-Clusters/REBO/Higher-Symm/SD-CG/HFTN-CG
REM
REM
REM
REM
REM
REM ./C.cell (12c818d87b63d06a65506943cc24bca4)
REM
REM compiler GCC version 9.2.1 20190827 (Red Hat 9.2.1-1)
REM options -cpp -mtune=generic -march=x86-64 -g -O0 -fpre-include=/usr/include/finclude/math-vector-fortran.h
REM seed -1314817649 969840545 1792161306 -657262291 45623952 -110211299 -1223009970 -250451498 1363443725 -1529847243 -276506571 -1145036435 1901319174 1189926521 -1255870660 -653518615 -1937226099 197539815 -855602324 2008285823 -1851528622 839698236 1731748695 -1302142250 1787934264 1607293873 -770803319 1963973085 992665247 -504585648 739769628 1568599037 -677170470
REM
CELL 1.54180   50.00000   50.00000   50.00000   90.00000   90.00000   90.00000
LATT -1
SFAC C  
C      1  0.4736970000000  0.5944510000000  0.5272480000000 1.0
C      1  0.5263040000000  0.5603970000000  0.5775610000000 1.0
C      1  0.4736980000000  0.5032730000000  0.5982490000000 1.0
C      1  0.5263040000000  0.4448990000000  0.5814080000000 1.0
C      1  0.4736970000000  0.4075710000000  0.5334730000000 1.0
C      1  0.5263030000000  0.4055490000000  0.4727520000000 1.0
C      1  0.4736960000000  0.4396030000000  0.4224390000000 1.0
C      1  0.5263020000000  0.4967270000000  0.4017510000000 1.0
C      1  0.4736960000000  0.5551010000000  0.4185920000000 1.0
C      1  0.5263030000000  0.5924290000000  0.4665270000000 1.0
C      1  0.5178560000000  0.5260030000000  0.5049250000000 1.0
C      1  0.4821440000000  0.5181420000000  0.5192690000000 1.0
C      1  0.5178570000000  0.5033520000000  0.5262520000000 1.0
C      1  0.4821440000000  0.4872810000000  0.5232090000000 1.0
C      1  0.5178560000000  0.4760680000000  0.5113000000000 1.0
C      1  0.4821440000000  0.4739970000000  0.4950750000000 1.0
C      1  0.5178560000000  0.4818580000000  0.4807310000000 1.0
C      1  0.4821430000000  0.4966480000000  0.4737480000000 1.0
C      1  0.5178560000000  0.5127190000000  0.4767910000000 1.0
C      1  0.4821440000000  0.5239320000000  0.4887000000000 1.0
C      1  0.4267410000000  0.5395310000000  0.4675070000000 1.0
C      1  0.5732590000000  0.5510800000000  0.4969470000000 1.0
C      1  0.4267410000000  0.5431190000000  0.5275560000000 1.0
C      1  0.5732600000000  0.5186880000000  0.5476360000000 1.0
C      1  0.4267420000000  0.4871180000000  0.5495240000000 1.0
C      1  0.5732590000000  0.4604690000000  0.5324930000000 1.0
C      1  0.4267410000000  0.4489200000000  0.5030530000000 1.0
C      1  0.5732590000000  0.4568810000000  0.4724440000000 1.0
C      1  0.4267400000000  0.4813120000000  0.4523640000000 1.0
C      1  0.5732580000000  0.5128820000000  0.4504760000000 1.0
C      1  0.4405470000000  0.4483740000000  0.4739210000000 1.0
C      1  0.5594520000000  0.4735630000000  0.4485550000000 1.0
C      1  0.4405470000000  0.5088500000000  0.4428420000000 1.0
C      1  0.5594520000000  0.5407570000000  0.4589590000000 1.0
C      1  0.4405480000000  0.5570960000000  0.4907550000000 1.0
C      1  0.5594530000000  0.5516260000000  0.5260790000000 1.0
C      1  0.4405480000000  0.5264370000000  0.5514450000000 1.0
C      1  0.5594530000000  0.4911500000000  0.5571580000000 1.0
C      1  0.4405480000000  0.4592430000000  0.5410410000000 1.0
C      1  0.5594520000000  0.4429040000000  0.5092450000000 1.0
C      1  0.5497410000000  0.4718520000000  0.5024280000000 1.0
C      1  0.4502590000000  0.4758000000000  0.4854210000000 1.0
C      1  0.5497410000000  0.4889920000000  0.4739800000000 1.0
C      1  0.4502590000000  0.5063880000000  0.4724790000000 1.0
C      1  0.5497410000000  0.5213450000000  0.4814890000000 1.0
C      1  0.4502590000000  0.5281480000000  0.4975720000000 1.0
C      1  0.5497410000000  0.5242000000000  0.5145790000000 1.0
C      1  0.4502590000000  0.5110080000000  0.5260200000000 1.0
C      1  0.5497410000000  0.4936120000000  0.5275210000000 1.0
C      1  0.4502590000000  0.4786550000000  0.5185110000000 1.0
C      1  0.5372650000000  0.5496850000000  0.4362200000000 1.0
C      1  0.4627340000000  0.5776850000000  0.4776060000000 1.0
C      1  0.5372660000000  0.5760110000000  0.5275440000000 1.0
C      1  0.4627350000000  0.5453040000000  0.5669630000000 1.0
C      1  0.5372670000000  0.4972930000000  0.5808020000000 1.0
C      1  0.4627350000000  0.4503150000000  0.5637800000000 1.0
C      1  0.5372660000000  0.4223150000000  0.5223940000000 1.0
C      1  0.4627340000000  0.4239890000000  0.4724560000000 1.0
C      1  0.5372650000000  0.4546960000000  0.4330370000000 1.0
C      1  0.4627330000000  0.5027070000000  0.4191980000000 1.0
C      1  0.5476190000000  0.5708380000000  0.4604840000000 1.0
C      1  0.4523810000000  0.5805360000000  0.5096690000000 1.0
C      1  0.5476200000000  0.5594720000000  0.5551590000000 1.0
C      1  0.4523820000000  0.5156920000000  0.5795820000000 1.0
C      1  0.5476200000000  0.4659180000000  0.5736060000000 1.0
C      1  0.4523810000000  0.4291620000000  0.5395160000000 1.0
C      1  0.5476190000000  0.4194640000000  0.4903310000000 1.0
C      1  0.4523800000000  0.4405280000000  0.4448410000000 1.0
C      1  0.5476180000000  0.4843080000000  0.4204180000000 1.0
C      1  0.4523800000000  0.5340820000000  0.4263940000000 1.0
C      1  0.5866140000000  0.4775160000000  0.4880510000000 1.0
C      1  0.4133860000000  0.4888330000000  0.4771190000000 1.0
C      1  0.5866130000000  0.5044150000000  0.4749230000000 1.0
C      1  0.4133860000000  0.5183110000000  0.4823100000000 1.0
C      1  0.5866140000000  0.5252130000000  0.4964490000000 1.0
C      1  0.4133860000000  0.5224840000000  0.5119490000000 1.0
C      1  0.5866140000000  0.5111670000000  0.5228810000000 1.0
C      1  0.4133870000000  0.4955850000000  0.5250770000000 1.0
C      1  0.5866140000000  0.4816890000000  0.5176900000000 1.0
C      1  0.4133860000000  0.4747870000000  0.5035510000000 1.0
C      1  0.4937070000000  0.4487120000000  0.5734130000000 1.0
C      1  0.5062940000000  0.4153560000000  0.5292460000000 1.0
C      1  0.4937060000000  0.4143310000000  0.4739080000000 1.0
C      1  0.5062930000000  0.4460290000000  0.4285360000000 1.0
C      1  0.4937050000000  0.4983420000000  0.4104610000000 1.0
C      1  0.5062930000000  0.5512880000000  0.4265870000000 1.0
C      1  0.4937060000000  0.5846440000000  0.4707540000000 1.0
C      1  0.5062940000000  0.5856690000000  0.5260920000000 1.0
C      1  0.4937070000000  0.5539710000000  0.5714640000000 1.0
C      1  0.5062950000000  0.5016580000000  0.5895390000000 1.0
C      1  0.4535340000000  0.4724940000000  0.4329550000000 1.0
C      1  0.5464650000000  0.5171560000000  0.4295910000000 1.0
C      1  0.4535340000000  0.5552650000000  0.4531230000000 1.0
C      1  0.5464650000000  0.5722640000000  0.4945580000000 1.0
C      1  0.4535350000000  0.5616610000000  0.5380740000000 1.0
C      1  0.5464660000000  0.5275060000000  0.5670450000000 1.0
C      1  0.4535350000000  0.4828440000000  0.5704090000000 1.0
C      1  0.5464660000000  0.4447350000000  0.5468770000000 1.0
C      1  0.4535350000000  0.4277360000000  0.5054420000000 1.0
C      1  0.5464650000000  0.4383390000000  0.4619260000000 1.0
C      1  0.4851750000000  0.4143800000000  0.5035790000000 1.0
C      1  0.5148250000000  0.4286290000000  0.4525690000000 1.0
C      1  0.4851740000000  0.4701380000000  0.4196770000000 1.0
C      1  0.5148240000000  0.5230540000000  0.4174650000000 1.0
C      1  0.4851740000000  0.5671640000000  0.4467790000000 1.0
C      1  0.5148250000000  0.5856200000000  0.4964210000000 1.0
C      1  0.4851750000000  0.5713710000000  0.5474310000000 1.0
C      1  0.5148260000000  0.5298620000000  0.5803230000000 1.0
C      1  0.4851760000000  0.4769460000000  0.5825350000000 1.0
C      1  0.5148260000000  0.4328360000000  0.5532210000000 1.0
END
