TITL C-2782229-3092-1169 0.00490106955916284 125000 -963.580234117049 0 0 165 (C1) n - 1
REM
REM in /home/nfs/bkarasulu/CARBON/AIRSS/Generating-Clusters/REBO/Higher-Symm/SD-CG/HFTN-CG
REM
REM
REM
REM
REM
REM ./C.cell (12c818d87b63d06a65506943cc24bca4)
REM
REM compiler GCC version 9.2.1 20190827 (Red Hat 9.2.1-1)
REM options -cpp -mtune=generic -march=x86-64 -g -O0 -fpre-include=/usr/include/finclude/math-vector-fortran.h
REM seed 691812273 -1938692999 1801583396 1216504551 -1368257580 -384069169 -1164535420 -1415481013 -449732491 -373561834 -961558101 1516659867 226360688 -2008722553 684112871 1552586910 2107061764 838540387 661495893 28978158 530808262 -1979649778 -129892786 -1392484130 -2019517509 658910302 -411120164 643869888 912654647 -23722868 827357802 -904502910 878789577
REM
CELL 1.54180   50.00000   50.00000   50.00000   90.00000   90.00000   90.00000
LATT -1
SFAC C  
C      1  0.5482940000000  0.5494170000000  0.5059140000000 1.0
C      1  0.5473580000000  0.5109870000000  0.5489520000000 1.0
C      1  0.5469570000000  0.4561120000000  0.5239200000000 1.0
C      1  0.5525760000000  0.4618120000000  0.4632630000000 1.0
C      1  0.5456370000000  0.5229260000000  0.4548010000000 1.0
C      1  0.5162110000000  0.5954970000000  0.4647650000000 1.0
C      1  0.5185660000000  0.5540450000000  0.5800740000000 1.0
C      1  0.5157880000000  0.4384510000000  0.5801010000000 1.0
C      1  0.5172340000000  0.4061740000000  0.4652600000000 1.0
C      1  0.5161820000000  0.4964670000000  0.4007600000000 1.0
C      1  0.5401080000000  0.4771120000000  0.4368720000000 1.0
C      1  0.5311600000000  0.5524080000000  0.4592290000000 1.0
C      1  0.5365760000000  0.5524660000000  0.5353540000000 1.0
C      1  0.5289700000000  0.4854770000000  0.5602990000000 1.0
C      1  0.5324460000000  0.4357650000000  0.5015350000000 1.0
C      1  0.5500090000000  0.4757980000000  0.4040680000000 1.0
C      1  0.5632190000000  0.5866280000000  0.4472040000000 1.0
C      1  0.5417870000000  0.5997880000000  0.5462890000000 1.0
C      1  0.5407510000000  0.4603660000000  0.5896370000000 1.0
C      1  0.5490840000000  0.4016550000000  0.4885350000000 1.0
C      1  0.5468050000000  0.5938600000000  0.4741650000000 1.0
C      1  0.5428540000000  0.5392000000000  0.5814480000000 1.0
C      1  0.5475360000000  0.4338010000000  0.5692360000000 1.0
C      1  0.5470900000000  0.4149160000000  0.4572740000000 1.0
C      1  0.5460360000000  0.5089540000000  0.4112570000000 1.0
C      1  0.4343680000000  0.4772920000000  0.4962760000000 1.0
C      1  0.4437910000000  0.5009530000000  0.4796620000000 1.0
C      1  0.4339180000000  0.5255060000000  0.4949750000000 1.0
C      1  0.4441510000000  0.5176000000000  0.5239800000000 1.0
C      1  0.4420940000000  0.4865390000000  0.5247750000000 1.0
C      1  0.4383750000000  0.5632650000000  0.4334510000000 1.0
C      1  0.4424230000000  0.5804840000000  0.5382880000000 1.0
C      1  0.4393660000000  0.4820570000000  0.5920410000000 1.0
C      1  0.4392750000000  0.4076560000000  0.5153410000000 1.0
C      1  0.4473230000000  0.4605430000000  0.4241700000000 1.0
C      1  0.4317600000000  0.4491450000000  0.4523430000000 1.0
C      1  0.4256590000000  0.5316540000000  0.4319900000000 1.0
C      1  0.4251980000000  0.5710840000000  0.5101780000000 1.0
C      1  0.4299700000000  0.5095730000000  0.5736550000000 1.0
C      1  0.4286950000000  0.4322210000000  0.5369610000000 1.0
C      1  0.4839620000000  0.5523550000000  0.5401030000000 1.0
C      1  0.4785010000000  0.4750700000000  0.5587810000000 1.0
C      1  0.4809640000000  0.4351070000000  0.4952930000000 1.0
C      1  0.4830920000000  0.4890200000000  0.4501550000000 1.0
C      1  0.4800510000000  0.5542160000000  0.4655150000000 1.0
C      1  0.5460950000000  0.5949370000000  0.5069530000000 1.0
C      1  0.5415350000000  0.5130100000000  0.5956240000000 1.0
C      1  0.5411500000000  0.4139330000000  0.5447680000000 1.0
C      1  0.5461040000000  0.4321030000000  0.4314330000000 1.0
C      1  0.5403190000000  0.5375600000000  0.4235050000000 1.0
C      1  0.5250950000000  0.5014120000000  0.4450890000000 1.0
C      1  0.5238390000000  0.5513650000000  0.4878920000000 1.0
C      1  0.5188470000000  0.5247260000000  0.5446660000000 1.0
C      1  0.5204700000000  0.4663900000000  0.5366730000000 1.0
C      1  0.5249070000000  0.4531980000000  0.4753310000000 1.0
C      1  0.5038630000000  0.5141660000000  0.5206000000000 1.0
C      1  0.5079650000000  0.4838710000000  0.5158890000000 1.0
C      1  0.5145400000000  0.4783970000000  0.4891180000000 1.0
C      1  0.5182670000000  0.5019140000000  0.4754620000000 1.0
C      1  0.5151820000000  0.5231440000000  0.4932090000000 1.0
C      1  0.5616390000000  0.4832790000000  0.4821140000000 1.0
C      1  0.5591000000000  0.5109450000000  0.4781830000000 1.0
C      1  0.5598950000000  0.5228240000000  0.5031660000000 1.0
C      1  0.5596240000000  0.5033500000000  0.5228920000000 1.0
C      1  0.5603500000000  0.4785740000000  0.5098610000000 1.0
C      1  0.4064640000000  0.5047970000000  0.5530800000000 1.0
C      1  0.4030230000000  0.4512350000000  0.5251680000000 1.0
C      1  0.4130530000000  0.4683140000000  0.4674750000000 1.0
C      1  0.4033280000000  0.5225700000000  0.4553800000000 1.0
C      1  0.4077810000000  0.5475550000000  0.5115280000000 1.0
C      1  0.5007760000000  0.4773780000000  0.4244900000000 1.0
C      1  0.5054330000000  0.5688920000000  0.4476990000000 1.0
C      1  0.5103700000000  0.5630880000000  0.5517140000000 1.0
C      1  0.5054780000000  0.4697800000000  0.5735160000000 1.0
C      1  0.5086320000000  0.4187480000000  0.4911480000000 1.0
C      1  0.5664540000000  0.4572650000000  0.4261360000000 1.0
C      1  0.5597530000000  0.5580670000000  0.4426600000000 1.0
C      1  0.5604850000000  0.5769200000000  0.5317130000000 1.0
C      1  0.5548890000000  0.4873950000000  0.5805060000000 1.0
C      1  0.5567490000000  0.4183460000000  0.5158750000000 1.0
C      1  0.4901690000000  0.3985710000000  0.5086030000000 1.0
C      1  0.5197050000000  0.4628850000000  0.4001260000000 1.0
C      1  0.4841860000000  0.5838410000000  0.4257080000000 1.0
C      1  0.5175510000000  0.5937990000000  0.5509850000000 1.0
C      1  0.5127960000000  0.4686480000000  0.6055910000000 1.0
C      1  0.4191640000000  0.4259190000000  0.4988210000000 1.0
C      1  0.4265170000000  0.4836640000000  0.4329380000000 1.0
C      1  0.4170020000000  0.5607310000000  0.4577540000000 1.0
C      1  0.4203220000000  0.5587190000000  0.5478020000000 1.0
C      1  0.4182550000000  0.4710970000000  0.5708020000000 1.0
C      1  0.5798090000000  0.4408380000000  0.5046210000000 1.0
C      1  0.5877590000000  0.4742160000000  0.4450710000000 1.0
C      1  0.5798210000000  0.5421940000000  0.4624910000000 1.0
C      1  0.5799520000000  0.5489500000000  0.5312250000000 1.0
C      1  0.5786910000000  0.4853290000000  0.5570700000000 1.0
C      1  0.4692980000000  0.4422180000000  0.4393710000000 1.0
C      1  0.4674630000000  0.5593660000000  0.4216920000000 1.0
C      1  0.4616410000000  0.5867650000000  0.5120130000000 1.0
C      1  0.4622930000000  0.5028020000000  0.5958470000000 1.0
C      1  0.4694980000000  0.4106020000000  0.5246330000000 1.0
C      1  0.3956620000000  0.4950010000000  0.4740070000000 1.0
C      1  0.3962940000000  0.5241770000000  0.4891580000000 1.0
C      1  0.3977460000000  0.5175860000000  0.5227380000000 1.0
C      1  0.3956920000000  0.4845160000000  0.5276930000000 1.0
C      1  0.3957030000000  0.4696660000000  0.4970800000000 1.0
C      1  0.5958340000000  0.5201090000000  0.5202340000000 1.0
C      1  0.5956760000000  0.4866840000000  0.5267780000000 1.0
C      1  0.5971770000000  0.4701160000000  0.4970810000000 1.0
C      1  0.5989990000000  0.4930200000000  0.4719460000000 1.0
C      1  0.5961810000000  0.5234590000000  0.4863470000000 1.0
C      1  0.4981310000000  0.4025560000000  0.4460230000000 1.0
C      1  0.4982320000000  0.5151050000000  0.3886280000000 1.0
C      1  0.4976350000000  0.6096490000000  0.4789190000000 1.0
C      1  0.4978380000000  0.5547940000000  0.5983610000000 1.0
C      1  0.4950770000000  0.4194610000000  0.5806800000000 1.0
C      1  0.4743460000000  0.5246660000000  0.5232270000000 1.0
C      1  0.4701940000000  0.4741200000000  0.5283730000000 1.0
C      1  0.4764380000000  0.4691710000000  0.4964830000000 1.0
C      1  0.4753170000000  0.4993180000000  0.4800860000000 1.0
C      1  0.4765190000000  0.5319280000000  0.4902360000000 1.0
C      1  0.4647050000000  0.4898680000000  0.4234930000000 1.0
C      1  0.4548590000000  0.5721840000000  0.4621310000000 1.0
C      1  0.4588910000000  0.5574830000000  0.5574230000000 1.0
C      1  0.4561120000000  0.4591200000000  0.5730150000000 1.0
C      1  0.4565750000000  0.4184200000000  0.4875960000000 1.0
C      1  0.5869070000000  0.5157580000000  0.5517690000000 1.0
C      1  0.5861290000000  0.4555390000000  0.5319750000000 1.0
C      1  0.5914150000000  0.4543170000000  0.4691940000000 1.0
C      1  0.5861220000000  0.5137500000000  0.4491020000000 1.0
C      1  0.5875590000000  0.5528570000000  0.4998570000000 1.0
C      1  0.4775640000000  0.5035910000000  0.5693740000000 1.0
C      1  0.4770920000000  0.4434250000000  0.5268560000000 1.0
C      1  0.4763930000000  0.4609250000000  0.4653320000000 1.0
C      1  0.4782130000000  0.5332920000000  0.4418740000000 1.0
C      1  0.4800300000000  0.5608940000000  0.5083150000000 1.0
C      1  0.5087210000000  0.5480780000000  0.4206790000000 1.0
C      1  0.5170710000000  0.5960380000000  0.5110600000000 1.0
C      1  0.5119650000000  0.5178890000000  0.5957740000000 1.0
C      1  0.5119520000000  0.4152780000000  0.5448200000000 1.0
C      1  0.5173340000000  0.4411000000000  0.4228840000000 1.0
C      1  0.4428160000000  0.4269370000000  0.4650460000000 1.0
C      1  0.4558530000000  0.5211800000000  0.4200930000000 1.0
C      1  0.4426720000000  0.5823220000000  0.4861370000000 1.0
C      1  0.4523200000000  0.5351230000000  0.5756500000000 1.0
C      1  0.4498950000000  0.4354370000000  0.5577100000000 1.0
C      1  0.4863150000000  0.6056870000000  0.5066490000000 1.0
C      1  0.4777320000000  0.5311210000000  0.5983400000000 1.0
C      1  0.4768920000000  0.4160620000000  0.5558250000000 1.0
C      1  0.4906840000000  0.4250420000000  0.4302870000000 1.0
C      1  0.4822890000000  0.5352020000000  0.4026740000000 1.0
C      1  0.4264500000000  0.5471450000000  0.4766730000000 1.0
C      1  0.4283570000000  0.5354010000000  0.5435370000000 1.0
C      1  0.4276150000000  0.4714120000000  0.5475940000000 1.0
C      1  0.4303890000000  0.4483030000000  0.4964280000000 1.0
C      1  0.4342710000000  0.4981050000000  0.4514890000000 1.0
C      1  0.5056670000000  0.5717760000000  0.4982210000000 1.0
C      1  0.5010630000000  0.5185110000000  0.5686010000000 1.0
C      1  0.5028690000000  0.4426210000000  0.5419280000000 1.0
C      1  0.5052580000000  0.4558800000000  0.4509090000000 1.0
C      1  0.5039070000000  0.5175200000000  0.4321510000000 1.0
C      1  0.5672830000000  0.4338730000000  0.4736920000000 1.0
C      1  0.5722260000000  0.4990590000000  0.4276810000000 1.0
C      1  0.5640630000000  0.5662040000000  0.4815340000000 1.0
C      1  0.5647050000000  0.5376860000000  0.5594880000000 1.0
C      1  0.5625940000000  0.4554570000000  0.5532310000000 1.0
END
