TITL C-2782229-3092-102 -1.84759457757759e-05 125000 -879.561677750507 0 0 150 (C1) n - 1
REM
REM in /home/nfs/bkarasulu/CARBON/AIRSS/Generating-Clusters/REBO/Higher-Symm/SD-CG/HFTN-CG
REM
REM
REM
REM
REM
REM ./C.cell (12c818d87b63d06a65506943cc24bca4)
REM
REM compiler GCC version 9.2.1 20190827 (Red Hat 9.2.1-1)
REM options -cpp -mtune=generic -march=x86-64 -g -O0 -fpre-include=/usr/include/finclude/math-vector-fortran.h
REM seed 374258686 23168874 -1516857902 -382990749 478054524 2085407758 1142613152 -1980156358 1261331658 1803364039 -113464125 -2002179233 6076592 1157284479 1714908063 -1959856833 -1833726755 -355292302 1997667285 -615743242 492794521 -987945013 1859282683 1232042672 -1664131493 1714738721 -997455331 -1066794610 1748065969 -209755883 484417374 1331606603 1702255719
REM
CELL 1.54180   50.00000   50.00000   50.00000   90.00000   90.00000   90.00000
LATT -1
SFAC C  
C      1  0.5906860000000  0.5398830000000  0.4383400000000 1.0
C      1  0.4155380000000  0.4730980000000  0.4588320000000 1.0
C      1  0.5648480000000  0.5394510000000  0.5713120000000 1.0
C      1  0.4135740000000  0.4530010000000  0.5703280000000 1.0
C      1  0.5118860000000  0.4592450000000  0.5192830000000 1.0
C      1  0.4837150000000  0.5411880000000  0.5196900000000 1.0
C      1  0.5109660000000  0.4631700000000  0.4751020000000 1.0
C      1  0.4897000000000  0.5399750000000  0.4735370000000 1.0
C      1  0.5411270000000  0.4161210000000  0.5442530000000 1.0
C      1  0.4539230000000  0.5854640000000  0.5424350000000 1.0
C      1  0.5425430000000  0.4286530000000  0.4524740000000 1.0
C      1  0.4582020000000  0.5747410000000  0.4497310000000 1.0
C      1  0.4919380000000  0.5499070000000  0.3864320000000 1.0
C      1  0.5096130000000  0.4405990000000  0.3878190000000 1.0
C      1  0.5152910000000  0.5534430000000  0.5972750000000 1.0
C      1  0.5038600000000  0.4370250000000  0.6066140000000 1.0
C      1  0.5204210000000  0.5170160000000  0.4622110000000 1.0
C      1  0.4780280000000  0.4868180000000  0.4609150000000 1.0
C      1  0.5161700000000  0.5163940000000  0.5339670000000 1.0
C      1  0.4822360000000  0.4837030000000  0.5364320000000 1.0
C      1  0.5616320000000  0.4482550000000  0.5325320000000 1.0
C      1  0.4475820000000  0.5540640000000  0.5391160000000 1.0
C      1  0.5609020000000  0.4535050000000  0.4490360000000 1.0
C      1  0.4401260000000  0.5506950000000  0.4441640000000 1.0
C      1  0.5144240000000  0.4643220000000  0.5997590000000 1.0
C      1  0.4883310000000  0.5391390000000  0.6007010000000 1.0
C      1  0.5111630000000  0.4704490000000  0.3906730000000 1.0
C      1  0.4899130000000  0.5180000000000  0.3894460000000 1.0
C      1  0.4719150000000  0.4568990000000  0.5548520000000 1.0
C      1  0.5199360000000  0.5428090000000  0.5537600000000 1.0
C      1  0.4664980000000  0.4585200000000  0.4477200000000 1.0
C      1  0.5323190000000  0.5433820000000  0.4452970000000 1.0
C      1  0.5089540000000  0.4680960000000  0.4429490000000 1.0
C      1  0.4896240000000  0.5334150000000  0.4427640000000 1.0
C      1  0.5217160000000  0.4621390000000  0.5502730000000 1.0
C      1  0.4805680000000  0.5362710000000  0.5530450000000 1.0
C      1  0.4148090000000  0.5356400000000  0.4600520000000 1.0
C      1  0.5853090000000  0.4682170000000  0.4676720000000 1.0
C      1  0.4209120000000  0.5417200000000  0.5227830000000 1.0
C      1  0.5906950000000  0.4569210000000  0.5341810000000 1.0
C      1  0.4777270000000  0.4570800000000  0.5156390000000 1.0
C      1  0.5178060000000  0.5436370000000  0.5142090000000 1.0
C      1  0.4806860000000  0.4643300000000  0.4846320000000 1.0
C      1  0.5208390000000  0.5414410000000  0.4843160000000 1.0
C      1  0.5512670000000  0.5019390000000  0.5303180000000 1.0
C      1  0.4398430000000  0.5067720000000  0.5255930000000 1.0
C      1  0.5547020000000  0.4982510000000  0.4982660000000 1.0
C      1  0.4446190000000  0.5013870000000  0.4939130000000 1.0
C      1  0.4534230000000  0.4089350000000  0.5117180000000 1.0
C      1  0.5381300000000  0.5780450000000  0.5130420000000 1.0
C      1  0.4540320000000  0.4226140000000  0.4843570000000 1.0
C      1  0.5414560000000  0.5756920000000  0.4853900000000 1.0
C      1  0.4304500000000  0.4726080000000  0.4872730000000 1.0
C      1  0.5704370000000  0.5203470000000  0.4796070000000 1.0
C      1  0.4191260000000  0.4850070000000  0.5638750000000 1.0
C      1  0.5731460000000  0.5222470000000  0.5438380000000 1.0
C      1  0.5367320000000  0.4878550000000  0.5946520000000 1.0
C      1  0.5015700000000  0.4918560000000  0.5858540000000 1.0
C      1  0.5184650000000  0.5033240000000  0.3941830000000 1.0
C      1  0.4824900000000  0.4864430000000  0.3947340000000 1.0
C      1  0.4598190000000  0.5162040000000  0.5424720000000 1.0
C      1  0.5444600000000  0.4794750000000  0.5507080000000 1.0
C      1  0.4637460000000  0.5168480000000  0.4371200000000 1.0
C      1  0.5362680000000  0.4847480000000  0.4452550000000 1.0
C      1  0.5732110000000  0.5234070000000  0.5960630000000 1.0
C      1  0.4462350000000  0.4918230000000  0.5781910000000 1.0
C      1  0.5496660000000  0.5061610000000  0.4354950000000 1.0
C      1  0.4463830000000  0.4984740000000  0.4280490000000 1.0
C      1  0.5528970000000  0.4406310000000  0.5626010000000 1.0
C      1  0.4443770000000  0.5416860000000  0.5697010000000 1.0
C      1  0.5632710000000  0.4707430000000  0.4197180000000 1.0
C      1  0.4393530000000  0.5382370000000  0.4138230000000 1.0
C      1  0.5532560000000  0.5462580000000  0.4791790000000 1.0
C      1  0.4519060000000  0.4512700000000  0.4856740000000 1.0
C      1  0.5482290000000  0.5523610000000  0.5273670000000 1.0
C      1  0.4518930000000  0.4408630000000  0.5241060000000 1.0
C      1  0.5592330000000  0.5488270000000  0.4398890000000 1.0
C      1  0.4394450000000  0.4530260000000  0.4477620000000 1.0
C      1  0.5344120000000  0.5438310000000  0.5776090000000 1.0
C      1  0.4457460000000  0.4552280000000  0.5620820000000 1.0
C      1  0.4834880000000  0.4360550000000  0.4477910000000 1.0
C      1  0.5157530000000  0.5663540000000  0.4462570000000 1.0
C      1  0.4849790000000  0.4317670000000  0.5482410000000 1.0
C      1  0.5065030000000  0.5671370000000  0.5470530000000 1.0
C      1  0.4872930000000  0.5675530000000  0.4034300000000 1.0
C      1  0.5134140000000  0.4258300000000  0.4076650000000 1.0
C      1  0.4963190000000  0.5757450000000  0.5869270000000 1.0
C      1  0.5087140000000  0.4196360000000  0.5888520000000 1.0
C      1  0.4097580000000  0.5130770000000  0.5089370000000 1.0
C      1  0.5987910000000  0.4820980000000  0.5177710000000 1.0
C      1  0.4159720000000  0.5085100000000  0.4774050000000 1.0
C      1  0.5840490000000  0.4855940000000  0.4938370000000 1.0
C      1  0.4951420000000  0.5961510000000  0.5084270000000 1.0
C      1  0.5003810000000  0.4088410000000  0.5107170000000 1.0
C      1  0.4974470000000  0.5906240000000  0.4811580000000 1.0
C      1  0.5002720000000  0.4124080000000  0.4831380000000 1.0
C      1  0.5412470000000  0.4792690000000  0.4039660000000 1.0
C      1  0.4597850000000  0.5298800000000  0.3989560000000 1.0
C      1  0.5433820000000  0.4565580000000  0.5833660000000 1.0
C      1  0.4636060000000  0.5383620000000  0.5891820000000 1.0
C      1  0.5211610000000  0.5840040000000  0.4678160000000 1.0
C      1  0.4771910000000  0.4165070000000  0.4678260000000 1.0
C      1  0.5149860000000  0.5855910000000  0.5268100000000 1.0
C      1  0.4784920000000  0.4114080000000  0.5281250000000 1.0
C      1  0.4183170000000  0.4992040000000  0.4444680000000 1.0
C      1  0.5763430000000  0.5141190000000  0.4499080000000 1.0
C      1  0.4113220000000  0.5086390000000  0.5427890000000 1.0
C      1  0.5901420000000  0.4951410000000  0.5447620000000 1.0
C      1  0.4696690000000  0.4928340000000  0.5851760000000 1.0
C      1  0.5587540000000  0.5045410000000  0.6035380000000 1.0
C      1  0.4583210000000  0.4824200000000  0.4075900000000 1.0
C      1  0.5396600000000  0.5180780000000  0.4132250000000 1.0
C      1  0.5831430000000  0.4849200000000  0.4403070000000 1.0
C      1  0.4138060000000  0.5266270000000  0.4271790000000 1.0
C      1  0.5730650000000  0.4748930000000  0.5597980000000 1.0
C      1  0.4164020000000  0.5373040000000  0.5564000000000 1.0
C      1  0.5454580000000  0.4559250000000  0.5090170000000 1.0
C      1  0.4512440000000  0.5428170000000  0.5070240000000 1.0
C      1  0.5560270000000  0.4594970000000  0.4828050000000 1.0
C      1  0.4436400000000  0.5421050000000  0.4772700000000 1.0
C      1  0.4727120000000  0.5116600000000  0.4821580000000 1.0
C      1  0.5272360000000  0.4919430000000  0.4834530000000 1.0
C      1  0.4840330000000  0.5076980000000  0.5119960000000 1.0
C      1  0.5126550000000  0.4914770000000  0.5116610000000 1.0
C      1  0.4111120000000  0.4693640000000  0.5110330000000 1.0
C      1  0.5953150000000  0.5269170000000  0.4974440000000 1.0
C      1  0.4084380000000  0.4696450000000  0.5353480000000 1.0
C      1  0.5953060000000  0.5300330000000  0.5222110000000 1.0
C      1  0.4114470000000  0.4287070000000  0.4886880000000 1.0
C      1  0.5796670000000  0.5647700000000  0.4890880000000 1.0
C      1  0.4207660000000  0.4306760000000  0.5132110000000 1.0
C      1  0.5779210000000  0.5655810000000  0.5165870000000 1.0
C      1  0.5502120000000  0.4162830000000  0.5112250000000 1.0
C      1  0.4480560000000  0.5843870000000  0.5085640000000 1.0
C      1  0.5502240000000  0.4200700000000  0.4847380000000 1.0
C      1  0.4491700000000  0.5813680000000  0.4822180000000 1.0
C      1  0.4781540000000  0.5685450000000  0.4740040000000 1.0
C      1  0.5210310000000  0.4336430000000  0.4760150000000 1.0
C      1  0.4769040000000  0.5746210000000  0.5213920000000 1.0
C      1  0.5210480000000  0.4263930000000  0.5210130000000 1.0
C      1  0.5727300000000  0.5614410000000  0.5486360000000 1.0
C      1  0.4254210000000  0.4348080000000  0.5451360000000 1.0
C      1  0.5826260000000  0.5640640000000  0.4588520000000 1.0
C      1  0.4148420000000  0.4398390000000  0.4636690000000 1.0
C      1  0.4866230000000  0.5649800000000  0.4340230000000 1.0
C      1  0.5135690000000  0.4354900000000  0.4367920000000 1.0
C      1  0.4774050000000  0.5691650000000  0.5609550000000 1.0
C      1  0.5143830000000  0.4303200000000  0.5600850000000 1.0
C      1  0.4998970000000  0.5009820000000  0.4430290000000 1.0
C      1  0.4953130000000  0.5058410000000  0.5574940000000 1.0
END
