TITL C-2782238-9940-120 -0.00321701560500326 125000 -1068.06012111798 0 0 184 (C1) n - 1
REM
REM in /home/nfs/bkarasulu/CARBON/AIRSS/Generating-Clusters/REBO/Higher-Symm/SD-CG/HFTN-CG
REM
REM
REM
REM
REM
REM ./C.cell (12c818d87b63d06a65506943cc24bca4)
REM
REM compiler GCC version 9.2.1 20190827 (Red Hat 9.2.1-1)
REM options -cpp -mtune=generic -march=x86-64 -g -O0 -fpre-include=/usr/include/finclude/math-vector-fortran.h
REM seed -299172075 -1807524661 1028716078 1813143600 1217647431 441954682 -1660934849 -1646105456 1843634541 414217651 -1118827433 -313296774 -943098781 813517716 2069370777 1828019020 -142361873 254097742 1573858839 4285886 972449416 605907159 -1208111270 862755678 -947676946 -2092821441 -1874647603 -2002587101 2037938864 -121872738 -2007293204 1283235700 -1150480759
REM
CELL 1.54180   50.00000   50.00000   50.00000   90.00000   90.00000   90.00000
LATT -1
SFAC C  
C      1  0.5029600000000  0.5682610000000  0.5996170000000 1.0
C      1  0.5848940000000  0.5665380000000  0.4472080000000 1.0
C      1  0.4128350000000  0.5659420000000  0.4530860000000 1.0
C      1  0.5090160000000  0.4447430000000  0.4036590000000 1.0
C      1  0.5852420000000  0.4299260000000  0.5491070000000 1.0
C      1  0.4141480000000  0.4310890000000  0.5469020000000 1.0
C      1  0.5538310000000  0.4496970000000  0.4393910000000 1.0
C      1  0.4295800000000  0.4533950000000  0.4825580000000 1.0
C      1  0.5194570000000  0.4564200000000  0.5682380000000 1.0
C      1  0.5494500000000  0.5468620000000  0.5509990000000 1.0
C      1  0.4313460000000  0.5471860000000  0.5180950000000 1.0
C      1  0.5205080000000  0.5485480000000  0.4315560000000 1.0
C      1  0.5131810000000  0.5705350000000  0.4807430000000 1.0
C      1  0.4771890000000  0.5702050000000  0.4987700000000 1.0
C      1  0.5105490000000  0.5705490000000  0.5208300000000 1.0
C      1  0.5114500000000  0.4265290000000  0.5236800000000 1.0
C      1  0.4731000000000  0.4249480000000  0.5065850000000 1.0
C      1  0.5138440000000  0.4289170000000  0.4651430000000 1.0
C      1  0.5048340000000  0.6029340000000  0.4592290000000 1.0
C      1  0.4622500000000  0.6027480000000  0.5160760000000 1.0
C      1  0.5334560000000  0.6027860000000  0.5249770000000 1.0
C      1  0.5049570000000  0.3930400000000  0.5441020000000 1.0
C      1  0.4683130000000  0.3938190000000  0.4819760000000 1.0
C      1  0.5342480000000  0.3956670000000  0.4775090000000 1.0
C      1  0.5253800000000  0.4030290000000  0.5031270000000 1.0
C      1  0.4900110000000  0.4042450000000  0.4679280000000 1.0
C      1  0.4831610000000  0.3984900000000  0.5259280000000 1.0
C      1  0.5249340000000  0.5985720000000  0.4968670000000 1.0
C      1  0.4905850000000  0.5984730000000  0.5230730000000 1.0
C      1  0.4845810000000  0.5979570000000  0.4798560000000 1.0
C      1  0.4910570000000  0.5522170000000  0.5654150000000 1.0
C      1  0.5611660000000  0.5525240000000  0.4754530000000 1.0
C      1  0.4483400000000  0.5502690000000  0.4608680000000 1.0
C      1  0.4891570000000  0.4441630000000  0.4376110000000 1.0
C      1  0.5591600000000  0.4505480000000  0.5274380000000 1.0
C      1  0.4493060000000  0.4480970000000  0.5413940000000 1.0
C      1  0.5946980000000  0.5103600000000  0.4543880000000 1.0
C      1  0.4117820000000  0.5117340000000  0.4416200000000 1.0
C      1  0.4925110000000  0.5147020000000  0.6068490000000 1.0
C      1  0.5936990000000  0.4860230000000  0.5493590000000 1.0
C      1  0.4114160000000  0.4869010000000  0.5584560000000 1.0
C      1  0.4966000000000  0.4930120000000  0.3908740000000 1.0
C      1  0.4918970000000  0.4934400000000  0.4236430000000 1.0
C      1  0.4396990000000  0.4964540000000  0.5473210000000 1.0
C      1  0.5715030000000  0.4966900000000  0.5291570000000 1.0
C      1  0.4911710000000  0.5047310000000  0.5760950000000 1.0
C      1  0.4407570000000  0.5033730000000  0.4534900000000 1.0
C      1  0.5667550000000  0.5053950000000  0.4700150000000 1.0
C      1  0.5703140000000  0.4973500000000  0.5690290000000 1.0
C      1  0.5242020000000  0.5027400000000  0.4019800000000 1.0
C      1  0.4042800000000  0.4992330000000  0.5293210000000 1.0
C      1  0.5750710000000  0.5003580000000  0.4313320000000 1.0
C      1  0.5214070000000  0.5038060000000  0.6021580000000 1.0
C      1  0.4048630000000  0.5011190000000  0.4707580000000 1.0
C      1  0.4796090000000  0.5213890000000  0.4216010000000 1.0
C      1  0.4447490000000  0.5226940000000  0.5587020000000 1.0
C      1  0.5785300000000  0.5226040000000  0.5190770000000 1.0
C      1  0.4772310000000  0.4790160000000  0.5778630000000 1.0
C      1  0.4453500000000  0.4773940000000  0.4410090000000 1.0
C      1  0.5762620000000  0.4784440000000  0.4798470000000 1.0
C      1  0.5430140000000  0.4811670000000  0.4031770000000 1.0
C      1  0.3980990000000  0.4781800000000  0.5109050000000 1.0
C      1  0.5585410000000  0.4781530000000  0.5853390000000 1.0
C      1  0.5389710000000  0.5221570000000  0.5922610000000 1.0
C      1  0.4003700000000  0.5227430000000  0.4888720000000 1.0
C      1  0.5614360000000  0.5232650000000  0.4206430000000 1.0
C      1  0.5333950000000  0.5255150000000  0.4160390000000 1.0
C      1  0.4112730000000  0.5235630000000  0.5154370000000 1.0
C      1  0.5559000000000  0.5222790000000  0.5692660000000 1.0
C      1  0.5277840000000  0.4740290000000  0.5947650000000 1.0
C      1  0.4097200000000  0.4767580000000  0.4847510000000 1.0
C      1  0.5613410000000  0.4760290000000  0.4246640000000 1.0
C      1  0.5957670000000  0.4342220000000  0.4547220000000 1.0
C      1  0.4093530000000  0.4367560000000  0.4434140000000 1.0
C      1  0.5058210000000  0.4495490000000  0.6044710000000 1.0
C      1  0.5953670000000  0.5635460000000  0.5475770000000 1.0
C      1  0.4118930000000  0.5644160000000  0.5591530000000 1.0
C      1  0.4923520000000  0.5648780000000  0.3945660000000 1.0
C      1  0.5394100000000  0.5199250000000  0.5124940000000 1.0
C      1  0.4906720000000  0.5200390000000  0.4598320000000 1.0
C      1  0.4700800000000  0.5191660000000  0.5282130000000 1.0
C      1  0.5374880000000  0.4751260000000  0.4883140000000 1.0
C      1  0.4912130000000  0.4784140000000  0.5405230000000 1.0
C      1  0.4678490000000  0.4738410000000  0.4736470000000 1.0
C      1  0.5924010000000  0.5410290000000  0.4677490000000 1.0
C      1  0.4260040000000  0.5404480000000  0.4369450000000 1.0
C      1  0.4817090000000  0.5434230000000  0.5970440000000 1.0
C      1  0.5911820000000  0.4575080000000  0.5333020000000 1.0
C      1  0.4260370000000  0.4578110000000  0.5643900000000 1.0
C      1  0.4882570000000  0.4637720000000  0.3971690000000 1.0
C      1  0.5075100000000  0.4747540000000  0.4758730000000 1.0
C      1  0.4720600000000  0.4773990000000  0.5055060000000 1.0
C      1  0.5183760000000  0.4765850000000  0.5231180000000 1.0
C      1  0.5099060000000  0.5178540000000  0.5257410000000 1.0
C      1  0.4733490000000  0.5174310000000  0.4957360000000 1.0
C      1  0.5156920000000  0.5174600000000  0.4804220000000 1.0
C      1  0.5695430000000  0.5731430000000  0.5546800000000 1.0
C      1  0.5117280000000  0.5746510000000  0.4130860000000 1.0
C      1  0.4189450000000  0.5737960000000  0.5333150000000 1.0
C      1  0.5713550000000  0.4216170000000  0.4453700000000 1.0
C      1  0.5163550000000  0.4260290000000  0.5820370000000 1.0
C      1  0.4173370000000  0.4256070000000  0.4685300000000 1.0
C      1  0.5334580000000  0.5575990000000  0.4576730000000 1.0
C      1  0.4472050000000  0.5563950000000  0.4933390000000 1.0
C      1  0.5202740000000  0.5570520000000  0.5498090000000 1.0
C      1  0.5328690000000  0.4417930000000  0.5447230000000 1.0
C      1  0.4448990000000  0.4458190000000  0.5080460000000 1.0
C      1  0.5231430000000  0.4420060000000  0.4350630000000 1.0
C      1  0.4767720000000  0.4705990000000  0.4410340000000 1.0
C      1  0.4608450000000  0.4745490000000  0.5508490000000 1.0
C      1  0.5624230000000  0.4748780000000  0.5089590000000 1.0
C      1  0.4767460000000  0.5261270000000  0.5596780000000 1.0
C      1  0.4610580000000  0.5251410000000  0.4485380000000 1.0
C      1  0.5631580000000  0.5265230000000  0.4908450000000 1.0
C      1  0.5083870000000  0.4933820000000  0.4497140000000 1.0
C      1  0.4479970000000  0.4956730000000  0.5170990000000 1.0
C      1  0.5409250000000  0.4951970000000  0.5358700000000 1.0
C      1  0.5126290000000  0.5013680000000  0.5537170000000 1.0
C      1  0.4483040000000  0.5000960000000  0.4833180000000 1.0
C      1  0.5375330000000  0.4986090000000  0.4651810000000 1.0
C      1  0.5835110000000  0.4431700000000  0.4967580000000 1.0
C      1  0.4511770000000  0.4441900000000  0.4199930000000 1.0
C      1  0.4595850000000  0.4432020000000  0.5800220000000 1.0
C      1  0.5889380000000  0.5579210000000  0.5036030000000 1.0
C      1  0.4526950000000  0.5585160000000  0.5745830000000 1.0
C      1  0.4597360000000  0.5560520000000  0.4232030000000 1.0
C      1  0.6051370000000  0.5376770000000  0.5335320000000 1.0
C      1  0.4760230000000  0.5386410000000  0.3919910000000 1.0
C      1  0.4186920000000  0.5382160000000  0.5743900000000 1.0
C      1  0.6038430000000  0.4606780000000  0.4675300000000 1.0
C      1  0.4778930000000  0.4644230000000  0.6079780000000 1.0
C      1  0.4168120000000  0.4614160000000  0.4306700000000 1.0
C      1  0.4823120000000  0.4532980000000  0.5194510000000 1.0
C      1  0.5229630000000  0.4507610000000  0.5072450000000 1.0
C      1  0.4907640000000  0.4480600000000  0.4770580000000 1.0
C      1  0.4843060000000  0.5425250000000  0.4839390000000 1.0
C      1  0.5227400000000  0.5428890000000  0.4946620000000 1.0
C      1  0.4938710000000  0.5428680000000  0.5227300000000 1.0
C      1  0.4466780000000  0.4471670000000  0.4530720000000 1.0
C      1  0.4874860000000  0.4494060000000  0.5684360000000 1.0
C      1  0.5631390000000  0.4495240000000  0.4721280000000 1.0
C      1  0.4498980000000  0.5517840000000  0.5448470000000 1.0
C      1  0.4882170000000  0.5506850000000  0.4342520000000 1.0
C      1  0.5643500000000  0.5521030000000  0.5214950000000 1.0
C      1  0.4865870000000  0.5636550000000  0.4605410000000 1.0
C      1  0.4727820000000  0.5645070000000  0.5320740000000 1.0
C      1  0.5416060000000  0.5647080000000  0.5080800000000 1.0
C      1  0.4863060000000  0.4334930000000  0.5437360000000 1.0
C      1  0.4624930000000  0.4323810000000  0.4749940000000 1.0
C      1  0.5393710000000  0.4350010000000  0.4842640000000 1.0
C      1  0.5547210000000  0.4163870000000  0.5476210000000 1.0
C      1  0.5025100000000  0.4161520000000  0.4125970000000 1.0
C      1  0.4315490000000  0.4180200000000  0.5222160000000 1.0
C      1  0.5546130000000  0.5818840000000  0.4491560000000 1.0
C      1  0.5172170000000  0.5815410000000  0.5725550000000 1.0
C      1  0.4290480000000  0.5803960000000  0.4786720000000 1.0
C      1  0.4879700000000  0.4130940000000  0.4391620000000 1.0
C      1  0.4582110000000  0.4150990000000  0.5420380000000 1.0
C      1  0.5497810000000  0.4220300000000  0.5143890000000 1.0
C      1  0.4907300000000  0.5838050000000  0.5527970000000 1.0
C      1  0.4592220000000  0.5821990000000  0.4652560000000 1.0
C      1  0.5506910000000  0.5841050000000  0.4820800000000 1.0
C      1  0.5423740000000  0.5902310000000  0.5511200000000 1.0
C      1  0.5234070000000  0.5910370000000  0.4384340000000 1.0
C      1  0.4351780000000  0.5901440000000  0.5108690000000 1.0
C      1  0.5541050000000  0.4024060000000  0.4590260000000 1.0
C      1  0.5253080000000  0.4065110000000  0.5618990000000 1.0
C      1  0.4397610000000  0.4109020000000  0.4897640000000 1.0
C      1  0.6123720000000  0.5066210000000  0.5326700000000 1.0
C      1  0.4703450000000  0.5088730000000  0.3850130000000 1.0
C      1  0.4164260000000  0.5076240000000  0.5823430000000 1.0
C      1  0.6127980000000  0.4910380000000  0.4703770000000 1.0
C      1  0.4699510000000  0.4939210000000  0.6141680000000 1.0
C      1  0.4161680000000  0.4906460000000  0.4178600000000 1.0
C      1  0.6052360000000  0.4664710000000  0.5035590000000 1.0
C      1  0.4603200000000  0.4658590000000  0.4049050000000 1.0
C      1  0.4438280000000  0.4674680000000  0.5921310000000 1.0
C      1  0.6083860000000  0.5330810000000  0.4969900000000 1.0
C      1  0.4487010000000  0.5343170000000  0.5954510000000 1.0
C      1  0.4444050000000  0.5303740000000  0.4097750000000 1.0
C      1  0.4425990000000  0.5008380000000  0.5993970000000 1.0
C      1  0.4451710000000  0.4966160000000  0.4032370000000 1.0
C      1  0.6136820000000  0.4995310000000  0.5013760000000 1.0
C      1  0.4998040000000  0.4960110000000  0.5017130000000 1.0
END
