TITL C-2782225-7408-203 -0.00140370100019536 125000 -1089.26754336702 0 0 185 (C1) n - 1
REM
REM in /home/nfs/bkarasulu/CARBON/AIRSS/Generating-Clusters/REBO/Higher-Symm/SD-CG/HFTN-CG
REM
REM
REM
REM
REM
REM ./C.cell (12c818d87b63d06a65506943cc24bca4)
REM
REM compiler GCC version 9.2.1 20190827 (Red Hat 9.2.1-1)
REM options -cpp -mtune=generic -march=x86-64 -g -O0 -fpre-include=/usr/include/finclude/math-vector-fortran.h
REM seed 1959504069 -1027037926 -1656986766 -124715271 -1088366867 -183087824 775714488 1615320626 -1814660020 -498438912 -394582778 827949152 1335077346 1969247263 -741906495 1092499281 -1529975734 -554838003 841655929 979971676 866115051 1104429598 1365597073 -484731151 -1374553348 584453287 -2113937882 -139345809 -490206744 331041186 -1225070626 -923033511 1483144811
REM
CELL 1.54180   50.00000   50.00000   50.00000   90.00000   90.00000   90.00000
LATT -1
SFAC C  
C      1  0.4614640000000  0.4586880000000  0.4139950000000 1.0
C      1  0.5102760000000  0.3950130000000  0.5007900000000 1.0
C      1  0.4602370000000  0.5675890000000  0.4414860000000 1.0
C      1  0.4649360000000  0.4241660000000  0.5133310000000 1.0
C      1  0.4003470000000  0.4485920000000  0.4710530000000 1.0
C      1  0.5589950000000  0.5472790000000  0.4248260000000 1.0
C      1  0.4693690000000  0.5475010000000  0.6251580000000 1.0
C      1  0.4455400000000  0.4890090000000  0.6019400000000 1.0
C      1  0.4375930000000  0.3827860000000  0.4950450000000 1.0
C      1  0.5824890000000  0.4786460000000  0.5628440000000 1.0
C      1  0.4555880000000  0.5945630000000  0.5008840000000 1.0
C      1  0.4657980000000  0.3763310000000  0.4783550000000 1.0
C      1  0.5286780000000  0.5245890000000  0.5741410000000 1.0
C      1  0.4178330000000  0.5390410000000  0.4451680000000 1.0
C      1  0.4778920000000  0.4952010000000  0.5254010000000 1.0
C      1  0.4383610000000  0.4143140000000  0.5035950000000 1.0
C      1  0.4596030000000  0.5437100000000  0.4813970000000 1.0
C      1  0.5995380000000  0.4276840000000  0.4566050000000 1.0
C      1  0.4464150000000  0.5105720000000  0.3965260000000 1.0
C      1  0.4702400000000  0.4132850000000  0.5437050000000 1.0
C      1  0.5845430000000  0.5254820000000  0.5018910000000 1.0
C      1  0.5639750000000  0.4835490000000  0.5272340000000 1.0
C      1  0.4946630000000  0.4982210000000  0.4860850000000 1.0
C      1  0.5273780000000  0.4011210000000  0.5517770000000 1.0
C      1  0.4648880000000  0.3704210000000  0.5098050000000 1.0
C      1  0.3963860000000  0.4385910000000  0.4964330000000 1.0
C      1  0.5262910000000  0.5506730000000  0.5352770000000 1.0
C      1  0.4276520000000  0.5044520000000  0.5860190000000 1.0
C      1  0.5650630000000  0.4352300000000  0.4899670000000 1.0
C      1  0.4404180000000  0.4231340000000  0.5447850000000 1.0
C      1  0.5440950000000  0.5325770000000  0.4515590000000 1.0
C      1  0.5179770000000  0.5574650000000  0.4340970000000 1.0
C      1  0.4682720000000  0.5048690000000  0.4437510000000 1.0
C      1  0.5301900000000  0.6004760000000  0.4774030000000 1.0
C      1  0.5380320000000  0.4789680000000  0.5367150000000 1.0
C      1  0.4219110000000  0.5062190000000  0.4474100000000 1.0
C      1  0.5062070000000  0.5123240000000  0.4019200000000 1.0
C      1  0.5063270000000  0.4403640000000  0.4086390000000 1.0
C      1  0.4071260000000  0.5362680000000  0.5003660000000 1.0
C      1  0.5822340000000  0.4593320000000  0.5384390000000 1.0
C      1  0.4131740000000  0.4849120000000  0.5108840000000 1.0
C      1  0.4144130000000  0.4766440000000  0.4628580000000 1.0
C      1  0.5057120000000  0.6111840000000  0.4633790000000 1.0
C      1  0.4726800000000  0.4731680000000  0.4364610000000 1.0
C      1  0.4528790000000  0.4959130000000  0.5014490000000 1.0
C      1  0.5119310000000  0.5834680000000  0.4979850000000 1.0
C      1  0.5137420000000  0.5393030000000  0.5093430000000 1.0
C      1  0.6260690000000  0.5185640000000  0.4799560000000 1.0
C      1  0.4530230000000  0.5250710000000  0.5161570000000 1.0
C      1  0.6080800000000  0.4934910000000  0.4225260000000 1.0
C      1  0.5871240000000  0.5075210000000  0.5549720000000 1.0
C      1  0.5667950000000  0.5519100000000  0.5593850000000 1.0
C      1  0.5681360000000  0.5957480000000  0.5351140000000 1.0
C      1  0.4685160000000  0.5305120000000  0.5738460000000 1.0
C      1  0.4771360000000  0.4522510000000  0.4775470000000 1.0
C      1  0.5409410000000  0.5936950000000  0.5434600000000 1.0
C      1  0.4324550000000  0.4996880000000  0.4794020000000 1.0
C      1  0.3990370000000  0.4566010000000  0.5236690000000 1.0
C      1  0.4842750000000  0.4556200000000  0.3968390000000 1.0
C      1  0.4432830000000  0.5595060000000  0.5842430000000 1.0
C      1  0.5540490000000  0.4237500000000  0.4464400000000 1.0
C      1  0.4650380000000  0.4473790000000  0.5802440000000 1.0
C      1  0.4831870000000  0.5012280000000  0.5756720000000 1.0
C      1  0.4401570000000  0.5845400000000  0.4523990000000 1.0
C      1  0.4885860000000  0.5581690000000  0.5749870000000 1.0
C      1  0.5319700000000  0.4900360000000  0.4280750000000 1.0
C      1  0.5765230000000  0.5260830000000  0.4432390000000 1.0
C      1  0.4460960000000  0.5734410000000  0.5597260000000 1.0
C      1  0.5047220000000  0.5100160000000  0.5129250000000 1.0
C      1  0.5387450000000  0.5151240000000  0.3976860000000 1.0
C      1  0.5368560000000  0.5775200000000  0.5662290000000 1.0
C      1  0.4675700000000  0.4797480000000  0.5855580000000 1.0
C      1  0.5608940000000  0.4761160000000  0.5798760000000 1.0
C      1  0.4871960000000  0.6025570000000  0.5094510000000 1.0
C      1  0.4526990000000  0.6044550000000  0.4701970000000 1.0
C      1  0.4898290000000  0.4207440000000  0.4949550000000 1.0
C      1  0.4818630000000  0.6151390000000  0.4794330000000 1.0
C      1  0.5132380000000  0.4456630000000  0.4931630000000 1.0
C      1  0.4097790000000  0.4427980000000  0.4426450000000 1.0
C      1  0.4889820000000  0.5609960000000  0.4866490000000 1.0
C      1  0.5490080000000  0.5405970000000  0.4004200000000 1.0
C      1  0.5595460000000  0.4349890000000  0.5443780000000 1.0
C      1  0.4998790000000  0.5917780000000  0.4434930000000 1.0
C      1  0.5356740000000  0.4730540000000  0.5981890000000 1.0
C      1  0.3797750000000  0.5047270000000  0.5324520000000 1.0
C      1  0.4296970000000  0.5320950000000  0.4764110000000 1.0
C      1  0.4948380000000  0.4834580000000  0.3876560000000 1.0
C      1  0.4832030000000  0.3970360000000  0.4714250000000 1.0
C      1  0.5382130000000  0.4743330000000  0.4536150000000 1.0
C      1  0.4681280000000  0.5610290000000  0.6007880000000 1.0
C      1  0.4420220000000  0.4955270000000  0.4241220000000 1.0
C      1  0.5052630000000  0.5356970000000  0.4569930000000 1.0
C      1  0.3978910000000  0.5097850000000  0.5114500000000 1.0
C      1  0.4368800000000  0.5033260000000  0.5371820000000 1.0
C      1  0.4740120000000  0.4747100000000  0.4914980000000 1.0
C      1  0.5555960000000  0.5479980000000  0.4864640000000 1.0
C      1  0.4354780000000  0.4702820000000  0.5319260000000 1.0
C      1  0.4165340000000  0.4274280000000  0.5214780000000 1.0
C      1  0.5051810000000  0.4364730000000  0.4373390000000 1.0
C      1  0.5826980000000  0.5391870000000  0.4709210000000 1.0
C      1  0.5785110000000  0.5923330000000  0.5036990000000 1.0
C      1  0.4275080000000  0.4698820000000  0.4321240000000 1.0
C      1  0.5368330000000  0.5777660000000  0.4375090000000 1.0
C      1  0.5130010000000  0.4734700000000  0.4750660000000 1.0
C      1  0.4732820000000  0.5834680000000  0.5616730000000 1.0
C      1  0.5499580000000  0.5885760000000  0.4600950000000 1.0
C      1  0.5075690000000  0.4428010000000  0.5248290000000 1.0
C      1  0.4850990000000  0.3871360000000  0.5225850000000 1.0
C      1  0.5159140000000  0.4953350000000  0.5378130000000 1.0
C      1  0.6053430000000  0.4754590000000  0.4637940000000 1.0
C      1  0.5978780000000  0.5043910000000  0.5238460000000 1.0
C      1  0.5163470000000  0.5528020000000  0.5662220000000 1.0
C      1  0.4418470000000  0.5655740000000  0.5008030000000 1.0
C      1  0.4888270000000  0.4519300000000  0.6041590000000 1.0
C      1  0.5537220000000  0.5569840000000  0.5342070000000 1.0
C      1  0.6183380000000  0.4912490000000  0.4831150000000 1.0
C      1  0.5599800000000  0.4536120000000  0.4423540000000 1.0
C      1  0.4623580000000  0.5234490000000  0.6356640000000 1.0
C      1  0.4593840000000  0.4525760000000  0.5254720000000 1.0
C      1  0.5445630000000  0.4531510000000  0.4869110000000 1.0
C      1  0.3906100000000  0.4790400000000  0.5477490000000 1.0
C      1  0.4744880000000  0.5093970000000  0.3893070000000 1.0
C      1  0.5325910000000  0.4503480000000  0.5433250000000 1.0
C      1  0.4361420000000  0.4068340000000  0.4709360000000 1.0
C      1  0.5147560000000  0.4557370000000  0.5921200000000 1.0
C      1  0.5706240000000  0.5712750000000  0.4696750000000 1.0
C      1  0.5055930000000  0.5552920000000  0.4091240000000 1.0
C      1  0.5475040000000  0.5042850000000  0.5919370000000 1.0
C      1  0.4392110000000  0.4162410000000  0.4462750000000 1.0
C      1  0.6246070000000  0.4204050000000  0.4636360000000 1.0
C      1  0.4273270000000  0.5335340000000  0.5347280000000 1.0
C      1  0.4799280000000  0.5240770000000  0.5432650000000 1.0
C      1  0.4840360000000  0.4648220000000  0.5288980000000 1.0
C      1  0.4812350000000  0.5422640000000  0.5143930000000 1.0
C      1  0.5261770000000  0.4159220000000  0.4494520000000 1.0
C      1  0.4017810000000  0.5443780000000  0.5521530000000 1.0
C      1  0.5233130000000  0.3927360000000  0.4742870000000 1.0
C      1  0.5576880000000  0.4607360000000  0.4124120000000 1.0
C      1  0.6128810000000  0.4855880000000  0.5107560000000 1.0
C      1  0.4520810000000  0.4995750000000  0.6275070000000 1.0
C      1  0.4103140000000  0.5598010000000  0.5247200000000 1.0
C      1  0.5169630000000  0.6007200000000  0.5268600000000 1.0
C      1  0.4168930000000  0.5684730000000  0.4583170000000 1.0
C      1  0.5273120000000  0.5398440000000  0.4808300000000 1.0
C      1  0.5613130000000  0.5662710000000  0.5091400000000 1.0
C      1  0.4912960000000  0.4029420000000  0.5863050000000 1.0
C      1  0.5837360000000  0.5032570000000  0.4250420000000 1.0
C      1  0.4380270000000  0.4391900000000  0.4236540000000 1.0
C      1  0.5024640000000  0.3928850000000  0.4495050000000 1.0
C      1  0.5652980000000  0.4973290000000  0.5021200000000 1.0
C      1  0.5626060000000  0.5229540000000  0.5681050000000 1.0
C      1  0.4873120000000  0.4535470000000  0.4515630000000 1.0
C      1  0.6215060000000  0.5396280000000  0.4966760000000 1.0
C      1  0.5887220000000  0.4142930000000  0.4927090000000 1.0
C      1  0.4344580000000  0.5796050000000  0.5311470000000 1.0
C      1  0.5197840000000  0.5177370000000  0.4327300000000 1.0
C      1  0.6020420000000  0.5470130000000  0.5221770000000 1.0
C      1  0.4813450000000  0.5437590000000  0.4083650000000 1.0
C      1  0.4190010000000  0.4927010000000  0.5606360000000 1.0
C      1  0.5226820000000  0.4760950000000  0.4013140000000 1.0
C      1  0.4345240000000  0.5340890000000  0.4182730000000 1.0
C      1  0.5514040000000  0.4834070000000  0.4826850000000 1.0
C      1  0.5126980000000  0.4425850000000  0.5665370000000 1.0
C      1  0.4637880000000  0.5311390000000  0.4256310000000 1.0
C      1  0.5595670000000  0.4923120000000  0.4094680000000 1.0
C      1  0.5085580000000  0.5037470000000  0.5634080000000 1.0
C      1  0.4356800000000  0.5309610000000  0.5846650000000 1.0
C      1  0.4127520000000  0.5666570000000  0.4865010000000 1.0
C      1  0.5508980000000  0.4084930000000  0.5564010000000 1.0
C      1  0.4731990000000  0.6086410000000  0.5487370000000 1.0
C      1  0.4865830000000  0.4242170000000  0.5677480000000 1.0
C      1  0.5950740000000  0.5762920000000  0.5275520000000 1.0
C      1  0.4810010000000  0.5206900000000  0.4679880000000 1.0
C      1  0.5077220000000  0.4112020000000  0.5302020000000 1.0
C      1  0.5623310000000  0.5720110000000  0.5813220000000 1.0
C      1  0.4388100000000  0.4415410000000  0.5652860000000 1.0
C      1  0.4980650000000  0.6204420000000  0.5433180000000 1.0
C      1  0.4853160000000  0.5695280000000  0.4537760000000 1.0
C      1  0.5773150000000  0.4101520000000  0.4519360000000 1.0
C      1  0.4168780000000  0.4605280000000  0.5591700000000 1.0
C      1  0.4512970000000  0.6086470000000  0.5302300000000 1.0
C      1  0.5807210000000  0.4331590000000  0.5193610000000 1.0
C      1  0.6079930000000  0.5325630000000  0.5494850000000 1.0
C      1  0.5343670000000  0.4477120000000  0.3978750000000 1.0
C      1  0.5898400000000  0.4547350000000  0.4536140000000 1.0
END
