TITL C-2782239-8622-1258 -0.00498087335865861 125000 -1080.83955399613 0 0 187 (T23) n - 1
REM
REM in /home/nfs/bkarasulu/CARBON/AIRSS/Generating-Clusters/REBO/Higher-Symm/SD-CG/HFTN-CG
REM
REM
REM
REM
REM
REM ./C.cell (12c818d87b63d06a65506943cc24bca4)
REM
REM compiler GCC version 9.2.1 20190827 (Red Hat 9.2.1-1)
REM options -cpp -mtune=generic -march=x86-64 -g -O0 -fpre-include=/usr/include/finclude/math-vector-fortran.h
REM seed 1589159733 508997929 -1100528855 -946278246 1983147343 1307574655 -943584738 -810931372 2019220380 1733259533 -1810012419 114585532 1764884905 -1723648140 -2063658144 -871552478 -1462725523 380753280 95955287 -1486762337 1462034906 951285579 -1408854379 -2057923051 1481353854 -1207857729 258980014 -911197369 1291061420 -1655777142 -1337679991 1276721159 346457765
REM
CELL 1.54180   50.00000   50.00000   50.00000   90.00000   90.00000   90.00000
LATT -1
SFAC C  
C      1  0.5228190000000  0.5550240000000  0.4426150000000 1.0
C      1  0.4425680000000  0.5225960000000  0.5552890000000 1.0
C      1  0.5552460000000  0.4423480000000  0.5228650000000 1.0
C      1  0.5228170000000  0.4448440000000  0.5577870000000 1.0
C      1  0.4774950000000  0.4448430000000  0.4426140000000 1.0
C      1  0.4774910000000  0.5550240000000  0.5577860000000 1.0
C      1  0.4425710000000  0.4772700000000  0.4451090000000 1.0
C      1  0.5577400000000  0.4772720000000  0.5552920000000 1.0
C      1  0.5577430000000  0.5225970000000  0.4451120000000 1.0
C      1  0.5552460000000  0.5575200000000  0.4775390000000 1.0
C      1  0.4450640000000  0.5575190000000  0.5228620000000 1.0
C      1  0.4450670000000  0.4423470000000  0.4775370000000 1.0
C      1  0.4777660000000  0.5540490000000  0.4439150000000 1.0
C      1  0.5564390000000  0.5223250000000  0.5543180000000 1.0
C      1  0.4460400000000  0.4436480000000  0.5225900000000 1.0
C      1  0.4777640000000  0.4458180000000  0.5564860000000 1.0
C      1  0.5225480000000  0.4458180000000  0.4439160000000 1.0
C      1  0.5225450000000  0.5540500000000  0.5564870000000 1.0
C      1  0.5564430000000  0.4775430000000  0.4460860000000 1.0
C      1  0.4438690000000  0.4775420000000  0.5543150000000 1.0
C      1  0.4438710000000  0.5223240000000  0.4460830000000 1.0
C      1  0.4460400000000  0.5562190000000  0.4778080000000 1.0
C      1  0.5542700000000  0.5562200000000  0.5225930000000 1.0
C      1  0.5542730000000  0.4436490000000  0.4778110000000 1.0
C      1  0.6052110000000  0.5256670000000  0.4837960000000 1.0
C      1  0.4837470000000  0.6049890000000  0.5259320000000 1.0
C      1  0.5258850000000  0.4835270000000  0.6052570000000 1.0
C      1  0.6052110000000  0.4742030000000  0.5166110000000 1.0
C      1  0.3951010000000  0.4742010000000  0.4837910000000 1.0
C      1  0.3951000000000  0.5256650000000  0.5166050000000 1.0
C      1  0.4837500000000  0.3948780000000  0.4744690000000 1.0
C      1  0.5165630000000  0.3948790000000  0.5259330000000 1.0
C      1  0.5165620000000  0.6049890000000  0.4744690000000 1.0
C      1  0.5258900000000  0.5163410000000  0.3951460000000 1.0
C      1  0.4744210000000  0.5163410000000  0.6052550000000 1.0
C      1  0.4744260000000  0.4835260000000  0.3951450000000 1.0
C      1  0.3956180000000  0.5254460000000  0.4840870000000 1.0
C      1  0.5162650000000  0.6044710000000  0.5257140000000 1.0
C      1  0.4746400000000  0.4838230000000  0.6047380000000 1.0
C      1  0.3956180000000  0.4744200000000  0.5163090000000 1.0
C      1  0.6046940000000  0.4744220000000  0.4840930000000 1.0
C      1  0.6046920000000  0.5254480000000  0.5163140000000 1.0
C      1  0.5162680000000  0.3953970000000  0.4746890000000 1.0
C      1  0.4840450000000  0.3953960000000  0.5257130000000 1.0
C      1  0.4840440000000  0.6044710000000  0.4746870000000 1.0
C      1  0.4746450000000  0.5160440000000  0.3956630000000 1.0
C      1  0.5256660000000  0.5160450000000  0.6047390000000 1.0
C      1  0.5256710000000  0.4838230000000  0.3956640000000 1.0
C      1  0.5176270000000  0.4162640000000  0.5743610000000 1.0
C      1  0.5743170000000  0.5174070000000  0.4165330000000 1.0
C      1  0.4164850000000  0.5740920000000  0.5176710000000 1.0
C      1  0.5176290000000  0.5836040000000  0.4260420000000 1.0
C      1  0.4826810000000  0.5836040000000  0.5743600000000 1.0
C      1  0.4826860000000  0.4162640000000  0.4260410000000 1.0
C      1  0.5743130000000  0.4824630000000  0.5838720000000 1.0
C      1  0.4259980000000  0.4824610000000  0.4165290000000 1.0
C      1  0.4259940000000  0.5174050000000  0.5838690000000 1.0
C      1  0.4164870000000  0.4257730000000  0.4827270000000 1.0
C      1  0.5838260000000  0.4257750000000  0.5176750000000 1.0
C      1  0.5838250000000  0.5740940000000  0.4827310000000 1.0
C      1  0.4835860000000  0.4172880000000  0.5735980000000 1.0
C      1  0.4267600000000  0.5165020000000  0.4175530000000 1.0
C      1  0.5828000000000  0.5733320000000  0.5167720000000 1.0
C      1  0.4835880000000  0.5825790000000  0.4268030000000 1.0
C      1  0.5167220000000  0.5825800000000  0.5735990000000 1.0
C      1  0.5167270000000  0.4172880000000  0.4268040000000 1.0
C      1  0.4267560000000  0.4833640000000  0.5828450000000 1.0
C      1  0.5735550000000  0.4833650000000  0.4175570000000 1.0
C      1  0.5735510000000  0.5165040000000  0.5828480000000 1.0
C      1  0.5828020000000  0.4265370000000  0.4836340000000 1.0
C      1  0.4175100000000  0.4265350000000  0.5167680000000 1.0
C      1  0.4175090000000  0.5733310000000  0.4836300000000 1.0
C      1  0.4507180000000  0.4656490000000  0.5975160000000 1.0
C      1  0.5974730000000  0.4504990000000  0.4659190000000 1.0
C      1  0.4658710000000  0.5972500000000  0.4507640000000 1.0
C      1  0.4507220000000  0.5342180000000  0.4028830000000 1.0
C      1  0.5495880000000  0.5342190000000  0.5975180000000 1.0
C      1  0.5495940000000  0.4656490000000  0.4028860000000 1.0
C      1  0.5974700000000  0.5493700000000  0.5344880000000 1.0
C      1  0.4028400000000  0.5493680000000  0.4659140000000 1.0
C      1  0.4028390000000  0.4504980000000  0.5344830000000 1.0
C      1  0.4658710000000  0.4026170000000  0.5496360000000 1.0
C      1  0.5344420000000  0.4026180000000  0.4507670000000 1.0
C      1  0.5344380000000  0.5972510000000  0.5496370000000 1.0
C      1  0.5499280000000  0.4651420000000  0.5985330000000 1.0
C      1  0.4018260000000  0.4501580000000  0.4654060000000 1.0
C      1  0.5349480000000  0.5982650000000  0.4504270000000 1.0
C      1  0.5499320000000  0.5347270000000  0.4018710000000 1.0
C      1  0.4503780000000  0.5347260000000  0.5985300000000 1.0
C      1  0.4503840000000  0.4651400000000  0.4018690000000 1.0
C      1  0.4018230000000  0.5497080000000  0.5349910000000 1.0
C      1  0.5984870000000  0.5497090000000  0.4654110000000 1.0
C      1  0.5984860000000  0.4501600000000  0.5349960000000 1.0
C      1  0.5349480000000  0.4016030000000  0.5499770000000 1.0
C      1  0.4653650000000  0.4016020000000  0.4504250000000 1.0
C      1  0.4653610000000  0.5982650000000  0.5499740000000 1.0
C      1  0.5294970000000  0.5781230000000  0.4849060000000 1.0
C      1  0.4848580000000  0.5292750000000  0.5783890000000 1.0
C      1  0.5783440000000  0.4846390000000  0.5295440000000 1.0
C      1  0.5294980000000  0.4217450000000  0.5154970000000 1.0
C      1  0.4708150000000  0.4217440000000  0.4849050000000 1.0
C      1  0.4708130000000  0.5781230000000  0.5154950000000 1.0
C      1  0.4848630000000  0.4705920000000  0.4220120000000 1.0
C      1  0.5154490000000  0.4705920000000  0.5783900000000 1.0
C      1  0.5154520000000  0.5292750000000  0.4220120000000 1.0
C      1  0.5783450000000  0.5152300000000  0.4708610000000 1.0
C      1  0.4219660000000  0.5152280000000  0.5295400000000 1.0
C      1  0.4219670000000  0.4846380000000  0.4708570000000 1.0
C      1  0.4714160000000  0.5775780000000  0.4855290000000 1.0
C      1  0.5148250000000  0.5286730000000  0.5778450000000 1.0
C      1  0.4225110000000  0.4852620000000  0.5289380000000 1.0
C      1  0.4714170000000  0.4222890000000  0.5148710000000 1.0
C      1  0.5288960000000  0.4222900000000  0.4855300000000 1.0
C      1  0.5288930000000  0.5775780000000  0.5148730000000 1.0
C      1  0.5148290000000  0.4711950000000  0.4225570000000 1.0
C      1  0.4854830000000  0.4711950000000  0.5778450000000 1.0
C      1  0.4854860000000  0.5286720000000  0.4225560000000 1.0
C      1  0.4225120000000  0.5146040000000  0.4714600000000 1.0
C      1  0.5777990000000  0.5146060000000  0.5289420000000 1.0
C      1  0.5778010000000  0.4852630000000  0.4714640000000 1.0
C      1  0.4713070000000  0.5160730000000  0.5530280000000 1.0
C      1  0.5529830000000  0.4710870000000  0.5163420000000 1.0
C      1  0.5162950000000  0.5527620000000  0.4713540000000 1.0
C      1  0.4713100000000  0.4837940000000  0.4473720000000 1.0
C      1  0.5290020000000  0.4837940000000  0.5530290000000 1.0
C      1  0.5290040000000  0.5160740000000  0.4473740000000 1.0
C      1  0.5529830000000  0.5287820000000  0.4840620000000 1.0
C      1  0.4473270000000  0.5287810000000  0.5163390000000 1.0
C      1  0.4473280000000  0.4710860000000  0.4840600000000 1.0
C      1  0.5162950000000  0.4471060000000  0.5290490000000 1.0
C      1  0.4840170000000  0.4471060000000  0.4713530000000 1.0
C      1  0.4840150000000  0.5527610000000  0.5290480000000 1.0
C      1  0.5271030000000  0.5148430000000  0.5520750000000 1.0
C      1  0.4482820000000  0.4729840000000  0.5151080000000 1.0
C      1  0.4852470000000  0.5518070000000  0.4732510000000 1.0
C      1  0.5271060000000  0.4850250000000  0.4483280000000 1.0
C      1  0.4732050000000  0.4850250000000  0.5520730000000 1.0
C      1  0.4732070000000  0.5148420000000  0.4483270000000 1.0
C      1  0.4482820000000  0.5268830000000  0.4852910000000 1.0
C      1  0.5520280000000  0.5268840000000  0.5151110000000 1.0
C      1  0.5520290000000  0.4729850000000  0.4852940000000 1.0
C      1  0.4852470000000  0.4480600000000  0.5271500000000 1.0
C      1  0.5150650000000  0.4480610000000  0.4732520000000 1.0
C      1  0.5150630000000  0.5518070000000  0.5271500000000 1.0
C      1  0.4401250000000  0.4146630000000  0.4603110000000 1.0
C      1  0.4602700000000  0.4399000000000  0.4149300000000 1.0
C      1  0.4148880000000  0.4600440000000  0.4401660000000 1.0
C      1  0.4401210000000  0.5852030000000  0.5400880000000 1.0
C      1  0.5601880000000  0.5852040000000  0.4603130000000 1.0
C      1  0.5601880000000  0.4146650000000  0.5400910000000 1.0
C      1  0.4602640000000  0.5599660000000  0.5854690000000 1.0
C      1  0.5400460000000  0.5599670000000  0.4149320000000 1.0
C      1  0.5400430000000  0.4399020000000  0.5854720000000 1.0
C      1  0.4148840000000  0.5398220000000  0.5602310000000 1.0
C      1  0.5854260000000  0.5398230000000  0.4401700000000 1.0
C      1  0.5854240000000  0.4600460000000  0.5602360000000 1.0
C      1  0.5595130000000  0.4158080000000  0.4607080000000 1.0
C      1  0.5396520000000  0.4405780000000  0.4160750000000 1.0
C      1  0.5842840000000  0.4604400000000  0.4408470000000 1.0
C      1  0.5595090000000  0.5840610000000  0.5396960000000 1.0
C      1  0.4408000000000  0.5840600000000  0.4607050000000 1.0
C      1  0.4408000000000  0.4158070000000  0.5396940000000 1.0
C      1  0.5396470000000  0.5592900000000  0.5843280000000 1.0
C      1  0.4606630000000  0.5592890000000  0.4160730000000 1.0
C      1  0.4606600000000  0.4405780000000  0.5843270000000 1.0
C      1  0.5842800000000  0.5394290000000  0.5595590000000 1.0
C      1  0.4160300000000  0.5394270000000  0.4408430000000 1.0
C      1  0.4160280000000  0.4604390000000  0.5595550000000 1.0
C      1  0.4840300000000  0.5327440000000  0.5014090000000 1.0
C      1  0.5013630000000  0.4838080000000  0.5330120000000 1.0
C      1  0.5162810000000  0.4671230000000  0.5014100000000 1.0
C      1  0.5013650000000  0.5160590000000  0.4673900000000 1.0
C      1  0.5329670000000  0.5011420000000  0.4840760000000 1.0
C      1  0.4840300000000  0.4671230000000  0.4989920000000 1.0
C      1  0.5162810000000  0.5327450000000  0.4989930000000 1.0
C      1  0.4989460000000  0.5160590000000  0.5330110000000 1.0
C      1  0.5329660000000  0.4987260000000  0.5163270000000 1.0
C      1  0.4673450000000  0.4987250000000  0.4840750000000 1.0
C      1  0.4989480000000  0.4838080000000  0.4673900000000 1.0
C      1  0.4673440000000  0.5011420000000  0.5163250000000 1.0
C      1  0.5001540000000  0.6188700000000  0.5002010000000 1.0
C      1  0.6190920000000  0.4999350000000  0.5002040000000 1.0
C      1  0.5001570000000  0.3809970000000  0.5002010000000 1.0
C      1  0.3812190000000  0.4999330000000  0.5001980000000 1.0
C      1  0.5001530000000  0.4999340000000  0.6191370000000 1.0
C      1  0.5001590000000  0.4999340000000  0.3812640000000 1.0
C      1  0.5001560000000  0.4999340000000  0.5002010000000 1.0
END
