TITL C-2782228-2999-862 -0.000302818721021335 125000 -369.842689045746 0 0 65 (C1) n - 1
REM
REM in /home/nfs/bkarasulu/CARBON/AIRSS/Generating-Clusters/REBO/Higher-Symm/SD-CG/HFTN-CG
REM
REM
REM
REM
REM
REM ./C.cell (12c818d87b63d06a65506943cc24bca4)
REM
REM compiler GCC version 9.2.1 20190827 (Red Hat 9.2.1-1)
REM options -cpp -mtune=generic -march=x86-64 -g -O0 -fpre-include=/usr/include/finclude/math-vector-fortran.h
REM seed 83533531 -1821235675 -134910489 902380075 1681733178 1584278670 1506874554 1227142634 -1707257803 1446741164 17632998 915266064 -742785831 301653724 1377010764 -633399023 -1498263170 1586010547 -375004935 378224386 1917835221 129194105 629203369 990461517 1660201641 -1947542463 -16785610 -938618851 -231263217 878989345 -1955356580 -956882785 -2022847240
REM
CELL 1.54180   50.00000   50.00000   50.00000   90.00000   90.00000   90.00000
LATT -1
SFAC C  
C      1  0.5463980000000  0.4667670000000  0.4342720000000 1.0
C      1  0.5474330000000  0.4656190000000  0.5602170000000 1.0
C      1  0.5509860000000  0.5674080000000  0.5019050000000 1.0
C      1  0.4839580000000  0.5104590000000  0.4309570000000 1.0
C      1  0.4811740000000  0.4392810000000  0.5271780000000 1.0
C      1  0.4864660000000  0.5451960000000  0.5367690000000 1.0
C      1  0.5115500000000  0.4972290000000  0.4298220000000 1.0
C      1  0.5122960000000  0.4459270000000  0.5305770000000 1.0
C      1  0.5138410000000  0.5575570000000  0.5338250000000 1.0
C      1  0.4530610000000  0.4818540000000  0.4907160000000 1.0
C      1  0.4547020000000  0.5020270000000  0.5153010000000 1.0
C      1  0.4512240000000  0.5142420000000  0.4857870000000 1.0
C      1  0.4329370000000  0.4541700000000  0.5292760000000 1.0
C      1  0.4401610000000  0.5404510000000  0.5179290000000 1.0
C      1  0.4409360000000  0.4930600000000  0.4523560000000 1.0
C      1  0.4493950000000  0.4292400000000  0.5257700000000 1.0
C      1  0.4551280000000  0.5535740000000  0.5397410000000 1.0
C      1  0.4517420000000  0.5038230000000  0.4249470000000 1.0
C      1  0.5369800000000  0.4562650000000  0.4892110000000 1.0
C      1  0.5396360000000  0.5090670000000  0.5545350000000 1.0
C      1  0.5387030000000  0.5396800000000  0.4617090000000 1.0
C      1  0.4720470000000  0.5416420000000  0.5058330000000 1.0
C      1  0.4717020000000  0.4944350000000  0.4577760000000 1.0
C      1  0.4620640000000  0.4625510000000  0.5430900000000 1.0
C      1  0.4896760000000  0.5159820000000  0.5484750000000 1.0
C      1  0.4887650000000  0.5341050000000  0.4515930000000 1.0
C      1  0.4886910000000  0.4478790000000  0.4983440000000 1.0
C      1  0.5138590000000  0.5052510000000  0.5667890000000 1.0
C      1  0.5138930000000  0.5542940000000  0.4575970000000 1.0
C      1  0.5130280000000  0.4501830000000  0.4764470000000 1.0
C      1  0.4764410000000  0.5706950000000  0.4788900000000 1.0
C      1  0.4729180000000  0.4548120000000  0.4527240000000 1.0
C      1  0.4725460000000  0.4779900000000  0.5699560000000 1.0
C      1  0.4182500000000  0.4734890000000  0.5157070000000 1.0
C      1  0.4206670000000  0.5223330000000  0.5102630000000 1.0
C      1  0.4202850000000  0.4934380000000  0.4710530000000 1.0
C      1  0.5017370000000  0.4539690000000  0.4500220000000 1.0
C      1  0.5003830000000  0.4792050000000  0.5760480000000 1.0
C      1  0.5041750000000  0.5718200000000  0.4777200000000 1.0
C      1  0.5554130000000  0.4893160000000  0.4538590000000 1.0
C      1  0.5629480000000  0.4610340000000  0.5325730000000 1.0
C      1  0.5635040000000  0.5412460000000  0.5170400000000 1.0
C      1  0.5175040000000  0.4683770000000  0.5522040000000 1.0
C      1  0.5198710000000  0.5666230000000  0.5036400000000 1.0
C      1  0.5176120000000  0.4687400000000  0.4307090000000 1.0
C      1  0.5796290000000  0.4688070000000  0.5057570000000 1.0
C      1  0.5834370000000  0.5163700000000  0.5254570000000 1.0
C      1  0.5766370000000  0.5105280000000  0.4665220000000 1.0
C      1  0.5598430000000  0.5328170000000  0.4842930000000 1.0
C      1  0.5581390000000  0.4786780000000  0.4828250000000 1.0
C      1  0.5602750000000  0.4940910000000  0.5353490000000 1.0
C      1  0.5140470000000  0.5185880000000  0.5255460000000 1.0
C      1  0.5077080000000  0.5191670000000  0.4755570000000 1.0
C      1  0.4977440000000  0.4781690000000  0.5005590000000 1.0
C      1  0.5110780000000  0.4867330000000  0.5242470000000 1.0
C      1  0.5048170000000  0.5358330000000  0.5016140000000 1.0
C      1  0.4903790000000  0.4940580000000  0.4790330000000 1.0
C      1  0.5307110000000  0.5100310000000  0.4517270000000 1.0
C      1  0.5380020000000  0.4481410000000  0.5161530000000 1.0
C      1  0.5396570000000  0.5365600000000  0.5372380000000 1.0
C      1  0.4646910000000  0.4588800000000  0.4802130000000 1.0
C      1  0.4665460000000  0.4960390000000  0.5417860000000 1.0
C      1  0.4644440000000  0.5399690000000  0.4728410000000 1.0
C      1  0.4162040000000  0.4964860000000  0.4990960000000 1.0
C      1  0.5611600000000  0.5040550000000  0.5026720000000 1.0
END
