TITL C-2782225-7408-370 -0.00342309969261595 125000 -672.314438488659 0 0 114 (C1) n - 1
REM
REM in /home/nfs/bkarasulu/CARBON/AIRSS/Generating-Clusters/REBO/Higher-Symm/SD-CG/HFTN-CG
REM
REM
REM
REM
REM
REM ./C.cell (12c818d87b63d06a65506943cc24bca4)
REM
REM compiler GCC version 9.2.1 20190827 (Red Hat 9.2.1-1)
REM options -cpp -mtune=generic -march=x86-64 -g -O0 -fpre-include=/usr/include/finclude/math-vector-fortran.h
REM seed 1981430149 295755592 667874885 -2145354225 1182511790 2111597186 662353352 -1603427951 -1090469367 1889687800 -1302065564 2089952564 -85301804 -548361777 1639456747 1546901959 47503643 267501107 2080740453 812084861 904628185 -771353925 -1314340769 -1362314776 -1200604552 -414794462 1289448739 -244606965 1459002625 1837317823 962655527 1950869449 379994218
REM
CELL 1.54180   50.00000   50.00000   50.00000   90.00000   90.00000   90.00000
LATT -1
SFAC C  
C      1  0.5198050000000  0.5146820000000  0.5310960000000 1.0
C      1  0.5201600000000  0.4836440000000  0.4693000000000 1.0
C      1  0.5208920000000  0.5172210000000  0.4700190000000 1.0
C      1  0.5215690000000  0.4816900000000  0.5315050000000 1.0
C      1  0.4638520000000  0.4714730000000  0.4235000000000 1.0
C      1  0.4649240000000  0.5273900000000  0.5772830000000 1.0
C      1  0.4635930000000  0.4742030000000  0.5743790000000 1.0
C      1  0.4621100000000  0.5238170000000  0.4279180000000 1.0
C      1  0.5939000000000  0.5444000000000  0.5162330000000 1.0
C      1  0.5947800000000  0.4558200000000  0.4849410000000 1.0
C      1  0.5950340000000  0.5445510000000  0.4869910000000 1.0
C      1  0.5955900000000  0.4555400000000  0.5142200000000 1.0
C      1  0.5676420000000  0.4832800000000  0.5113040000000 1.0
C      1  0.5675270000000  0.5163290000000  0.4896290000000 1.0
C      1  0.5707830000000  0.4868830000000  0.4783020000000 1.0
C      1  0.5703610000000  0.5129530000000  0.5226660000000 1.0
C      1  0.4196310000000  0.5365980000000  0.5192820000000 1.0
C      1  0.4123180000000  0.4684650000000  0.4843730000000 1.0
C      1  0.4185960000000  0.5358450000000  0.4851150000000 1.0
C      1  0.4106940000000  0.4674200000000  0.5183270000000 1.0
C      1  0.5523510000000  0.5813740000000  0.4672050000000 1.0
C      1  0.5528350000000  0.4180130000000  0.5332260000000 1.0
C      1  0.5508910000000  0.5808600000000  0.5337710000000 1.0
C      1  0.5535580000000  0.4185830000000  0.4663020000000 1.0
C      1  0.5421050000000  0.4848750000000  0.5655100000000 1.0
C      1  0.5416900000000  0.5135200000000  0.4361960000000 1.0
C      1  0.5421530000000  0.4857100000000  0.4360520000000 1.0
C      1  0.5417850000000  0.5125150000000  0.5643880000000 1.0
C      1  0.5561710000000  0.5364660000000  0.4453120000000 1.0
C      1  0.5571720000000  0.4621970000000  0.5565770000000 1.0
C      1  0.5548440000000  0.5365950000000  0.5558590000000 1.0
C      1  0.5578010000000  0.4630500000000  0.4436710000000 1.0
C      1  0.4562760000000  0.5843940000000  0.4827440000000 1.0
C      1  0.4545110000000  0.4186700000000  0.5115590000000 1.0
C      1  0.4513260000000  0.5928960000000  0.5152680000000 1.0
C      1  0.4525740000000  0.4137110000000  0.4787010000000 1.0
C      1  0.4643000000000  0.5219920000000  0.4862900000000 1.0
C      1  0.4645000000000  0.4751940000000  0.5138660000000 1.0
C      1  0.4640710000000  0.5094380000000  0.5135590000000 1.0
C      1  0.4615150000000  0.4712220000000  0.4817430000000 1.0
C      1  0.5308410000000  0.4070490000000  0.5163750000000 1.0
C      1  0.5307690000000  0.5936130000000  0.4837160000000 1.0
C      1  0.5312200000000  0.4072260000000  0.4823620000000 1.0
C      1  0.5295440000000  0.5937910000000  0.5177220000000 1.0
C      1  0.5064920000000  0.5606660000000  0.5534010000000 1.0
C      1  0.5109220000000  0.4389790000000  0.4442240000000 1.0
C      1  0.5080790000000  0.5596490000000  0.4482220000000 1.0
C      1  0.5093660000000  0.4390170000000  0.5539040000000 1.0
C      1  0.4895200000000  0.4859080000000  0.5749840000000 1.0
C      1  0.4883050000000  0.5127870000000  0.4267800000000 1.0
C      1  0.4891990000000  0.4846290000000  0.4254430000000 1.0
C      1  0.4900370000000  0.5141520000000  0.5756310000000 1.0
C      1  0.4763190000000  0.5967770000000  0.4661910000000 1.0
C      1  0.4744920000000  0.4077230000000  0.5313290000000 1.0
C      1  0.4749030000000  0.5993830000000  0.5335750000000 1.0
C      1  0.4769120000000  0.4045960000000  0.4635920000000 1.0
C      1  0.4305230000000  0.5668070000000  0.5074290000000 1.0
C      1  0.4336290000000  0.4421790000000  0.4806650000000 1.0
C      1  0.4327160000000  0.5621330000000  0.4737450000000 1.0
C      1  0.4326990000000  0.4435300000000  0.5150720000000 1.0
C      1  0.5432200000000  0.4693110000000  0.4830470000000 1.0
C      1  0.5425900000000  0.5298080000000  0.5176390000000 1.0
C      1  0.5420190000000  0.4665840000000  0.5169230000000 1.0
C      1  0.5416110000000  0.5326530000000  0.4839150000000 1.0
C      1  0.5118140000000  0.5271500000000  0.4387250000000 1.0
C      1  0.5126830000000  0.4711860000000  0.5628340000000 1.0
C      1  0.5124440000000  0.5281240000000  0.5614620000000 1.0
C      1  0.5129910000000  0.4714850000000  0.4381140000000 1.0
C      1  0.5680310000000  0.4470440000000  0.5278140000000 1.0
C      1  0.5674900000000  0.5526300000000  0.4733490000000 1.0
C      1  0.5675760000000  0.4476470000000  0.4726610000000 1.0
C      1  0.5663460000000  0.5522440000000  0.5277940000000 1.0
C      1  0.4377680000000  0.5154490000000  0.4729210000000 1.0
C      1  0.4360600000000  0.4801070000000  0.5305770000000 1.0
C      1  0.4369140000000  0.5137410000000  0.5314710000000 1.0
C      1  0.4363180000000  0.4821100000000  0.4694910000000 1.0
C      1  0.4893050000000  0.4865810000000  0.5345350000000 1.0
C      1  0.4883310000000  0.5125570000000  0.4675500000000 1.0
C      1  0.4868130000000  0.4815550000000  0.4662560000000 1.0
C      1  0.4868850000000  0.5197610000000  0.5320050000000 1.0
C      1  0.5386630000000  0.5619880000000  0.5546850000000 1.0
C      1  0.5426470000000  0.4365390000000  0.4437510000000 1.0
C      1  0.5401050000000  0.5622650000000  0.4462160000000 1.0
C      1  0.5413010000000  0.4362480000000  0.5552060000000 1.0
C      1  0.4460830000000  0.5524170000000  0.5347380000000 1.0
C      1  0.4492480000000  0.4454200000000  0.4524420000000 1.0
C      1  0.4519480000000  0.5546050000000  0.4511540000000 1.0
C      1  0.4504220000000  0.4448590000000  0.5424160000000 1.0
C      1  0.3923100000000  0.5218030000000  0.4930180000000 1.0
C      1  0.3849920000000  0.4853220000000  0.5257650000000 1.0
C      1  0.3875840000000  0.5163790000000  0.5233190000000 1.0
C      1  0.3901630000000  0.4905050000000  0.4934180000000 1.0
C      1  0.5993410000000  0.5145180000000  0.4767440000000 1.0
C      1  0.5992490000000  0.4857010000000  0.5245800000000 1.0
C      1  0.6026040000000  0.5168470000000  0.5295210000000 1.0
C      1  0.6032290000000  0.4834970000000  0.4718420000000 1.0
C      1  0.4427040000000  0.5170590000000  0.5634990000000 1.0
C      1  0.4404790000000  0.4809940000000  0.4366800000000 1.0
C      1  0.4411110000000  0.5104870000000  0.4418450000000 1.0
C      1  0.4423250000000  0.4871620000000  0.5607180000000 1.0
C      1  0.4806160000000  0.5438310000000  0.4571460000000 1.0
C      1  0.4812710000000  0.4550650000000  0.5440530000000 1.0
C      1  0.4795150000000  0.5474290000000  0.5402990000000 1.0
C      1  0.4814210000000  0.4515490000000  0.4533730000000 1.0
C      1  0.4696670000000  0.5646250000000  0.5146980000000 1.0
C      1  0.4733790000000  0.4392780000000  0.4831370000000 1.0
C      1  0.4693450000000  0.5531780000000  0.4869610000000 1.0
C      1  0.4777260000000  0.4437210000000  0.5137790000000 1.0
C      1  0.4996900000000  0.5848360000000  0.5316340000000 1.0
C      1  0.5023930000000  0.4170130000000  0.4670660000000 1.0
C      1  0.5019370000000  0.5841510000000  0.4683600000000 1.0
C      1  0.5016980000000  0.4168970000000  0.5309770000000 1.0
C      1  0.5081540000000  0.4257320000000  0.4991270000000 1.0
C      1  0.5064900000000  0.5762820000000  0.5002050000000 1.0
END
