TITL C-2782234-8014-1042 0.00202088632780863 125000 -744.868417672887 0 0 127 (C1) n - 1
REM
REM in /home/nfs/bkarasulu/CARBON/AIRSS/Generating-Clusters/REBO/Higher-Symm/SD-CG/HFTN-CG
REM
REM
REM
REM
REM
REM ./C.cell (12c818d87b63d06a65506943cc24bca4)
REM
REM compiler GCC version 9.2.1 20190827 (Red Hat 9.2.1-1)
REM options -cpp -mtune=generic -march=x86-64 -g -O0 -fpre-include=/usr/include/finclude/math-vector-fortran.h
REM seed 1121136682 1831325817 -589962468 1919466532 -46421516 -934513892 -2083655389 -1325219266 2116005898 -533673134 237175986 -92624769 1685498724 1748867308 2031451011 1360174684 2003821085 558289875 1184293045 364163673 353855585 -1173489735 165263139 -1519899281 -2130764334 -523129290 -1103087683 -222792000 -1248542123 -105994860 -47471012 822798738 -1399926426
REM
CELL 1.54180   50.00000   50.00000   50.00000   90.00000   90.00000   90.00000
LATT -1
SFAC C  
C      1  0.4733650000000  0.5853570000000  0.4988490000000 1.0
C      1  0.5257820000000  0.5850710000000  0.5021840000000 1.0
C      1  0.5255620000000  0.4163850000000  0.4957830000000 1.0
C      1  0.4729740000000  0.4139050000000  0.4996290000000 1.0
C      1  0.4981440000000  0.4167900000000  0.4769320000000 1.0
C      1  0.4999460000000  0.4187760000000  0.5167200000000 1.0
C      1  0.5000830000000  0.5791310000000  0.4813960000000 1.0
C      1  0.4990650000000  0.5834490000000  0.5211180000000 1.0
C      1  0.5828310000000  0.4805400000000  0.4345500000000 1.0
C      1  0.4153030000000  0.4816760000000  0.5571950000000 1.0
C      1  0.4150920000000  0.5202080000000  0.4414370000000 1.0
C      1  0.5843760000000  0.5196450000000  0.5590670000000 1.0
C      1  0.5644890000000  0.5524670000000  0.5256940000000 1.0
C      1  0.4347230000000  0.5518060000000  0.4759140000000 1.0
C      1  0.4355340000000  0.4500190000000  0.5237090000000 1.0
C      1  0.5638060000000  0.4489720000000  0.4736790000000 1.0
C      1  0.4245050000000  0.4694190000000  0.4782990000000 1.0
C      1  0.5743210000000  0.4689760000000  0.5216800000000 1.0
C      1  0.5755900000000  0.5313950000000  0.4803280000000 1.0
C      1  0.4252320000000  0.5318390000000  0.5216710000000 1.0
C      1  0.5040080000000  0.5821390000000  0.5510970000000 1.0
C      1  0.4959070000000  0.5793900000000  0.4508600000000 1.0
C      1  0.4957430000000  0.4227370000000  0.5476570000000 1.0
C      1  0.5006040000000  0.4180300000000  0.4474020000000 1.0
C      1  0.4082350000000  0.4920050000000  0.4351620000000 1.0
C      1  0.5901820000000  0.4909990000000  0.5648480000000 1.0
C      1  0.5896530000000  0.5091510000000  0.4348010000000 1.0
C      1  0.4086100000000  0.5098010000000  0.5645870000000 1.0
C      1  0.5655940000000  0.4793500000000  0.5756060000000 1.0
C      1  0.4317780000000  0.4785750000000  0.4256510000000 1.0
C      1  0.4326140000000  0.5222250000000  0.5758070000000 1.0
C      1  0.5660600000000  0.5208690000000  0.4229860000000 1.0
C      1  0.5154240000000  0.4942970000000  0.5910870000000 1.0
C      1  0.4870730000000  0.4912590000000  0.4105160000000 1.0
C      1  0.4839560000000  0.5085060000000  0.5910210000000 1.0
C      1  0.5160500000000  0.5091400000000  0.4064910000000 1.0
C      1  0.5452390000000  0.5617780000000  0.5032720000000 1.0
C      1  0.4533450000000  0.5629990000000  0.4987510000000 1.0
C      1  0.4531400000000  0.4364020000000  0.5010300000000 1.0
C      1  0.5439900000000  0.4403990000000  0.4965340000000 1.0
C      1  0.5368560000000  0.5858380000000  0.5567400000000 1.0
C      1  0.4629170000000  0.5839480000000  0.4453380000000 1.0
C      1  0.4635970000000  0.4182500000000  0.5549570000000 1.0
C      1  0.5269930000000  0.4203660000000  0.4371730000000 1.0
C      1  0.4606080000000  0.4439520000000  0.4496270000000 1.0
C      1  0.5435610000000  0.4385630000000  0.5481810000000 1.0
C      1  0.5413270000000  0.5529830000000  0.4520370000000 1.0
C      1  0.4560260000000  0.5642550000000  0.5491690000000 1.0
C      1  0.4910920000000  0.5538630000000  0.5157750000000 1.0
C      1  0.5002760000000  0.5467440000000  0.4851610000000 1.0
C      1  0.5011670000000  0.4515840000000  0.5203820000000 1.0
C      1  0.4935140000000  0.4460970000000  0.4877670000000 1.0
C      1  0.5279400000000  0.4896030000000  0.4845510000000 1.0
C      1  0.4720210000000  0.4886780000000  0.5190250000000 1.0
C      1  0.4722460000000  0.5102680000000  0.4856870000000 1.0
C      1  0.5276540000000  0.5124830000000  0.5170250000000 1.0
C      1  0.5590850000000  0.5033770000000  0.4842880000000 1.0
C      1  0.4418280000000  0.5040560000000  0.5160910000000 1.0
C      1  0.4404600000000  0.4982840000000  0.4825950000000 1.0
C      1  0.5586170000000  0.4982300000000  0.5177750000000 1.0
C      1  0.5674070000000  0.5223480000000  0.5375640000000 1.0
C      1  0.4307480000000  0.5220240000000  0.4638980000000 1.0
C      1  0.4334550000000  0.4796820000000  0.5364000000000 1.0
C      1  0.5737410000000  0.4804800000000  0.4653620000000 1.0
C      1  0.4555350000000  0.5249820000000  0.5564420000000 1.0
C      1  0.5413670000000  0.5229890000000  0.4432510000000 1.0
C      1  0.5425050000000  0.4777230000000  0.5562190000000 1.0
C      1  0.4542420000000  0.4749320000000  0.4483790000000 1.0
C      1  0.4809750000000  0.4761130000000  0.5843560000000 1.0
C      1  0.5232570000000  0.4758320000000  0.4046630000000 1.0
C      1  0.5185900000000  0.5268870000000  0.5856170000000 1.0
C      1  0.4807570000000  0.5246810000000  0.4142470000000 1.0
C      1  0.4888540000000  0.5398500000000  0.5801120000000 1.0
C      1  0.5095210000000  0.5411240000000  0.4154610000000 1.0
C      1  0.5106680000000  0.4633320000000  0.5786330000000 1.0
C      1  0.4961860000000  0.4590030000000  0.4166440000000 1.0
C      1  0.5286370000000  0.5351040000000  0.4960450000000 1.0
C      1  0.4678850000000  0.5334970000000  0.5045180000000 1.0
C      1  0.4695520000000  0.4653370000000  0.5001110000000 1.0
C      1  0.5267970000000  0.4661770000000  0.5048580000000 1.0
C      1  0.4662370000000  0.5046600000000  0.4527550000000 1.0
C      1  0.5321030000000  0.5089110000000  0.5505500000000 1.0
C      1  0.5316350000000  0.4924100000000  0.4508370000000 1.0
C      1  0.4678580000000  0.4948710000000  0.5515820000000 1.0
C      1  0.4508400000000  0.5546290000000  0.4470090000000 1.0
C      1  0.5493790000000  0.5572250000000  0.5542860000000 1.0
C      1  0.5490670000000  0.4442190000000  0.4445070000000 1.0
C      1  0.4503550000000  0.4463300000000  0.5524110000000 1.0
C      1  0.5206050000000  0.5642650000000  0.4359500000000 1.0
C      1  0.4787000000000  0.5655790000000  0.5639230000000 1.0
C      1  0.4827870000000  0.4366300000000  0.4352910000000 1.0
C      1  0.5205790000000  0.4377970000000  0.5620210000000 1.0
C      1  0.4107060000000  0.4665760000000  0.5071200000000 1.0
C      1  0.5882200000000  0.4607100000000  0.4946160000000 1.0
C      1  0.5891400000000  0.5364480000000  0.5082150000000 1.0
C      1  0.4100540000000  0.5363840000000  0.4938210000000 1.0
C      1  0.4835900000000  0.4518550000000  0.5605430000000 1.0
C      1  0.5277640000000  0.4459580000000  0.4171020000000 1.0
C      1  0.5162770000000  0.5529400000000  0.5637810000000 1.0
C      1  0.4831510000000  0.5519420000000  0.4347860000000 1.0
C      1  0.5550000000000  0.4467620000000  0.5256480000000 1.0
C      1  0.4423970000000  0.4458720000000  0.4731650000000 1.0
C      1  0.4429890000000  0.5550950000000  0.5276230000000 1.0
C      1  0.5568480000000  0.5544250000000  0.4752940000000 1.0
C      1  0.4811860000000  0.4718850000000  0.4693350000000 1.0
C      1  0.5170690000000  0.4752300000000  0.5359580000000 1.0
C      1  0.5159900000000  0.5254570000000  0.4659830000000 1.0
C      1  0.4803440000000  0.5289550000000  0.5354230000000 1.0
C      1  0.5464510000000  0.4988620000000  0.4118300000000 1.0
C      1  0.4513630000000  0.5017190000000  0.5884370000000 1.0
C      1  0.4538540000000  0.4964300000000  0.4149020000000 1.0
C      1  0.5478020000000  0.5006520000000  0.5883000000000 1.0
C      1  0.4041410000000  0.4902620000000  0.4653980000000 1.0
C      1  0.5938400000000  0.4895860000000  0.5346380000000 1.0
C      1  0.5964070000000  0.5156940000000  0.4616130000000 1.0
C      1  0.4039960000000  0.5126290000000  0.5347680000000 1.0
C      1  0.5478600000000  0.5301570000000  0.5713070000000 1.0
C      1  0.4533640000000  0.5261170000000  0.4315530000000 1.0
C      1  0.4514170000000  0.4724180000000  0.5711210000000 1.0
C      1  0.5507250000000  0.4737080000000  0.4335770000000 1.0
C      1  0.5996340000000  0.5083440000000  0.5133390000000 1.0
C      1  0.3981110000000  0.5092380000000  0.4872570000000 1.0
C      1  0.3982470000000  0.4932320000000  0.5130530000000 1.0
C      1  0.5984730000000  0.4921880000000  0.4861480000000 1.0
C      1  0.4989470000000  0.4980650000000  0.4587100000000 1.0
C      1  0.4997650000000  0.5027630000000  0.5437510000000 1.0
C      1  0.4999990000000  0.4990040000000  0.5020940000000 1.0
END
