TITL C-2782227-3064-1411 -0.00762070311429999 125000 -216.701782477781 0 0 40 (C3) n - 1
REM
REM in /home/nfs/bkarasulu/CARBON/AIRSS/Generating-Clusters/REBO/Higher-Symm/SD-CG/HFTN-CG
REM
REM
REM
REM
REM
REM ./C.cell (12c818d87b63d06a65506943cc24bca4)
REM
REM compiler GCC version 9.2.1 20190827 (Red Hat 9.2.1-1)
REM options -cpp -mtune=generic -march=x86-64 -g -O0 -fpre-include=/usr/include/finclude/math-vector-fortran.h
REM seed 1337228777 -246200715 -506094949 -550141583 467489975 1352915482 1712793880 -226692459 2133641628 -1681628257 455849132 -1506669387 778877425 -953193994 -1398852608 -933559305 -62964251 -2105305858 836414662 -1101832203 1327985060 195615001 -494139972 317772179 -1230695016 -1682731814 894307430 -1554568105 298956123 -1742038144 344929845 1105237990 -781666368
REM
CELL 1.54180   50.00000   50.00000   50.00000   90.00000   90.00000   90.00000
LATT -1
SFAC C  
C      1  0.4780400000000  0.5021490000000  0.4807600000000 1.0
C      1  0.4776180000000  0.4827230000000  0.5062590000000 1.0
C      1  0.4774170000000  0.5145210000000  0.5103280000000 1.0
C      1  0.5074720000000  0.4300040000000  0.4832100000000 1.0
C      1  0.5054660000000  0.5205880000000  0.5684500000000 1.0
C      1  0.5077150000000  0.5491350000000  0.4473910000000 1.0
C      1  0.5496080000000  0.4987580000000  0.4564560000000 1.0
C      1  0.5484380000000  0.4625750000000  0.5236590000000 1.0
C      1  0.5481900000000  0.5388740000000  0.5213830000000 1.0
C      1  0.5079520000000  0.4728080000000  0.5555070000000 1.0
C      1  0.5087840000000  0.5617880000000  0.4953010000000 1.0
C      1  0.5100680000000  0.4651550000000  0.4483640000000 1.0
C      1  0.5376520000000  0.4741940000000  0.4620050000000 1.0
C      1  0.5360770000000  0.4797950000000  0.5417650000000 1.0
C      1  0.5366940000000  0.5460820000000  0.4970300000000 1.0
C      1  0.4453200000000  0.4357930000000  0.5153430000000 1.0
C      1  0.4443130000000  0.5462110000000  0.5453690000000 1.0
C      1  0.4465790000000  0.5170170000000  0.4347470000000 1.0
C      1  0.4561460000000  0.4609990000000  0.5192520000000 1.0
C      1  0.4558040000000  0.5368740000000  0.5219470000000 1.0
C      1  0.4572460000000  0.5012760000000  0.4549020000000 1.0
C      1  0.4378580000000  0.5163740000000  0.5062050000000 1.0
C      1  0.4384390000000  0.4980920000000  0.4799280000000 1.0
C      1  0.4379270000000  0.4844710000000  0.5088980000000 1.0
C      1  0.5387500000000  0.5089220000000  0.5323320000000 1.0
C      1  0.5397810000000  0.5233210000000  0.4766120000000 1.0
C      1  0.5396930000000  0.4678580000000  0.4920080000000 1.0
C      1  0.5188210000000  0.5238090000000  0.4526740000000 1.0
C      1  0.5181360000000  0.4471180000000  0.5028590000000 1.0
C      1  0.5170190000000  0.5289280000000  0.5441680000000 1.0
C      1  0.5030040000000  0.5685150000000  0.4661220000000 1.0
C      1  0.5036870000000  0.4365870000000  0.4569250000000 1.0
C      1  0.5011510000000  0.4945760000000  0.5757560000000 1.0
C      1  0.5082110000000  0.5471790000000  0.5261450000000 1.0
C      1  0.5099640000000  0.4991750000000  0.4455880000000 1.0
C      1  0.5085450000000  0.4533960000000  0.5274370000000 1.0
C      1  0.4804020000000  0.4615320000000  0.5392500000000 1.0
C      1  0.4805750000000  0.5536550000000  0.5122870000000 1.0
C      1  0.4821320000000  0.4842440000000  0.4460040000000 1.0
C      1  0.5407800000000  0.5000390000000  0.5003440000000 1.0
END
