TITL C-2782233-7966-1147 0.00217029761266764 125000 -811.647107663716 0 0 132 (C1) n - 1
REM
REM in /home/nfs/bkarasulu/CARBON/AIRSS/Generating-Clusters/REBO/Higher-Symm/SD-CG/HFTN-CG
REM
REM
REM
REM
REM
REM ./C.cell (12c818d87b63d06a65506943cc24bca4)
REM
REM compiler GCC version 9.2.1 20190827 (Red Hat 9.2.1-1)
REM options -cpp -mtune=generic -march=x86-64 -g -O0 -fpre-include=/usr/include/finclude/math-vector-fortran.h
REM seed 1540168447 533445965 543141762 1796021496 2011658157 -288661118 1250443033 195822792 -183093947 1581980879 550697779 1765604816 1182076586 -310809985 -1796423223 -1115188516 1965265004 -860179569 512388403 807142905 -254784189 -906372795 905491456 -1879669902 790191865 2144060276 -831257711 -1775247869 1776358105 -398994113 -1473436913 -1886413464 1054416909
REM
CELL 1.54180   50.00000   50.00000   50.00000   90.00000   90.00000   90.00000
LATT -1
SFAC C  
C      1  0.4663620000000  0.5717820000000  0.4509720000000 1.0
C      1  0.5754310000000  0.4488250000000  0.4739960000000 1.0
C      1  0.4470410000000  0.4716860000000  0.5674070000000 1.0
C      1  0.5316950000000  0.5768190000000  0.5488950000000 1.0
C      1  0.5377300000000  0.4215120000000  0.4462180000000 1.0
C      1  0.4669140000000  0.4277330000000  0.5458250000000 1.0
C      1  0.4184050000000  0.4429180000000  0.5358200000000 1.0
C      1  0.4250730000000  0.5501660000000  0.4744090000000 1.0
C      1  0.5751670000000  0.5568960000000  0.5288200000000 1.0
C      1  0.5540330000000  0.4718430000000  0.4250560000000 1.0
C      1  0.5524220000000  0.5325910000000  0.5713430000000 1.0
C      1  0.4434810000000  0.5283640000000  0.4295960000000 1.0
C      1  0.4450330000000  0.5718700000000  0.4737260000000 1.0
C      1  0.4687000000000  0.4484320000000  0.5676220000000 1.0
C      1  0.5751100000000  0.4728140000000  0.4498260000000 1.0
C      1  0.5546170000000  0.5790990000000  0.5286960000000 1.0
C      1  0.4433520000000  0.4274430000000  0.5287750000000 1.0
C      1  0.5565370000000  0.4263750000000  0.4719530000000 1.0
C      1  0.5339240000000  0.4470330000000  0.4262610000000 1.0
C      1  0.4672080000000  0.5489560000000  0.4284640000000 1.0
C      1  0.5307970000000  0.5560060000000  0.5709490000000 1.0
C      1  0.4196370000000  0.4647530000000  0.5528150000000 1.0
C      1  0.5759870000000  0.5378380000000  0.5504840000000 1.0
C      1  0.4231210000000  0.5287010000000  0.4528510000000 1.0
C      1  0.5436010000000  0.4145030000000  0.4950310000000 1.0
C      1  0.4181410000000  0.4980410000000  0.5597690000000 1.0
C      1  0.4977860000000  0.5514330000000  0.4135220000000 1.0
C      1  0.4435760000000  0.4192700000000  0.4968330000000 1.0
C      1  0.4569250000000  0.5858920000000  0.4960830000000 1.0
C      1  0.5447670000000  0.5864570000000  0.5010310000000 1.0
C      1  0.5873130000000  0.5033610000000  0.4583270000000 1.0
C      1  0.5824730000000  0.5057580000000  0.5605260000000 1.0
C      1  0.4121180000000  0.5015780000000  0.4635820000000 1.0
C      1  0.5069130000000  0.5468220000000  0.5845480000000 1.0
C      1  0.5019460000000  0.4414050000000  0.4188050000000 1.0
C      1  0.4929050000000  0.4576350000000  0.5806440000000 1.0
C      1  0.4914430000000  0.4144920000000  0.5349680000000 1.0
C      1  0.5416140000000  0.4966140000000  0.4149510000000 1.0
C      1  0.4156180000000  0.5418910000000  0.5015350000000 1.0
C      1  0.5045930000000  0.4145920000000  0.4401220000000 1.0
C      1  0.4983850000000  0.5742320000000  0.4392660000000 1.0
C      1  0.5061260000000  0.5893230000000  0.5394070000000 1.0
C      1  0.4439920000000  0.5022240000000  0.5823130000000 1.0
C      1  0.5573580000000  0.5010530000000  0.5837070000000 1.0
C      1  0.4522050000000  0.5035390000000  0.4170350000000 1.0
C      1  0.5841820000000  0.5448740000000  0.5026650000000 1.0
C      1  0.4156650000000  0.4385800000000  0.5021950000000 1.0
C      1  0.5866610000000  0.4580290000000  0.4999830000000 1.0
C      1  0.4367150000000  0.4553440000000  0.4811640000000 1.0
C      1  0.4563490000000  0.4806480000000  0.4391890000000 1.0
C      1  0.4854710000000  0.4389930000000  0.4549930000000 1.0
C      1  0.5649050000000  0.4577220000000  0.5242700000000 1.0
C      1  0.5681690000000  0.5451340000000  0.4778150000000 1.0
C      1  0.4402110000000  0.5413290000000  0.5217940000000 1.0
C      1  0.5375170000000  0.4794230000000  0.5659780000000 1.0
C      1  0.5435770000000  0.5210220000000  0.4369190000000 1.0
C      1  0.4633390000000  0.5247050000000  0.5652760000000 1.0
C      1  0.5177730000000  0.4337620000000  0.5391680000000 1.0
C      1  0.5196450000000  0.5609240000000  0.4628750000000 1.0
C      1  0.4811040000000  0.5702730000000  0.5430800000000 1.0
C      1  0.4761570000000  0.4596550000000  0.4316480000000 1.0
C      1  0.4337630000000  0.4776180000000  0.4611970000000 1.0
C      1  0.4638660000000  0.4362130000000  0.4749520000000 1.0
C      1  0.5168060000000  0.4577860000000  0.5602150000000 1.0
C      1  0.4822240000000  0.5483560000000  0.5650750000000 1.0
C      1  0.5224380000000  0.5427240000000  0.4353080000000 1.0
C      1  0.5656200000000  0.4789350000000  0.5467320000000 1.0
C      1  0.4386630000000  0.5206630000000  0.5445960000000 1.0
C      1  0.5690120000000  0.5256490000000  0.4563680000000 1.0
C      1  0.5405960000000  0.4359450000000  0.5184380000000 1.0
C      1  0.4592080000000  0.5676990000000  0.5223240000000 1.0
C      1  0.5422440000000  0.5610230000000  0.4820840000000 1.0
C      1  0.4410890000000  0.4665680000000  0.5132250000000 1.0
C      1  0.4741690000000  0.5085340000000  0.4497190000000 1.0
C      1  0.5184860000000  0.4436000000000  0.4629450000000 1.0
C      1  0.5484690000000  0.4681610000000  0.4962420000000 1.0
C      1  0.5516370000000  0.5269400000000  0.5171500000000 1.0
C      1  0.4508020000000  0.5257380000000  0.4927810000000 1.0
C      1  0.5262320000000  0.5118170000000  0.5620800000000 1.0
C      1  0.5317030000000  0.4942220000000  0.4533340000000 1.0
C      1  0.4696120000000  0.4933380000000  0.5535820000000 1.0
C      1  0.4922290000000  0.4535980000000  0.5289630000000 1.0
C      1  0.4874170000000  0.5589280000000  0.4741400000000 1.0
C      1  0.5062160000000  0.5499890000000  0.5331780000000 1.0
C      1  0.5159130000000  0.4695240000000  0.4434180000000 1.0
C      1  0.4510490000000  0.5058740000000  0.4696310000000 1.0
C      1  0.4674790000000  0.4497340000000  0.5059680000000 1.0
C      1  0.4944190000000  0.4800210000000  0.5477220000000 1.0
C      1  0.5018690000000  0.5234590000000  0.5527050000000 1.0
C      1  0.4913540000000  0.5360320000000  0.4496560000000 1.0
C      1  0.5487460000000  0.5077290000000  0.5405040000000 1.0
C      1  0.4446290000000  0.4894460000000  0.5316960000000 1.0
C      1  0.5545180000000  0.4846980000000  0.4710160000000 1.0
C      1  0.5251560000000  0.4494560000000  0.4905960000000 1.0
C      1  0.4710940000000  0.5486980000000  0.4975540000000 1.0
C      1  0.5323830000000  0.5504580000000  0.5127080000000 1.0
C      1  0.4023320000000  0.4696380000000  0.5067890000000 1.0
C      1  0.4766390000000  0.5010630000000  0.4013860000000 1.0
C      1  0.4947860000000  0.4019930000000  0.4699530000000 1.0
C      1  0.6026350000000  0.4814500000000  0.5044390000000 1.0
C      1  0.5997990000000  0.5209900000000  0.5062630000000 1.0
C      1  0.3993560000000  0.5193620000000  0.5086400000000 1.0
C      1  0.5269940000000  0.4981650000000  0.5992580000000 1.0
C      1  0.5160520000000  0.4966980000000  0.4025210000000 1.0
C      1  0.4747680000000  0.5040240000000  0.5970270000000 1.0
C      1  0.4927290000000  0.4008310000000  0.5096940000000 1.0
C      1  0.5008640000000  0.5956360000000  0.4658690000000 1.0
C      1  0.5017500000000  0.6052120000000  0.5157600000000 1.0
C      1  0.4937110000000  0.4718910000000  0.4058470000000 1.0
C      1  0.3992010000000  0.4959190000000  0.4892340000000 1.0
C      1  0.4691810000000  0.3999180000000  0.4897250000000 1.0
C      1  0.4972890000000  0.4817930000000  0.5967180000000 1.0
C      1  0.5041470000000  0.5208270000000  0.5980670000000 1.0
C      1  0.4986620000000  0.5225980000000  0.3993350000000 1.0
C      1  0.5983350000000  0.5009000000000  0.5308290000000 1.0
C      1  0.4043790000000  0.4942490000000  0.5287230000000 1.0
C      1  0.6039390000000  0.5027770000000  0.4813260000000 1.0
C      1  0.5185840000000  0.4009780000000  0.4914190000000 1.0
C      1  0.4816110000000  0.6000340000000  0.4912690000000 1.0
C      1  0.5212980000000  0.6014810000000  0.4922260000000 1.0
C      1  0.5389640000000  0.4893090000000  0.5178210000000 1.0
C      1  0.4930400000000  0.5130460000000  0.5254510000000 1.0
C      1  0.4969460000000  0.5353680000000  0.5049940000000 1.0
C      1  0.4580840000000  0.4866110000000  0.4941430000000 1.0
C      1  0.4652390000000  0.5093730000000  0.5171980000000 1.0
C      1  0.5505220000000  0.5077350000000  0.4916100000000 1.0
C      1  0.5103080000000  0.5138830000000  0.4658480000000 1.0
C      1  0.5099750000000  0.4880960000000  0.5200210000000 1.0
C      1  0.5231420000000  0.5267310000000  0.4891890000000 1.0
C      1  0.4818530000000  0.4710410000000  0.4818400000000 1.0
C      1  0.5034260000000  0.4652670000000  0.5012680000000 1.0
C      1  0.4933330000000  0.4849510000000  0.4587030000000 1.0
END
