TITL C-2782237-5345-643 -0.00464957457332574 125000 -820.327523028424 0 0 137 (C1) n - 1
REM
REM in /home/nfs/bkarasulu/CARBON/AIRSS/Generating-Clusters/REBO/Higher-Symm/SD-CG/HFTN-CG
REM
REM
REM
REM
REM
REM ./C.cell (12c818d87b63d06a65506943cc24bca4)
REM
REM compiler GCC version 9.2.1 20190827 (Red Hat 9.2.1-1)
REM options -cpp -mtune=generic -march=x86-64 -g -O0 -fpre-include=/usr/include/finclude/math-vector-fortran.h
REM seed 424952683 -661017822 -1013316358 273493347 1687653488 -892336330 851117012 367900349 -458950319 653708683 -2040281717 -2093804932 377925682 -1222905179 1422050650 1850262194 721998636 1185784508 1684907626 -782471958 16970106 1790198827 1746404348 -779290919 -1774655126 -815292805 1476695524 -1174505983 2115007612 43095511 -705833068 -1630915319 -1573764087
REM
CELL 1.54180   50.00000   50.00000   50.00000   90.00000   90.00000   90.00000
LATT -1
SFAC C  
C      1  0.5755110000000  0.4720710000000  0.5134530000000 1.0
C      1  0.4737130000000  0.4682730000000  0.4291520000000 1.0
C      1  0.4415310000000  0.4673990000000  0.5625990000000 1.0
C      1  0.5054930000000  0.5086960000000  0.4147980000000 1.0
C      1  0.4180290000000  0.5091090000000  0.5425280000000 1.0
C      1  0.5834770000000  0.5106110000000  0.5463190000000 1.0
C      1  0.5559850000000  0.5361660000000  0.5125410000000 1.0
C      1  0.4843530000000  0.5310560000000  0.4503590000000 1.0
C      1  0.4612080000000  0.5372280000000  0.5402550000000 1.0
C      1  0.5337980000000  0.5601120000000  0.5557570000000 1.0
C      1  0.5352830000000  0.5657070000000  0.4353670000000 1.0
C      1  0.4315570000000  0.5585340000000  0.5017780000000 1.0
C      1  0.5533300000000  0.4736010000000  0.4128740000000 1.0
C      1  0.4095010000000  0.4782160000000  0.4948380000000 1.0
C      1  0.5482990000000  0.4834190000000  0.5834440000000 1.0
C      1  0.5948700000000  0.5117090000000  0.4620290000000 1.0
C      1  0.4175720000000  0.5104280000000  0.4500270000000 1.0
C      1  0.4929220000000  0.5039390000000  0.5968940000000 1.0
C      1  0.4269440000000  0.4199380000000  0.5568910000000 1.0
C      1  0.5745870000000  0.4247300000000  0.5285010000000 1.0
C      1  0.4895310000000  0.4223830000000  0.4171360000000 1.0
C      1  0.4606160000000  0.5370690000000  0.5802130000000 1.0
C      1  0.5915820000000  0.5524260000000  0.4868790000000 1.0
C      1  0.4515460000000  0.5420560000000  0.4246360000000 1.0
C      1  0.5866610000000  0.4435670000000  0.5066940000000 1.0
C      1  0.4643690000000  0.4389370000000  0.4230420000000 1.0
C      1  0.4448660000000  0.4379060000000  0.5744010000000 1.0
C      1  0.5289320000000  0.4853550000000  0.4098940000000 1.0
C      1  0.4116850000000  0.4846960000000  0.5227590000000 1.0
C      1  0.5641660000000  0.4884110000000  0.5595160000000 1.0
C      1  0.5622190000000  0.4393350000000  0.5498830000000 1.0
C      1  0.5126320000000  0.4382900000000  0.4134530000000 1.0
C      1  0.4130930000000  0.4348910000000  0.5363930000000 1.0
C      1  0.5271920000000  0.4068660000000  0.5103750000000 1.0
C      1  0.5177010000000  0.4173530000000  0.4470840000000 1.0
C      1  0.4495330000000  0.4177410000000  0.5129850000000 1.0
C      1  0.5474840000000  0.5297910000000  0.4241530000000 1.0
C      1  0.3952070000000  0.5431220000000  0.4968590000000 1.0
C      1  0.5491420000000  0.5432110000000  0.5883550000000 1.0
C      1  0.4624370000000  0.4623320000000  0.4854070000000 1.0
C      1  0.4991880000000  0.4577650000000  0.5450900000000 1.0
C      1  0.5295500000000  0.4624460000000  0.4760250000000 1.0
C      1  0.5249230000000  0.5044920000000  0.4913440000000 1.0
C      1  0.4745640000000  0.5052060000000  0.4792060000000 1.0
C      1  0.4975880000000  0.5059930000000  0.5318700000000 1.0
C      1  0.4519400000000  0.4725160000000  0.4543850000000 1.0
C      1  0.4751760000000  0.4664870000000  0.5679840000000 1.0
C      1  0.5591690000000  0.4735050000000  0.4863580000000 1.0
C      1  0.5586560000000  0.5094940000000  0.5252440000000 1.0
C      1  0.5274010000000  0.5098620000000  0.4411890000000 1.0
C      1  0.4499530000000  0.5098090000000  0.5375200000000 1.0
C      1  0.4561020000000  0.5807990000000  0.5383930000000 1.0
C      1  0.5514240000000  0.5757930000000  0.5139590000000 1.0
C      1  0.4897260000000  0.5791980000000  0.4460930000000 1.0
C      1  0.4833790000000  0.5867540000000  0.5456290000000 1.0
C      1  0.5472570000000  0.5810190000000  0.4849510000000 1.0
C      1  0.4646570000000  0.5856130000000  0.4618660000000 1.0
C      1  0.4783790000000  0.4968850000000  0.4171590000000 1.0
C      1  0.4296810000000  0.4952680000000  0.5686600000000 1.0
C      1  0.5953370000000  0.4941460000000  0.5210420000000 1.0
C      1  0.5172960000000  0.4907290000000  0.5829220000000 1.0
C      1  0.5722020000000  0.4919910000000  0.4618010000000 1.0
C      1  0.4131470000000  0.5001040000000  0.4775820000000 1.0
C      1  0.4576740000000  0.5374400000000  0.4634540000000 1.0
C      1  0.4887450000000  0.5394040000000  0.5518900000000 1.0
C      1  0.5509570000000  0.5336090000000  0.4834620000000 1.0
C      1  0.5879640000000  0.5393340000000  0.4626620000000 1.0
C      1  0.4231890000000  0.5418530000000  0.4436740000000 1.0
C      1  0.4894940000000  0.5324530000000  0.5910240000000 1.0
C      1  0.5297280000000  0.5493050000000  0.4074530000000 1.0
C      1  0.4064880000000  0.5531040000000  0.5222090000000 1.0
C      1  0.5652290000000  0.5534490000000  0.5659290000000 1.0
C      1  0.4238690000000  0.4307530000000  0.5086830000000 1.0
C      1  0.5477330000000  0.4365000000000  0.5729670000000 1.0
C      1  0.5377330000000  0.4299800000000  0.4279290000000 1.0
C      1  0.5049460000000  0.4708730000000  0.4539640000000 1.0
C      1  0.4574830000000  0.4657050000000  0.5188820000000 1.0
C      1  0.5273680000000  0.4676170000000  0.5287820000000 1.0
C      1  0.4589750000000  0.5449300000000  0.5108750000000 1.0
C      1  0.5305790000000  0.5484090000000  0.5255580000000 1.0
C      1  0.5100900000000  0.5527500000000  0.4543750000000 1.0
C      1  0.5111370000000  0.4315190000000  0.5275450000000 1.0
C      1  0.5116620000000  0.4358210000000  0.4717120000000 1.0
C      1  0.4734990000000  0.4340600000000  0.5007150000000 1.0
C      1  0.6172830000000  0.5042110000000  0.4775470000000 1.0
C      1  0.4381760000000  0.4960980000000  0.4382120000000 1.0
C      1  0.4699530000000  0.4906010000000  0.5889490000000 1.0
C      1  0.5654640000000  0.5510230000000  0.4415920000000 1.0
C      1  0.4201190000000  0.5403660000000  0.4762460000000 1.0
C      1  0.5183830000000  0.5405870000000  0.5786570000000 1.0
C      1  0.4683780000000  0.4925740000000  0.5290170000000 1.0
C      1  0.5382030000000  0.4945700000000  0.5171300000000 1.0
C      1  0.4965640000000  0.5016770000000  0.4536690000000 1.0
C      1  0.4834870000000  0.4176180000000  0.4503510000000 1.0
C      1  0.4585650000000  0.4142420000000  0.5456500000000 1.0
C      1  0.5548070000000  0.4206370000000  0.5014940000000 1.0
C      1  0.5308170000000  0.5864320000000  0.5358210000000 1.0
C      1  0.5197310000000  0.5907570000000  0.4479110000000 1.0
C      1  0.4488620000000  0.5833660000000  0.5107700000000 1.0
C      1  0.4428980000000  0.5561850000000  0.5581170000000 1.0
C      1  0.5797200000000  0.5570510000000  0.5171650000000 1.0
C      1  0.4830610000000  0.5534210000000  0.4249160000000 1.0
C      1  0.5824480000000  0.5425040000000  0.5461370000000 1.0
C      1  0.5033070000000  0.5384990000000  0.4064620000000 1.0
C      1  0.4160180000000  0.5408370000000  0.5458990000000 1.0
C      1  0.5449270000000  0.5070870000000  0.4664260000000 1.0
C      1  0.4426660000000  0.5151010000000  0.4807150000000 1.0
C      1  0.5079550000000  0.5132690000000  0.5611760000000 1.0
C      1  0.4925560000000  0.5649930000000  0.5613170000000 1.0
C      1  0.5535070000000  0.5580740000000  0.4700220000000 1.0
C      1  0.4459350000000  0.5647800000000  0.4532360000000 1.0
C      1  0.5572990000000  0.4511050000000  0.4306360000000 1.0
C      1  0.4191950000000  0.4504510000000  0.4872850000000 1.0
C      1  0.5254710000000  0.4576020000000  0.5838590000000 1.0
C      1  0.5082020000000  0.5327270000000  0.5141930000000 1.0
C      1  0.5107060000000  0.5336150000000  0.4802230000000 1.0
C      1  0.4809890000000  0.5338410000000  0.4955820000000 1.0
C      1  0.5322830000000  0.4458180000000  0.5044400000000 1.0
C      1  0.4825170000000  0.4489020000000  0.4642980000000 1.0
C      1  0.4732450000000  0.4421190000000  0.5334710000000 1.0
C      1  0.4289990000000  0.4623960000000  0.5338460000000 1.0
C      1  0.5579960000000  0.4673870000000  0.5385920000000 1.0
C      1  0.5064920000000  0.4671310000000  0.4215740000000 1.0
C      1  0.4736280000000  0.4270450000000  0.5736960000000 1.0
C      1  0.5754910000000  0.4353830000000  0.4787960000000 1.0
C      1  0.4505540000000  0.4274150000000  0.4481360000000 1.0
C      1  0.5317330000000  0.5998650000000  0.4708490000000 1.0
C      1  0.4612540000000  0.5949820000000  0.4876440000000 1.0
C      1  0.5065920000000  0.5995510000000  0.5346470000000 1.0
C      1  0.5695130000000  0.4582940000000  0.4571300000000 1.0
C      1  0.4338700000000  0.4464780000000  0.4627610000000 1.0
C      1  0.4970060000000  0.4446910000000  0.5823010000000 1.0
C      1  0.6157610000000  0.4992420000000  0.5043520000000 1.0
C      1  0.4553770000000  0.5115700000000  0.4220500000000 1.0
C      1  0.4492550000000  0.5095000000000  0.5826660000000 1.0
C      1  0.4960700000000  0.4971990000000  0.5006610000000 1.0
C      1  0.5011660000000  0.4221560000000  0.4963160000000 1.0
END
