TITL C-2782237-5345-971 0.106966229367226 125000 -607.608869004998 0 0 104 (C1) n - 1
REM
REM in /home/nfs/bkarasulu/CARBON/AIRSS/Generating-Clusters/REBO/Higher-Symm/SD-CG/HFTN-CG
REM
REM
REM
REM
REM
REM ./C.cell (12c818d87b63d06a65506943cc24bca4)
REM
REM compiler GCC version 9.2.1 20190827 (Red Hat 9.2.1-1)
REM options -cpp -mtune=generic -march=x86-64 -g -O0 -fpre-include=/usr/include/finclude/math-vector-fortran.h
REM seed 177481003 1504269366 -1959045575 1992474838 1538171791 -422383092 1672678252 275915346 1264241461 1096460840 -1306273163 -233858417 1912000420 1321813919 248180145 -172973468 1585663396 -1255228891 -2019875270 71038476 -239514724 -242317386 1599714478 -1203182536 -46248706 -1226786983 -1298670811 -341606204 -1504320060 -2045267487 174344422 1426862754 -698832022
REM
CELL 1.54180   50.00000   50.00000   50.00000   90.00000   90.00000   90.00000
LATT -1
SFAC C  
C      1  0.5656260000000  0.4825210000000  0.4337110000000 1.0
C      1  0.4664490000000  0.4663320000000  0.4891560000000 1.0
C      1  0.5209670000000  0.4117540000000  0.4795170000000 1.0
C      1  0.4815750000000  0.4639890000000  0.5312350000000 1.0
C      1  0.5770010000000  0.4932550000000  0.4701870000000 1.0
C      1  0.4755190000000  0.4756210000000  0.5858120000000 1.0
C      1  0.4862940000000  0.5401610000000  0.4795510000000 1.0
C      1  0.5247610000000  0.4638330000000  0.4116900000000 1.0
C      1  0.5701580000000  0.4635420000000  0.4591780000000 1.0
C      1  0.5425400000000  0.4711870000000  0.5627250000000 1.0
C      1  0.4622850000000  0.5784100000000  0.5231330000000 1.0
C      1  0.5483920000000  0.4397640000000  0.5533980000000 1.0
C      1  0.4597630000000  0.5261680000000  0.4959010000000 1.0
C      1  0.5437900000000  0.4165380000000  0.4369810000000 1.0
C      1  0.4311840000000  0.5203270000000  0.5016320000000 1.0
C      1  0.5392480000000  0.5661060000000  0.5273560000000 1.0
C      1  0.5780870000000  0.4986690000000  0.4993750000000 1.0
C      1  0.4966400000000  0.4930220000000  0.4251070000000 1.0
C      1  0.4154360000000  0.4674490000000  0.5003050000000 1.0
C      1  0.4579900000000  0.5125570000000  0.5620220000000 1.0
C      1  0.5172240000000  0.4211070000000  0.5259350000000 1.0
C      1  0.5619400000000  0.5631420000000  0.5700320000000 1.0
C      1  0.4413310000000  0.5714330000000  0.4673720000000 1.0
C      1  0.4916520000000  0.4315070000000  0.5688960000000 1.0
C      1  0.5785110000000  0.5258500000000  0.5069260000000 1.0
C      1  0.5016620000000  0.4364330000000  0.4686430000000 1.0
C      1  0.5648340000000  0.5421140000000  0.4837250000000 1.0
C      1  0.4863190000000  0.4742740000000  0.4415370000000 1.0
C      1  0.5197680000000  0.4461930000000  0.5688240000000 1.0
C      1  0.4548630000000  0.4813080000000  0.5205320000000 1.0
C      1  0.5208620000000  0.4967020000000  0.4567210000000 1.0
C      1  0.4808500000000  0.4580710000000  0.4631830000000 1.0
C      1  0.4394200000000  0.5261680000000  0.4461310000000 1.0
C      1  0.5720130000000  0.5309760000000  0.5349420000000 1.0
C      1  0.5563900000000  0.4454950000000  0.4782030000000 1.0
C      1  0.4381250000000  0.4933980000000  0.4565360000000 1.0
C      1  0.5251190000000  0.4511020000000  0.4878340000000 1.0
C      1  0.5495320000000  0.5093780000000  0.4581710000000 1.0
C      1  0.4549570000000  0.5093820000000  0.5317040000000 1.0
C      1  0.4268540000000  0.4708800000000  0.4683290000000 1.0
C      1  0.4963630000000  0.4702250000000  0.5610000000000 1.0
C      1  0.4504300000000  0.4881510000000  0.5742780000000 1.0
C      1  0.4301780000000  0.4729220000000  0.5592390000000 1.0
C      1  0.4920130000000  0.5569970000000  0.4541890000000 1.0
C      1  0.4125930000000  0.5333800000000  0.4606850000000 1.0
C      1  0.4798540000000  0.5390440000000  0.5596920000000 1.0
C      1  0.4259810000000  0.4472680000000  0.4534570000000 1.0
C      1  0.5167430000000  0.4023420000000  0.5057350000000 1.0
C      1  0.4852440000000  0.5112060000000  0.5062540000000 1.0
C      1  0.4966510000000  0.5173390000000  0.4565670000000 1.0
C      1  0.4909680000000  0.4802170000000  0.5040460000000 1.0
C      1  0.5086130000000  0.5603300000000  0.4235870000000 1.0
C      1  0.5128030000000  0.5114790000000  0.4926110000000 1.0
C      1  0.5187480000000  0.5318230000000  0.5261420000000 1.0
C      1  0.5500150000000  0.4988580000000  0.5696000000000 1.0
C      1  0.4459690000000  0.4255960000000  0.5092870000000 1.0
C      1  0.3973870000000  0.4903150000000  0.4870020000000 1.0
C      1  0.4139100000000  0.5611240000000  0.4688430000000 1.0
C      1  0.5634260000000  0.5391110000000  0.4508080000000 1.0
C      1  0.5804040000000  0.5117440000000  0.4416640000000 1.0
C      1  0.4514960000000  0.5553610000000  0.4447160000000 1.0
C      1  0.5082590000000  0.5019120000000  0.5381080000000 1.0
C      1  0.5165060000000  0.4797660000000  0.4836100000000 1.0
C      1  0.5728800000000  0.5088250000000  0.5545260000000 1.0
C      1  0.5589170000000  0.5549120000000  0.5442370000000 1.0
C      1  0.5224950000000  0.5701350000000  0.4525790000000 1.0
C      1  0.5573020000000  0.4848920000000  0.5132540000000 1.0
C      1  0.5341040000000  0.5286680000000  0.4894630000000 1.0
C      1  0.4826860000000  0.5915730000000  0.5008720000000 1.0
C      1  0.4287910000000  0.4697550000000  0.5313830000000 1.0
C      1  0.4763010000000  0.4436610000000  0.5889160000000 1.0
C      1  0.5377100000000  0.5034940000000  0.5227700000000 1.0
C      1  0.5043730000000  0.5483140000000  0.5072040000000 1.0
C      1  0.5209930000000  0.5176030000000  0.4228960000000 1.0
C      1  0.4106700000000  0.5146850000000  0.4817980000000 1.0
C      1  0.4148530000000  0.5482050000000  0.5380610000000 1.0
C      1  0.5588560000000  0.4559510000000  0.5085910000000 1.0
C      1  0.5211980000000  0.4471360000000  0.5186030000000 1.0
C      1  0.4883750000000  0.5259540000000  0.4246200000000 1.0
C      1  0.4801320000000  0.4338900000000  0.5427430000000 1.0
C      1  0.5590530000000  0.4368440000000  0.5291230000000 1.0
C      1  0.4874150000000  0.5670500000000  0.5424970000000 1.0
C      1  0.5136890000000  0.5723550000000  0.5377540000000 1.0
C      1  0.5958680000000  0.4938840000000  0.5553040000000 1.0
C      1  0.5426420000000  0.5604840000000  0.4981160000000 1.0
C      1  0.4424980000000  0.4501030000000  0.4985700000000 1.0
C      1  0.4393080000000  0.5614490000000  0.5358750000000 1.0
C      1  0.5370690000000  0.5449750000000  0.4346550000000 1.0
C      1  0.4600710000000  0.5398800000000  0.5334460000000 1.0
C      1  0.5204800000000  0.4705390000000  0.5372280000000 1.0
C      1  0.5011160000000  0.5173610000000  0.5642420000000 1.0
C      1  0.5289390000000  0.5810070000000  0.4790190000000 1.0
C      1  0.4664250000000  0.5072760000000  0.4522490000000 1.0
C      1  0.5116880000000  0.4225150000000  0.4421820000000 1.0
C      1  0.4987690000000  0.4971310000000  0.5903450000000 1.0
C      1  0.5281520000000  0.5113060000000  0.5825840000000 1.0
C      1  0.4170340000000  0.5229020000000  0.5269230000000 1.0
C      1  0.5065940000000  0.5775100000000  0.4987470000000 1.0
C      1  0.4551170000000  0.5814200000000  0.4895680000000 1.0
C      1  0.5463370000000  0.4179440000000  0.4670250000000 1.0
C      1  0.5263680000000  0.4367150000000  0.4175680000000 1.0
C      1  0.4753210000000  0.5548450000000  0.4248130000000 1.0
C      1  0.4629400000000  0.4167920000000  0.5287340000000 1.0
C      1  0.5359880000000  0.4874270000000  0.4276410000000 1.0
END
