TITL C-2782229-3092-1188 0.00273111211836694 125000 -655.755167322127 0 0 115 (C1) n - 1
REM
REM in /home/nfs/bkarasulu/CARBON/AIRSS/Generating-Clusters/REBO/Higher-Symm/SD-CG/HFTN-CG
REM
REM
REM
REM
REM
REM ./C.cell (12c818d87b63d06a65506943cc24bca4)
REM
REM compiler GCC version 9.2.1 20190827 (Red Hat 9.2.1-1)
REM options -cpp -mtune=generic -march=x86-64 -g -O0 -fpre-include=/usr/include/finclude/math-vector-fortran.h
REM seed -1333670129 -1508272689 -191247179 -1911900433 750952500 619259299 438448348 -2060405253 -1438756829 -1851707184 -1527838749 -1027796628 -946690630 1021888506 1278588983 1199653959 834703300 -991078542 569683975 1965635009 -1664492422 -2119966722 2037606495 -1957132540 -1250222345 -1450069019 -1001540870 200239764 -2048488415 -738472741 -590280100 -289058446 784693826
REM
CELL 1.54180   50.00000   50.00000   50.00000   90.00000   90.00000   90.00000
LATT -1
SFAC C  
C      1  0.5194420000000  0.5196840000000  0.4603750000000 1.0
C      1  0.5219990000000  0.4818260000000  0.5405360000000 1.0
C      1  0.4790180000000  0.5197920000000  0.4602750000000 1.0
C      1  0.4787510000000  0.4848370000000  0.5411200000000 1.0
C      1  0.5214650000000  0.4856460000000  0.4672560000000 1.0
C      1  0.5255800000000  0.5153010000000  0.5354060000000 1.0
C      1  0.4763810000000  0.4860010000000  0.4675720000000 1.0
C      1  0.4723460000000  0.5181390000000  0.5347990000000 1.0
C      1  0.4739330000000  0.5903090000000  0.5152350000000 1.0
C      1  0.4822310000000  0.4052700000000  0.4761400000000 1.0
C      1  0.5228690000000  0.5941230000000  0.5166470000000 1.0
C      1  0.5166610000000  0.4055670000000  0.4762010000000 1.0
C      1  0.4830930000000  0.4101940000000  0.5246140000000 1.0
C      1  0.4730440000000  0.5909570000000  0.4833380000000 1.0
C      1  0.5155060000000  0.4101100000000  0.5247210000000 1.0
C      1  0.5239430000000  0.5950350000000  0.4821670000000 1.0
C      1  0.5161080000000  0.5457910000000  0.5467750000000 1.0
C      1  0.5138640000000  0.4563680000000  0.4558450000000 1.0
C      1  0.4843720000000  0.5467520000000  0.5472930000000 1.0
C      1  0.4826070000000  0.4562270000000  0.4565750000000 1.0
C      1  0.5144590000000  0.4538050000000  0.5495160000000 1.0
C      1  0.5157920000000  0.5496200000000  0.4504980000000 1.0
C      1  0.4835690000000  0.4551580000000  0.5489360000000 1.0
C      1  0.4835840000000  0.5488450000000  0.4504060000000 1.0
C      1  0.4542440000000  0.5172360000000  0.4787400000000 1.0
C      1  0.4546080000000  0.4856500000000  0.5201860000000 1.0
C      1  0.5447680000000  0.5159780000000  0.4782270000000 1.0
C      1  0.5443870000000  0.4826930000000  0.5176030000000 1.0
C      1  0.4523200000000  0.4852160000000  0.4880580000000 1.0
C      1  0.4518470000000  0.5182570000000  0.5102770000000 1.0
C      1  0.5467060000000  0.4837240000000  0.4858960000000 1.0
C      1  0.5469860000000  0.5150430000000  0.5105850000000 1.0
C      1  0.5339630000000  0.4843580000000  0.4180320000000 1.0
C      1  0.5304720000000  0.5128000000000  0.5761690000000 1.0
C      1  0.4662470000000  0.4842110000000  0.4169190000000 1.0
C      1  0.4676330000000  0.5121610000000  0.5771050000000 1.0
C      1  0.5276530000000  0.5174270000000  0.4215460000000 1.0
C      1  0.5272550000000  0.4817580000000  0.5799690000000 1.0
C      1  0.4721200000000  0.5170290000000  0.4211980000000 1.0
C      1  0.4716980000000  0.4814120000000  0.5802540000000 1.0
C      1  0.4665570000000  0.5610570000000  0.5255830000000 1.0
C      1  0.4661370000000  0.4349760000000  0.4730960000000 1.0
C      1  0.5327180000000  0.5645740000000  0.5278370000000 1.0
C      1  0.5319340000000  0.4357240000000  0.4721090000000 1.0
C      1  0.4705530000000  0.4386460000000  0.5261180000000 1.0
C      1  0.4655540000000  0.5621780000000  0.4719250000000 1.0
C      1  0.5276830000000  0.4382990000000  0.5262740000000 1.0
C      1  0.5341700000000  0.5657740000000  0.4697720000000 1.0
C      1  0.5624390000000  0.5550970000000  0.5234880000000 1.0
C      1  0.5616200000000  0.4424780000000  0.4760900000000 1.0
C      1  0.4375000000000  0.5532270000000  0.5232850000000 1.0
C      1  0.4366350000000  0.4413880000000  0.4767100000000 1.0
C      1  0.5586120000000  0.4433890000000  0.5248060000000 1.0
C      1  0.5638970000000  0.5557590000000  0.4745080000000 1.0
C      1  0.4394170000000  0.4423730000000  0.5251580000000 1.0
C      1  0.4365470000000  0.5536400000000  0.4745690000000 1.0
C      1  0.5549410000000  0.4845090000000  0.5628630000000 1.0
C      1  0.5531400000000  0.5126790000000  0.4386840000000 1.0
C      1  0.4447250000000  0.4834190000000  0.5619830000000 1.0
C      1  0.4465530000000  0.5113110000000  0.4385780000000 1.0
C      1  0.5564980000000  0.5158930000000  0.5606910000000 1.0
C      1  0.5601380000000  0.4825850000000  0.4387360000000 1.0
C      1  0.4421900000000  0.5145730000000  0.5608460000000 1.0
C      1  0.4417220000000  0.4806910000000  0.4402960000000 1.0
C      1  0.4050970000000  0.5118000000000  0.5248220000000 1.0
C      1  0.4051460000000  0.4830070000000  0.4763980000000 1.0
C      1  0.5933250000000  0.5130190000000  0.5249590000000 1.0
C      1  0.5942430000000  0.4842180000000  0.4766070000000 1.0
C      1  0.4052620000000  0.4832190000000  0.5252760000000 1.0
C      1  0.4043900000000  0.5115980000000  0.4751920000000 1.0
C      1  0.5933280000000  0.4844470000000  0.5257470000000 1.0
C      1  0.5945940000000  0.5128760000000  0.4757280000000 1.0
C      1  0.4734480000000  0.5566230000000  0.4224470000000 1.0
C      1  0.4722710000000  0.4421970000000  0.5748250000000 1.0
C      1  0.5248940000000  0.5571810000000  0.4218790000000 1.0
C      1  0.5244030000000  0.4422000000000  0.5761190000000 1.0
C      1  0.4725390000000  0.4553200000000  0.4292980000000 1.0
C      1  0.4750120000000  0.5530490000000  0.5761280000000 1.0
C      1  0.5219770000000  0.4562040000000  0.4278420000000 1.0
C      1  0.5265240000000  0.5523260000000  0.5753240000000 1.0
C      1  0.4317140000000  0.4707370000000  0.4678690000000 1.0
C      1  0.4305200000000  0.5252690000000  0.5355020000000 1.0
C      1  0.5686920000000  0.4714170000000  0.4660440000000 1.0
C      1  0.5672600000000  0.5262800000000  0.5343780000000 1.0
C      1  0.4283900000000  0.5258050000000  0.4619110000000 1.0
C      1  0.4311480000000  0.4705610000000  0.5358380000000 1.0
C      1  0.5701850000000  0.5272020000000  0.4630750000000 1.0
C      1  0.5677480000000  0.4713380000000  0.5370770000000 1.0
C      1  0.4793970000000  0.4530960000000  0.4989260000000 1.0
C      1  0.4808680000000  0.5548240000000  0.4983760000000 1.0
C      1  0.5193310000000  0.4532930000000  0.4987970000000 1.0
C      1  0.5310670000000  0.5475840000000  0.4983790000000 1.0
C      1  0.5013810000000  0.5260750000000  0.4130480000000 1.0
C      1  0.5007320000000  0.4760280000000  0.5917890000000 1.0
C      1  0.5002300000000  0.4862680000000  0.4130670000000 1.0
C      1  0.4991130000000  0.5240510000000  0.5820430000000 1.0
C      1  0.5707000000000  0.4358630000000  0.5012480000000 1.0
C      1  0.5736920000000  0.5615150000000  0.4994280000000 1.0
C      1  0.4272680000000  0.4343330000000  0.5017040000000 1.0
C      1  0.4257490000000  0.5593420000000  0.4992240000000 1.0
C      1  0.6035990000000  0.4731040000000  0.5014340000000 1.0
C      1  0.6039210000000  0.5240420000000  0.5005640000000 1.0
C      1  0.3949120000000  0.4720650000000  0.5009390000000 1.0
C      1  0.3952320000000  0.5229390000000  0.5000820000000 1.0
C      1  0.4987350000000  0.5098000000000  0.5522000000000 1.0
C      1  0.4990370000000  0.4972680000000  0.4432180000000 1.0
C      1  0.4922830000000  0.5024990000000  0.6070680000000 1.0
C      1  0.4917860000000  0.5077230000000  0.3879210000000 1.0
C      1  0.4994280000000  0.4289100000000  0.4935120000000 1.0
C      1  0.5067920000000  0.5701150000000  0.4982380000000 1.0
C      1  0.5026500000000  0.5305920000000  0.4979710000000 1.0
C      1  0.4991060000000  0.4784390000000  0.4996080000000 1.0
C      1  0.4974550000000  0.6087720000000  0.4989440000000 1.0
C      1  0.4994220000000  0.3903220000000  0.5019930000000 1.0
C      1  0.4998990000000  0.5044090000000  0.4988830000000 1.0
END
