TITL C-2782225-7408-133 0.00226803760063967 125000 -313.375996248855 0 0 56 (C1) n - 1
REM
REM in /home/nfs/bkarasulu/CARBON/AIRSS/Generating-Clusters/REBO/Higher-Symm/SD-CG/HFTN-CG
REM
REM
REM
REM
REM
REM ./C.cell (12c818d87b63d06a65506943cc24bca4)
REM
REM compiler GCC version 9.2.1 20190827 (Red Hat 9.2.1-1)
REM options -cpp -mtune=generic -march=x86-64 -g -O0 -fpre-include=/usr/include/finclude/math-vector-fortran.h
REM seed 438175369 -1990411240 1949602237 523106971 659894220 -2043150340 2010510770 -1593143778 -719446601 -142399845 1033298077 -410629816 -803548566 1073923012 1773843387 206511703 1737930645 1641505298 -383503224 -1226350092 1804015101 -976104072 2894638 -801315137 41785164 -844892991 -729541843 -138478623 -247389630 -1546658068 284823871 1295758674 1518826386
REM
CELL 1.54180   50.00000   50.00000   50.00000   90.00000   90.00000   90.00000
LATT -1
SFAC C  
C      1  0.5165560000000  0.4362610000000  0.4681700000000 1.0
C      1  0.4625950000000  0.5107350000000  0.4404190000000 1.0
C      1  0.4418910000000  0.4559500000000  0.5162360000000 1.0
C      1  0.5135270000000  0.5632440000000  0.5376300000000 1.0
C      1  0.4892020000000  0.5609580000000  0.4643450000000 1.0
C      1  0.4863590000000  0.4354580000000  0.5395770000000 1.0
C      1  0.4590970000000  0.4859360000000  0.5625440000000 1.0
C      1  0.5354040000000  0.4844530000000  0.4357110000000 1.0
C      1  0.5408680000000  0.5126000000000  0.5603590000000 1.0
C      1  0.4442070000000  0.5408340000000  0.4864090000000 1.0
C      1  0.5589220000000  0.5438020000000  0.5159510000000 1.0
C      1  0.5591530000000  0.4640240000000  0.4832990000000 1.0
C      1  0.4867290000000  0.4392770000000  0.4638960000000 1.0
C      1  0.5405030000000  0.5154420000000  0.4396190000000 1.0
C      1  0.5559370000000  0.4604900000000  0.5144150000000 1.0
C      1  0.4835380000000  0.5648940000000  0.5332810000000 1.0
C      1  0.5189240000000  0.5646330000000  0.4687120000000 1.0
C      1  0.5164520000000  0.4318560000000  0.5368460000000 1.0
C      1  0.5359600000000  0.4818810000000  0.5633630000000 1.0
C      1  0.4632470000000  0.4787750000000  0.4367270000000 1.0
C      1  0.4642120000000  0.5168830000000  0.5645520000000 1.0
C      1  0.5634100000000  0.5419230000000  0.4849720000000 1.0
C      1  0.4411760000000  0.5377990000000  0.5175120000000 1.0
C      1  0.4386580000000  0.4615140000000  0.4853880000000 1.0
C      1  0.5590500000000  0.4849870000000  0.5379060000000 1.0
C      1  0.5381660000000  0.5643590000000  0.4888010000000 1.0
C      1  0.4870160000000  0.5411810000000  0.5576230000000 1.0
C      1  0.5670600000000  0.5177270000000  0.4615650000000 1.0
C      1  0.4393660000000  0.5130680000000  0.5408500000000 1.0
C      1  0.4406670000000  0.4848790000000  0.4614060000000 1.0
C      1  0.5353470000000  0.4333010000000  0.5169350000000 1.0
C      1  0.4663260000000  0.4413120000000  0.4882720000000 1.0
C      1  0.4645410000000  0.5622220000000  0.5131840000000 1.0
C      1  0.4817910000000  0.4583860000000  0.4403210000000 1.0
C      1  0.5131510000000  0.4571990000000  0.5594610000000 1.0
C      1  0.5170360000000  0.5394760000000  0.4455550000000 1.0
C      1  0.4356560000000  0.4818160000000  0.5375290000000 1.0
C      1  0.4689280000000  0.5641270000000  0.4831150000000 1.0
C      1  0.5181570000000  0.5379700000000  0.5600070000000 1.0
C      1  0.4378470000000  0.5160730000000  0.4639910000000 1.0
C      1  0.5640880000000  0.5160880000000  0.5350680000000 1.0
C      1  0.5614110000000  0.4869090000000  0.4582120000000 1.0
C      1  0.4669810000000  0.4329520000000  0.5190880000000 1.0
C      1  0.5367010000000  0.4387320000000  0.4871240000000 1.0
C      1  0.5337290000000  0.5667560000000  0.5187760000000 1.0
C      1  0.5139850000000  0.4589240000000  0.4425210000000 1.0
C      1  0.4820180000000  0.4607790000000  0.5619390000000 1.0
C      1  0.4861320000000  0.5352680000000  0.4421790000000 1.0
C      1  0.5332340000000  0.5290710000000  0.5316250000000 1.0
C      1  0.5315950000000  0.4730840000000  0.4673010000000 1.0
C      1  0.4669590000000  0.4698690000000  0.5337060000000 1.0
C      1  0.4695120000000  0.5266290000000  0.4696940000000 1.0
C      1  0.4689750000000  0.5278080000000  0.5329280000000 1.0
C      1  0.4693150000000  0.4728050000000  0.4754570000000 1.0
C      1  0.5291660000000  0.4694470000000  0.5325940000000 1.0
C      1  0.5364520000000  0.5289330000000  0.4704590000000 1.0
END
