TITL C-2782234-8014-937 -0.00184597908517556 125000 -576.067580691698 0 0 98 (C1) n - 1
REM
REM in /home/nfs/bkarasulu/CARBON/AIRSS/Generating-Clusters/REBO/Higher-Symm/SD-CG/HFTN-CG
REM
REM
REM
REM
REM
REM ./C.cell (12c818d87b63d06a65506943cc24bca4)
REM
REM compiler GCC version 9.2.1 20190827 (Red Hat 9.2.1-1)
REM options -cpp -mtune=generic -march=x86-64 -g -O0 -fpre-include=/usr/include/finclude/math-vector-fortran.h
REM seed 1001276059 -657880968 -1789545872 2146647415 1290833453 -2074684335 1021655135 -1070541650 975894333 398099487 653364296 1987271272 -230098217 -1738763869 1055543134 -1185062766 -1386759062 -454747630 -2138526032 73559249 1627787258 -1406244623 2068763103 1092133701 -1960901664 -648955251 445450276 -1148844187 478441682 471184586 -1632696081 1362882676 -1974170694
REM
CELL 1.54180   50.00000   50.00000   50.00000   90.00000   90.00000   90.00000
LATT -1
SFAC C  
C      1  0.4147270000000  0.4734170000000  0.4758260000000 1.0
C      1  0.4176880000000  0.4900920000000  0.5350030000000 1.0
C      1  0.4208210000000  0.5395630000000  0.4881300000000 1.0
C      1  0.5318310000000  0.5613250000000  0.5185280000000 1.0
C      1  0.5359080000000  0.4826530000000  0.4462770000000 1.0
C      1  0.5323390000000  0.4562540000000  0.5408480000000 1.0
C      1  0.5036680000000  0.5765470000000  0.5588670000000 1.0
C      1  0.5149680000000  0.5160690000000  0.4149360000000 1.0
C      1  0.5046870000000  0.4116400000000  0.5339210000000 1.0
C      1  0.4319030000000  0.5189080000000  0.5357640000000 1.0
C      1  0.4318580000000  0.5215060000000  0.4644120000000 1.0
C      1  0.4313220000000  0.4580590000000  0.4979690000000 1.0
C      1  0.4543200000000  0.4800200000000  0.5035980000000 1.0
C      1  0.4544440000000  0.5115340000000  0.5142070000000 1.0
C      1  0.4536310000000  0.5047410000000  0.4821500000000 1.0
C      1  0.5262300000000  0.5012520000000  0.5774040000000 1.0
C      1  0.5284830000000  0.5709950000000  0.4598430000000 1.0
C      1  0.5256000000000  0.4324810000000  0.4594100000000 1.0
C      1  0.5781190000000  0.4691890000000  0.5041750000000 1.0
C      1  0.5782410000000  0.5195320000000  0.5255410000000 1.0
C      1  0.5772240000000  0.5139670000000  0.4709670000000 1.0
C      1  0.5537570000000  0.5746150000000  0.4750120000000 1.0
C      1  0.5507670000000  0.4374910000000  0.4423320000000 1.0
C      1  0.5521090000000  0.4847120000000  0.5766260000000 1.0
C      1  0.4629450000000  0.4489890000000  0.5410980000000 1.0
C      1  0.4641240000000  0.5615240000000  0.5204160000000 1.0
C      1  0.4591240000000  0.4868580000000  0.4372930000000 1.0
C      1  0.5792250000000  0.4896490000000  0.5278990000000 1.0
C      1  0.5767630000000  0.5289520000000  0.4958070000000 1.0
C      1  0.5786010000000  0.4832870000000  0.4774510000000 1.0
C      1  0.5051970000000  0.4876830000000  0.5975090000000 1.0
C      1  0.5080670000000  0.5948920000000  0.4630480000000 1.0
C      1  0.5032150000000  0.4229630000000  0.4419800000000 1.0
C      1  0.5541310000000  0.4611630000000  0.4342060000000 1.0
C      1  0.5544790000000  0.4642220000000  0.5623590000000 1.0
C      1  0.5554110000000  0.5718970000000  0.4999690000000 1.0
C      1  0.5573470000000  0.5309200000000  0.5430910000000 1.0
C      1  0.5545380000000  0.5196620000000  0.4525500000000 1.0
C      1  0.5551010000000  0.4502210000000  0.5059550000000 1.0
C      1  0.5534190000000  0.5397350000000  0.5697000000000 1.0
C      1  0.5381110000000  0.5311510000000  0.4287840000000 1.0
C      1  0.5530230000000  0.4226580000000  0.4985070000000 1.0
C      1  0.5490580000000  0.4832510000000  0.5276300000000 1.0
C      1  0.5467500000000  0.5331260000000  0.5050220000000 1.0
C      1  0.5474890000000  0.4880780000000  0.4767510000000 1.0
C      1  0.4611090000000  0.5590190000000  0.4644810000000 1.0
C      1  0.4476130000000  0.4364900000000  0.4579970000000 1.0
C      1  0.4574830000000  0.4972410000000  0.5680550000000 1.0
C      1  0.4826420000000  0.4682370000000  0.5120890000000 1.0
C      1  0.4828740000000  0.5249410000000  0.5194870000000 1.0
C      1  0.4807870000000  0.5026660000000  0.4669480000000 1.0
C      1  0.4875180000000  0.4965050000000  0.5697690000000 1.0
C      1  0.4896050000000  0.5663840000000  0.4669880000000 1.0
C      1  0.4733760000000  0.4297050000000  0.4501690000000 1.0
C      1  0.5080120000000  0.5403950000000  0.5067110000000 1.0
C      1  0.5092410000000  0.4905110000000  0.4659340000000 1.0
C      1  0.5100250000000  0.4772410000000  0.5262020000000 1.0
C      1  0.4587370000000  0.4172490000000  0.5013750000000 1.0
C      1  0.4591950000000  0.5446760000000  0.5674360000000 1.0
C      1  0.4584660000000  0.5353630000000  0.4185600000000 1.0
C      1  0.4872590000000  0.4755970000000  0.4270110000000 1.0
C      1  0.4874240000000  0.4454090000000  0.5612810000000 1.0
C      1  0.4867750000000  0.5831280000000  0.5155150000000 1.0
C      1  0.4881530000000  0.5307980000000  0.4046420000000 1.0
C      1  0.4799440000000  0.3977690000000  0.5157110000000 1.0
C      1  0.4791590000000  0.5663150000000  0.5782600000000 1.0
C      1  0.5104970000000  0.4342150000000  0.5492680000000 1.0
C      1  0.5095490000000  0.5795680000000  0.5319160000000 1.0
C      1  0.5113980000000  0.4903590000000  0.4260990000000 1.0
C      1  0.4906830000000  0.5909600000000  0.4894470000000 1.0
C      1  0.4885340000000  0.4477290000000  0.4283480000000 1.0
C      1  0.4904400000000  0.4648510000000  0.5804270000000 1.0
C      1  0.4323700000000  0.4600950000000  0.5300930000000 1.0
C      1  0.4339660000000  0.5453930000000  0.5188280000000 1.0
C      1  0.4293140000000  0.4923550000000  0.4531070000000 1.0
C      1  0.4808990000000  0.4373590000000  0.5147120000000 1.0
C      1  0.4825970000000  0.5458330000000  0.5443490000000 1.0
C      1  0.4761100000000  0.5152720000000  0.4392610000000 1.0
C      1  0.5181770000000  0.4609830000000  0.4748280000000 1.0
C      1  0.5115950000000  0.5018030000000  0.5463350000000 1.0
C      1  0.5105390000000  0.5431880000000  0.4758450000000 1.0
C      1  0.4471680000000  0.4741970000000  0.5565040000000 1.0
C      1  0.4470780000000  0.5600970000000  0.4910590000000 1.0
C      1  0.4394840000000  0.4609700000000  0.4471100000000 1.0
C      1  0.4445390000000  0.5215240000000  0.5631010000000 1.0
C      1  0.4471820000000  0.5418600000000  0.4461360000000 1.0
C      1  0.4412750000000  0.4321320000000  0.4855330000000 1.0
C      1  0.5252960000000  0.5189150000000  0.4645680000000 1.0
C      1  0.5279860000000  0.4617710000000  0.5017390000000 1.0
C      1  0.5261660000000  0.5240700000000  0.5310400000000 1.0
C      1  0.5201550000000  0.5521280000000  0.4381270000000 1.0
C      1  0.5293130000000  0.4168360000000  0.4854590000000 1.0
C      1  0.5290720000000  0.5315190000000  0.5796660000000 1.0
C      1  0.5053210000000  0.5455780000000  0.5701400000000 1.0
C      1  0.4937810000000  0.5440300000000  0.4341080000000 1.0
C      1  0.5048530000000  0.4165950000000  0.5014430000000 1.0
C      1  0.4891910000000  0.4988270000000  0.4994340000000 1.0
C      1  0.5401490000000  0.4997470000000  0.5027450000000 1.0
END
