TITL C-2782230-7391-818 -0.00118528065054252 125000 -911.06818733624 0 0 159 (C1) n - 1
REM
REM in /home/nfs/bkarasulu/CARBON/AIRSS/Generating-Clusters/REBO/Higher-Symm/SD-CG/HFTN-CG
REM
REM
REM
REM
REM
REM ./C.cell (12c818d87b63d06a65506943cc24bca4)
REM
REM compiler GCC version 9.2.1 20190827 (Red Hat 9.2.1-1)
REM options -cpp -mtune=generic -march=x86-64 -g -O0 -fpre-include=/usr/include/finclude/math-vector-fortran.h
REM seed -672091851 -1829940318 2143487829 1753376820 1398333104 -1626553379 -520595897 -1820159336 -1439463292 -1140554852 176608794 -1096446541 1773165731 -1395845400 1746502721 1418810840 354047766 -786456659 1630739684 352988384 1979699387 1880779809 978843722 1055797821 465211073 1349126286 -204744672 951974092 1568800737 -356144070 -695878916 1951229986 1271337665
REM
CELL 1.54180   50.00000   50.00000   50.00000   90.00000   90.00000   90.00000
LATT -1
SFAC C  
C      1  0.3914840000000  0.5138160000000  0.4762770000000 1.0
C      1  0.6014610000000  0.4791010000000  0.4814250000000 1.0
C      1  0.3981690000000  0.5157980000000  0.5259890000000 1.0
C      1  0.6051630000000  0.4809980000000  0.5204240000000 1.0
C      1  0.6151840000000  0.5266960000000  0.4716340000000 1.0
C      1  0.3993910000000  0.4653560000000  0.4819420000000 1.0
C      1  0.6101150000000  0.5347480000000  0.5187020000000 1.0
C      1  0.3911660000000  0.4635840000000  0.5207990000000 1.0
C      1  0.5369370000000  0.4912560000000  0.4576110000000 1.0
C      1  0.4603270000000  0.5205430000000  0.4598860000000 1.0
C      1  0.5373450000000  0.4849220000000  0.5413630000000 1.0
C      1  0.4724140000000  0.5206620000000  0.5489290000000 1.0
C      1  0.4701980000000  0.4941750000000  0.4616330000000 1.0
C      1  0.5488560000000  0.5227720000000  0.4519880000000 1.0
C      1  0.4525260000000  0.4721550000000  0.5409290000000 1.0
C      1  0.5314140000000  0.5182230000000  0.5411000000000 1.0
C      1  0.4813200000000  0.4505810000000  0.4775220000000 1.0
C      1  0.5151070000000  0.5486100000000  0.4766010000000 1.0
C      1  0.4808070000000  0.4651230000000  0.5293460000000 1.0
C      1  0.5125720000000  0.5488390000000  0.5235990000000 1.0
C      1  0.5145310000000  0.4527990000000  0.4833810000000 1.0
C      1  0.4835240000000  0.5516360000000  0.4783460000000 1.0
C      1  0.5105380000000  0.4669500000000  0.5382100000000 1.0
C      1  0.4788860000000  0.5534980000000  0.5205710000000 1.0
C      1  0.5406290000000  0.5460050000000  0.4206300000000 1.0
C      1  0.4677190000000  0.4513400000000  0.4186920000000 1.0
C      1  0.5398960000000  0.5485270000000  0.5778700000000 1.0
C      1  0.4674160000000  0.4525310000000  0.5787120000000 1.0
C      1  0.4678900000000  0.5483490000000  0.4184130000000 1.0
C      1  0.5370210000000  0.4487700000000  0.4287130000000 1.0
C      1  0.4599160000000  0.5506770000000  0.5812390000000 1.0
C      1  0.5382380000000  0.4518990000000  0.5765520000000 1.0
C      1  0.5754390000000  0.5114980000000  0.4219620000000 1.0
C      1  0.4290940000000  0.4842420000000  0.4244030000000 1.0
C      1  0.5800540000000  0.5157730000000  0.5786280000000 1.0
C      1  0.4286810000000  0.4816700000000  0.5817800000000 1.0
C      1  0.4288040000000  0.5169420000000  0.4225760000000 1.0
C      1  0.5738720000000  0.4798530000000  0.4246200000000 1.0
C      1  0.4241390000000  0.5133920000000  0.5816240000000 1.0
C      1  0.5801070000000  0.4835390000000  0.5769350000000 1.0
C      1  0.5467390000000  0.4726920000000  0.4177030000000 1.0
C      1  0.4557020000000  0.5237840000000  0.4116040000000 1.0
C      1  0.5524710000000  0.4760290000000  0.5799600000000 1.0
C      1  0.4497280000000  0.5257760000000  0.5847140000000 1.0
C      1  0.4558840000000  0.4765170000000  0.4147210000000 1.0
C      1  0.5497130000000  0.5203860000000  0.4121240000000 1.0
C      1  0.4565960000000  0.4766480000000  0.5830390000000 1.0
C      1  0.5527310000000  0.5238390000000  0.5827150000000 1.0
C      1  0.5177810000000  0.5454020000000  0.5548880000000 1.0
C      1  0.4748200000000  0.4409190000000  0.5515700000000 1.0
C      1  0.5244140000000  0.5435760000000  0.4496040000000 1.0
C      1  0.4753640000000  0.4443290000000  0.4441260000000 1.0
C      1  0.4782720000000  0.5533640000000  0.5547750000000 1.0
C      1  0.5116880000000  0.4569240000000  0.5679810000000 1.0
C      1  0.4716950000000  0.5501080000000  0.4484570000000 1.0
C      1  0.5131520000000  0.4539290000000  0.4508130000000 1.0
C      1  0.4365860000000  0.5401890000000  0.4639420000000 1.0
C      1  0.5548910000000  0.4623040000000  0.4613100000000 1.0
C      1  0.4430010000000  0.5377900000000  0.5464900000000 1.0
C      1  0.5582010000000  0.4601280000000  0.5397640000000 1.0
C      1  0.5680380000000  0.5460620000000  0.4555480000000 1.0
C      1  0.4522670000000  0.4699460000000  0.4621350000000 1.0
C      1  0.5553060000000  0.5414760000000  0.5416470000000 1.0
C      1  0.4360940000000  0.4503530000000  0.5482130000000 1.0
C      1  0.4493990000000  0.4211920000000  0.5404370000000 1.0
C      1  0.5463270000000  0.5700020000000  0.5414900000000 1.0
C      1  0.4501000000000  0.4332870000000  0.4598630000000 1.0
C      1  0.5552220000000  0.5737370000000  0.4588950000000 1.0
C      1  0.5480830000000  0.4341730000000  0.5345240000000 1.0
C      1  0.4503190000000  0.5709720000000  0.5460800000000 1.0
C      1  0.5447300000000  0.4301800000000  0.4539490000000 1.0
C      1  0.4493870000000  0.5716780000000  0.4619140000000 1.0
C      1  0.4184950000000  0.5316420000000  0.5366060000000 1.0
C      1  0.5846390000000  0.4654200000000  0.5308310000000 1.0
C      1  0.4101600000000  0.5336280000000  0.4706240000000 1.0
C      1  0.5801490000000  0.4630360000000  0.4731200000000 1.0
C      1  0.5819650000000  0.5384700000000  0.5370730000000 1.0
C      1  0.4091050000000  0.4538020000000  0.5466060000000 1.0
C      1  0.5953520000000  0.5446200000000  0.4631540000000 1.0
C      1  0.4251660000000  0.4640290000000  0.4648500000000 1.0
C      1  0.5300990000000  0.5847790000000  0.4572910000000 1.0
C      1  0.4718320000000  0.4077970000000  0.4592770000000 1.0
C      1  0.5219080000000  0.5830520000000  0.5420840000000 1.0
C      1  0.4766260000000  0.4038040000000  0.5378180000000 1.0
C      1  0.4781790000000  0.5887530000000  0.4558370000000 1.0
C      1  0.5207380000000  0.4117320000000  0.4585300000000 1.0
C      1  0.4756930000000  0.5929930000000  0.5516530000000 1.0
C      1  0.5245780000000  0.4185690000000  0.5376300000000 1.0
C      1  0.4283890000000  0.4281080000000  0.4817990000000 1.0
C      1  0.5731030000000  0.5732260000000  0.4844640000000 1.0
C      1  0.4334820000000  0.4282720000000  0.5150480000000 1.0
C      1  0.5668190000000  0.5718240000000  0.5182730000000 1.0
C      1  0.5643280000000  0.4267500000000  0.4775340000000 1.0
C      1  0.4371500000000  0.5759610000000  0.4887790000000 1.0
C      1  0.5645680000000  0.4228040000000  0.5111290000000 1.0
C      1  0.4319050000000  0.5795430000000  0.5225470000000 1.0
C      1  0.4752990000000  0.5877880000000  0.5197880000000 1.0
C      1  0.5196200000000  0.3998810000000  0.5152230000000 1.0
C      1  0.4772000000000  0.5825950000000  0.4884720000000 1.0
C      1  0.5137750000000  0.4019600000000  0.4847090000000 1.0
C      1  0.5075330000000  0.5805920000000  0.5141910000000 1.0
C      1  0.4884640000000  0.3929500000000  0.5141030000000 1.0
C      1  0.5110370000000  0.5801440000000  0.4831660000000 1.0
C      1  0.4819830000000  0.3976700000000  0.4843580000000 1.0
C      1  0.5523140000000  0.4793320000000  0.5047050000000 1.0
C      1  0.5536940000000  0.5191610000000  0.5024590000000 1.0
C      1  0.4438320000000  0.5200000000000  0.5038850000000 1.0
C      1  0.4463850000000  0.4804810000000  0.5011670000000 1.0
C      1  0.4905570000000  0.4838770000000  0.6110590000000 1.0
C      1  0.4998540000000  0.5263430000000  0.4004030000000 1.0
C      1  0.4931230000000  0.5323710000000  0.6076750000000 1.0
C      1  0.5010390000000  0.4772000000000  0.3988640000000 1.0
C      1  0.5870820000000  0.4076470000000  0.4906270000000 1.0
C      1  0.4175280000000  0.5989720000000  0.5012080000000 1.0
C      1  0.5972080000000  0.5613140000000  0.5060950000000 1.0
C      1  0.4038500000000  0.4397990000000  0.5023940000000 1.0
C      1  0.5610270000000  0.4974570000000  0.4792280000000 1.0
C      1  0.4388920000000  0.4980870000000  0.5293150000000 1.0
C      1  0.4314690000000  0.5008480000000  0.4790410000000 1.0
C      1  0.5641780000000  0.4996640000000  0.5284580000000 1.0
C      1  0.4989150000000  0.4762440000000  0.5851370000000 1.0
C      1  0.5018340000000  0.5348920000000  0.5822690000000 1.0
C      1  0.5035840000000  0.5336490000000  0.4284640000000 1.0
C      1  0.5025640000000  0.4683680000000  0.4275480000000 1.0
C      1  0.6136170000000  0.5079210000000  0.5371790000000 1.0
C      1  0.3903380000000  0.4887140000000  0.5418280000000 1.0
C      1  0.6111510000000  0.4996140000000  0.4600490000000 1.0
C      1  0.3817330000000  0.4877750000000  0.4654190000000 1.0
C      1  0.4758320000000  0.5271170000000  0.4979550000000 1.0
C      1  0.4798170000000  0.4764490000000  0.4999570000000 1.0
C      1  0.5236770000000  0.5286330000000  0.5007630000000 1.0
C      1  0.5197760000000  0.4759880000000  0.5067520000000 1.0
C      1  0.4703250000000  0.5028150000000  0.5766850000000 1.0
C      1  0.5314270000000  0.4976840000000  0.4148050000000 1.0
C      1  0.5362090000000  0.5003930000000  0.5781980000000 1.0
C      1  0.4721230000000  0.5002740000000  0.4139210000000 1.0
C      1  0.4185030000000  0.4954580000000  0.5535830000000 1.0
C      1  0.5861420000000  0.5008050000000  0.5494000000000 1.0
C      1  0.4258860000000  0.5018580000000  0.4521950000000 1.0
C      1  0.5807860000000  0.4972070000000  0.4523910000000 1.0
C      1  0.4995020000000  0.4202950000000  0.5517280000000 1.0
C      1  0.5030510000000  0.5911940000000  0.4455670000000 1.0
C      1  0.5018340000000  0.5920220000000  0.5609270000000 1.0
C      1  0.4963050000000  0.4104880000000  0.4425060000000 1.0
C      1  0.5453300000000  0.4472900000000  0.4968780000000 1.0
C      1  0.4464980000000  0.5517190000000  0.5093740000000 1.0
C      1  0.4523590000000  0.4485190000000  0.4958520000000 1.0
C      1  0.5691330000000  0.5430260000000  0.4995610000000 1.0
C      1  0.4784690000000  0.5116420000000  0.6494800000000 1.0
C      1  0.4978650000000  0.5030300000000  0.3576890000000 1.0
C      1  0.5014700000000  0.5008320000000  0.4311190000000 1.0
C      1  0.5042190000000  0.5047480000000  0.5671080000000 1.0
C      1  0.5040640000000  0.4960730000000  0.4652060000000 1.0
C      1  0.4998340000000  0.5082730000000  0.5332630000000 1.0
C      1  0.6116840000000  0.5069310000000  0.4991130000000 1.0
C      1  0.3944020000000  0.4924540000000  0.5026930000000 1.0
C      1  0.4870420000000  0.5093990000000  0.6237630000000 1.0
C      1  0.4995380000000  0.5022230000000  0.3848670000000 1.0
C      1  0.5005030000000  0.5034960000000  0.4989230000000 1.0
END
