TITL C-2782230-7391-1041 0.00245566443801603 125000 -324.718067993919 0 0 55 (C1) n - 1
REM
REM in /home/nfs/bkarasulu/CARBON/AIRSS/Generating-Clusters/REBO/Higher-Symm/SD-CG/HFTN-CG
REM
REM
REM
REM
REM
REM ./C.cell (12c818d87b63d06a65506943cc24bca4)
REM
REM compiler GCC version 9.2.1 20190827 (Red Hat 9.2.1-1)
REM options -cpp -mtune=generic -march=x86-64 -g -O0 -fpre-include=/usr/include/finclude/math-vector-fortran.h
REM seed 542827770 758715321 904046976 -1554942034 -2065256667 -1356233230 -1669360224 -1699575526 1111017610 -915642200 -1834761918 -1417891631 148477314 -115364193 -421760989 -209508590 2051591832 1466322487 -348246723 1307328368 -1742699566 1175035105 -1160789094 1857025154 1126703318 393705099 957803269 1263843613 -1378833405 606328568 1697369258 1725659517 -1491328871
REM
CELL 1.54180   50.00000   50.00000   50.00000   90.00000   90.00000   90.00000
LATT -1
SFAC C  
C      1  0.5290240000000  0.5202360000000  0.5597820000000 1.0
C      1  0.5603800000000  0.5289340000000  0.5215270000000 1.0
C      1  0.5194140000000  0.5606060000000  0.5312180000000 1.0
C      1  0.4663430000000  0.5184540000000  0.4380810000000 1.0
C      1  0.5312320000000  0.4782870000000  0.4377580000000 1.0
C      1  0.4689390000000  0.4807720000000  0.5589130000000 1.0
C      1  0.4378820000000  0.5317780000000  0.4807670000000 1.0
C      1  0.5622080000000  0.4676980000000  0.4795000000000 1.0
C      1  0.4402380000000  0.4686270000000  0.5189120000000 1.0
C      1  0.4782920000000  0.5596700000000  0.4694770000000 1.0
C      1  0.5219610000000  0.4379800000000  0.4677590000000 1.0
C      1  0.4815830000000  0.4423890000000  0.5285790000000 1.0
C      1  0.4437030000000  0.5147240000000  0.4554820000000 1.0
C      1  0.4610670000000  0.4510880000000  0.5098190000000 1.0
C      1  0.5144060000000  0.4569630000000  0.4476680000000 1.0
C      1  0.5487830000000  0.5109080000000  0.5409560000000 1.0
C      1  0.4483330000000  0.4869830000000  0.5403380000000 1.0
C      1  0.5536460000000  0.4850200000000  0.4551570000000 1.0
C      1  0.5438600000000  0.4466320000000  0.4848630000000 1.0
C      1  0.4587530000000  0.5495750000000  0.4880430000000 1.0
C      1  0.5440380000000  0.5519680000000  0.5149300000000 1.0
C      1  0.4877610000000  0.4605470000000  0.5496070000000 1.0
C      1  0.5118200000000  0.5413960000000  0.5507870000000 1.0
C      1  0.4834400000000  0.5430240000000  0.4462820000000 1.0
C      1  0.5509090000000  0.5060450000000  0.4771290000000 1.0
C      1  0.4726800000000  0.5454600000000  0.5179100000000 1.0
C      1  0.5156490000000  0.4759340000000  0.5476630000000 1.0
C      1  0.4516400000000  0.5146460000000  0.5260720000000 1.0
C      1  0.5413990000000  0.4810730000000  0.5257380000000 1.0
C      1  0.4469960000000  0.4931340000000  0.4764210000000 1.0
C      1  0.5232770000000  0.5508130000000  0.4926500000000 1.0
C      1  0.4753720000000  0.4527540000000  0.4796890000000 1.0
C      1  0.5279550000000  0.4534810000000  0.5105250000000 1.0
C      1  0.4860300000000  0.4705280000000  0.4540800000000 1.0
C      1  0.5050510000000  0.5218370000000  0.4475330000000 1.0
C      1  0.4820440000000  0.5283480000000  0.5446560000000 1.0
C      1  0.4261790000000  0.4842070000000  0.4982460000000 1.0
C      1  0.4992350000000  0.4304010000000  0.4844300000000 1.0
C      1  0.4815260000000  0.4945960000000  0.4303210000000 1.0
C      1  0.5684300000000  0.4824560000000  0.5041130000000 1.0
C      1  0.4282610000000  0.5159970000000  0.5032560000000 1.0
C      1  0.5721210000000  0.5132910000000  0.4997670000000 1.0
C      1  0.5041000000000  0.4308030000000  0.5144510000000 1.0
C      1  0.4965340000000  0.5696350000000  0.5155960000000 1.0
C      1  0.5003740000000  0.5715340000000  0.4845060000000 1.0
C      1  0.5125230000000  0.4988520000000  0.5699440000000 1.0
C      1  0.4832040000000  0.5043340000000  0.5685630000000 1.0
C      1  0.5137750000000  0.4993430000000  0.4267670000000 1.0
C      1  0.4987470000000  0.4672580000000  0.4997480000000 1.0
C      1  0.4993450000000  0.5016730000000  0.5323540000000 1.0
C      1  0.4984620000000  0.4990820000000  0.4660050000000 1.0
C      1  0.4980060000000  0.5339710000000  0.4980430000000 1.0
C      1  0.4652540000000  0.5016800000000  0.4990830000000 1.0
C      1  0.5310390000000  0.4997160000000  0.4987860000000 1.0
C      1  0.4982720000000  0.5008150000000  0.4986570000000 1.0
END
