TITL C-2782227-3064-871 0.00359019352976099 125000 -1038.55393055065 0 0 177 (C1) n - 1
REM
REM in /home/nfs/bkarasulu/CARBON/AIRSS/Generating-Clusters/REBO/Higher-Symm/SD-CG/HFTN-CG
REM
REM
REM
REM
REM
REM ./C.cell (12c818d87b63d06a65506943cc24bca4)
REM
REM compiler GCC version 9.2.1 20190827 (Red Hat 9.2.1-1)
REM options -cpp -mtune=generic -march=x86-64 -g -O0 -fpre-include=/usr/include/finclude/math-vector-fortran.h
REM seed -548945161 652440736 -2096850439 -1560113273 382932686 2003740558 -1608011490 2036481504 262249011 563118502 799300511 1896312592 -1872040558 414777688 -1040177662 1034860112 202286649 72614675 -452679431 -2062785953 -278642657 1920122430 -283135657 -812905366 -628671964 1734921375 1806827264 237067418 -1327567178 762990435 1085936846 -1205392401 1394976840
REM
CELL 1.54180   50.00000   50.00000   50.00000   90.00000   90.00000   90.00000
LATT -1
SFAC C  
C      1  0.4397370000000  0.4359250000000  0.4353950000000 1.0
C      1  0.5522300000000  0.5637790000000  0.4301230000000 1.0
C      1  0.5685300000000  0.4390590000000  0.4339500000000 1.0
C      1  0.4401150000000  0.5621610000000  0.4290640000000 1.0
C      1  0.5350250000000  0.4932410000000  0.4510570000000 1.0
C      1  0.4908470000000  0.5132330000000  0.4306790000000 1.0
C      1  0.4782010000000  0.4901910000000  0.4319730000000 1.0
C      1  0.5203230000000  0.5203080000000  0.4420710000000 1.0
C      1  0.5179210000000  0.5972870000000  0.5514360000000 1.0
C      1  0.4877120000000  0.4024180000000  0.5472080000000 1.0
C      1  0.4853250000000  0.6043780000000  0.5459190000000 1.0
C      1  0.5204170000000  0.4013250000000  0.5481710000000 1.0
C      1  0.5379280000000  0.5477630000000  0.5443870000000 1.0
C      1  0.4546400000000  0.4417830000000  0.5456390000000 1.0
C      1  0.4622800000000  0.5583590000000  0.5484830000000 1.0
C      1  0.5363330000000  0.4485120000000  0.5464790000000 1.0
C      1  0.5475380000000  0.4854290000000  0.6078030000000 1.0
C      1  0.4604820000000  0.5158410000000  0.6035990000000 1.0
C      1  0.4562400000000  0.4878980000000  0.6053580000000 1.0
C      1  0.5498900000000  0.5133180000000  0.6081730000000 1.0
C      1  0.5167520000000  0.4724010000000  0.6092730000000 1.0
C      1  0.4898020000000  0.5317070000000  0.6047010000000 1.0
C      1  0.4829810000000  0.4676930000000  0.6111330000000 1.0
C      1  0.5226050000000  0.5302710000000  0.6140450000000 1.0
C      1  0.4889550000000  0.4776720000000  0.4870250000000 1.0
C      1  0.5154770000000  0.5190110000000  0.4745400000000 1.0
C      1  0.5178950000000  0.4857560000000  0.4771190000000 1.0
C      1  0.4876200000000  0.5278970000000  0.4871240000000 1.0
C      1  0.4458370000000  0.4604400000000  0.4195950000000 1.0
C      1  0.5452550000000  0.5392650000000  0.4172150000000 1.0
C      1  0.5588660000000  0.4608880000000  0.4180620000000 1.0
C      1  0.4527940000000  0.5386520000000  0.4180040000000 1.0
C      1  0.5328400000000  0.5945510000000  0.4945300000000 1.0
C      1  0.4639910000000  0.4013380000000  0.4870930000000 1.0
C      1  0.4689880000000  0.5954070000000  0.4833770000000 1.0
C      1  0.5287820000000  0.4069440000000  0.4892850000000 1.0
C      1  0.4216730000000  0.4333570000000  0.4579680000000 1.0
C      1  0.5706580000000  0.5664860000000  0.4520390000000 1.0
C      1  0.5842200000000  0.4411970000000  0.4601440000000 1.0
C      1  0.4266430000000  0.5628740000000  0.4548440000000 1.0
C      1  0.5186030000000  0.5590340000000  0.4802880000000 1.0
C      1  0.4784030000000  0.4465710000000  0.4648030000000 1.0
C      1  0.4865550000000  0.5624360000000  0.4694380000000 1.0
C      1  0.5127120000000  0.4477240000000  0.4660710000000 1.0
C      1  0.4810030000000  0.4312070000000  0.5608060000000 1.0
C      1  0.5165130000000  0.5666710000000  0.5628390000000 1.0
C      1  0.5136990000000  0.4295140000000  0.5606720000000 1.0
C      1  0.4854640000000  0.5761180000000  0.5603920000000 1.0
C      1  0.5074930000000  0.4467410000000  0.5153950000000 1.0
C      1  0.4860930000000  0.5355270000000  0.5261030000000 1.0
C      1  0.4810430000000  0.4552610000000  0.5190650000000 1.0
C      1  0.5155260000000  0.5359400000000  0.5137740000000 1.0
C      1  0.4614430000000  0.4882270000000  0.4915210000000 1.0
C      1  0.5371590000000  0.5134080000000  0.4985800000000 1.0
C      1  0.5388350000000  0.4804350000000  0.4992650000000 1.0
C      1  0.4606650000000  0.5183550000000  0.4949970000000 1.0
C      1  0.5129990000000  0.5965510000000  0.5183100000000 1.0
C      1  0.4784830000000  0.3980480000000  0.5147180000000 1.0
C      1  0.4806460000000  0.6002360000000  0.5124750000000 1.0
C      1  0.5116980000000  0.3991270000000  0.5154940000000 1.0
C      1  0.4578270000000  0.5531350000000  0.5773220000000 1.0
C      1  0.5415200000000  0.4507600000000  0.5783580000000 1.0
C      1  0.5481200000000  0.5484320000000  0.5768460000000 1.0
C      1  0.4489380000000  0.4475110000000  0.5769710000000 1.0
C      1  0.4163460000000  0.4853230000000  0.5561200000000 1.0
C      1  0.5748940000000  0.5128430000000  0.5617440000000 1.0
C      1  0.5739160000000  0.4826960000000  0.5618390000000 1.0
C      1  0.4258920000000  0.5177210000000  0.5628600000000 1.0
C      1  0.5157270000000  0.5369000000000  0.4053510000000 1.0
C      1  0.4727070000000  0.4583210000000  0.4073170000000 1.0
C      1  0.4801660000000  0.5405830000000  0.4039810000000 1.0
C      1  0.5288760000000  0.4565940000000  0.4139570000000 1.0
C      1  0.4808760000000  0.5882230000000  0.4282810000000 1.0
C      1  0.5154580000000  0.4293460000000  0.4299810000000 1.0
C      1  0.5002140000000  0.5658880000000  0.4147580000000 1.0
C      1  0.4853850000000  0.4346450000000  0.4196510000000 1.0
C      1  0.5204430000000  0.5201300000000  0.5822010000000 1.0
C      1  0.4884350000000  0.4816800000000  0.5827190000000 1.0
C      1  0.4890330000000  0.5136610000000  0.5757650000000 1.0
C      1  0.5197970000000  0.4884840000000  0.5793580000000 1.0
C      1  0.4487460000000  0.5054580000000  0.5445700000000 1.0
C      1  0.5347540000000  0.4812530000000  0.5534450000000 1.0
C      1  0.5356300000000  0.5156320000000  0.5547110000000 1.0
C      1  0.4639930000000  0.4818790000000  0.5635680000000 1.0
C      1  0.5484870000000  0.5447190000000  0.4770240000000 1.0
C      1  0.4505140000000  0.4524210000000  0.4778490000000 1.0
C      1  0.4594390000000  0.5417940000000  0.4630680000000 1.0
C      1  0.5366530000000  0.4500280000000  0.4841940000000 1.0
C      1  0.4021960000000  0.5283460000000  0.4880270000000 1.0
C      1  0.6110850000000  0.4732360000000  0.4928300000000 1.0
C      1  0.6081210000000  0.5324250000000  0.4905220000000 1.0
C      1  0.3907880000000  0.4708080000000  0.4971750000000 1.0
C      1  0.4768290000000  0.4409950000000  0.5928730000000 1.0
C      1  0.5208790000000  0.5578820000000  0.5948980000000 1.0
C      1  0.5107240000000  0.4440470000000  0.5913920000000 1.0
C      1  0.4873440000000  0.5624630000000  0.5914240000000 1.0
C      1  0.4049560000000  0.4431750000000  0.4831450000000 1.0
C      1  0.5901000000000  0.5571850000000  0.4757330000000 1.0
C      1  0.5921250000000  0.4515720000000  0.4849170000000 1.0
C      1  0.4119800000000  0.5554220000000  0.4812840000000 1.0
C      1  0.5130630000000  0.4760540000000  0.5295330000000 1.0
C      1  0.4794890000000  0.5146590000000  0.5470340000000 1.0
C      1  0.4802090000000  0.4825450000000  0.5355890000000 1.0
C      1  0.5154930000000  0.5081660000000  0.5313040000000 1.0
C      1  0.5639500000000  0.5885170000000  0.5083220000000 1.0
C      1  0.4390730000000  0.4059900000000  0.5104420000000 1.0
C      1  0.4436110000000  0.5874260000000  0.5048810000000 1.0
C      1  0.5603400000000  0.4152940000000  0.4996940000000 1.0
C      1  0.5644450000000  0.5256130000000  0.4609090000000 1.0
C      1  0.4341040000000  0.4790200000000  0.4641070000000 1.0
C      1  0.4417170000000  0.5128830000000  0.4602410000000 1.0
C      1  0.5684700000000  0.4918560000000  0.4575120000000 1.0
C      1  0.5808300000000  0.5339490000000  0.5403720000000 1.0
C      1  0.4139440000000  0.4557020000000  0.5389130000000 1.0
C      1  0.4191100000000  0.5405080000000  0.5385000000000 1.0
C      1  0.5805980000000  0.4598070000000  0.5374390000000 1.0
C      1  0.4548690000000  0.5951270000000  0.5348540000000 1.0
C      1  0.5439390000000  0.4065270000000  0.5266590000000 1.0
C      1  0.5428010000000  0.5855350000000  0.5327960000000 1.0
C      1  0.4547890000000  0.4024460000000  0.5392250000000 1.0
C      1  0.4235590000000  0.4514650000000  0.5076460000000 1.0
C      1  0.5763210000000  0.5509480000000  0.5045690000000 1.0
C      1  0.5698760000000  0.4564230000000  0.5052890000000 1.0
C      1  0.4297720000000  0.5500750000000  0.5071830000000 1.0
C      1  0.4378350000000  0.5072580000000  0.5173210000000 1.0
C      1  0.5667960000000  0.4895110000000  0.5125230000000 1.0
C      1  0.5669300000000  0.5202850000000  0.5054730000000 1.0
C      1  0.4364630000000  0.4788580000000  0.5037760000000 1.0
C      1  0.4447960000000  0.5136450000000  0.4274140000000 1.0
C      1  0.5645700000000  0.4873290000000  0.4249590000000 1.0
C      1  0.5579840000000  0.5173500000000  0.4289470000000 1.0
C      1  0.4388200000000  0.4844460000000  0.4325710000000 1.0
C      1  0.5183620000000  0.5889250000000  0.4642330000000 1.0
C      1  0.4797040000000  0.4124660000000  0.4638440000000 1.0
C      1  0.4873670000000  0.5937650000000  0.4580770000000 1.0
C      1  0.5117660000000  0.4156380000000  0.4615380000000 1.0
C      1  0.4868900000000  0.4797470000000  0.3943930000000 1.0
C      1  0.5166930000000  0.5059540000000  0.3918250000000 1.0
C      1  0.5177680000000  0.4754660000000  0.3934220000000 1.0
C      1  0.4861490000000  0.5126310000000  0.3910620000000 1.0
C      1  0.5450380000000  0.4200580000000  0.4405140000000 1.0
C      1  0.4542200000000  0.5861160000000  0.4220580000000 1.0
C      1  0.4656830000000  0.4215560000000  0.4364390000000 1.0
C      1  0.5254130000000  0.5804750000000  0.4325320000000 1.0
C      1  0.4029610000000  0.4851760000000  0.5245700000000 1.0
C      1  0.5980670000000  0.5173100000000  0.5173030000000 1.0
C      1  0.5987470000000  0.4833450000000  0.5197790000000 1.0
C      1  0.4078260000000  0.5177760000000  0.5158050000000 1.0
C      1  0.5396510000000  0.4448500000000  0.5164300000000 1.0
C      1  0.4604600000000  0.5511360000000  0.5197390000000 1.0
C      1  0.4542430000000  0.4440080000000  0.5111910000000 1.0
C      1  0.5427300000000  0.5512790000000  0.5107620000000 1.0
C      1  0.6206050000000  0.4844950000000  0.4386470000000 1.0
C      1  0.3913520000000  0.5156280000000  0.4371000000000 1.0
C      1  0.3845730000000  0.4895650000000  0.4437480000000 1.0
C      1  0.6155080000000  0.5117290000000  0.4397960000000 1.0
C      1  0.4365720000000  0.4761290000000  0.5814060000000 1.0
C      1  0.5620340000000  0.5251850000000  0.5848130000000 1.0
C      1  0.5590560000000  0.4717520000000  0.5848740000000 1.0
C      1  0.4440960000000  0.5301750000000  0.5853670000000 1.0
C      1  0.4286540000000  0.4247670000000  0.5366010000000 1.0
C      1  0.5713490000000  0.5662740000000  0.5336600000000 1.0
C      1  0.5708920000000  0.4274970000000  0.5302260000000 1.0
C      1  0.4292150000000  0.5727280000000  0.5322380000000 1.0
C      1  0.5182120000000  0.5522990000000  0.4477200000000 1.0
C      1  0.4876840000000  0.4679780000000  0.4431150000000 1.0
C      1  0.4863220000000  0.5410740000000  0.4434630000000 1.0
C      1  0.5192290000000  0.4672180000000  0.4418120000000 1.0
C      1  0.5998250000000  0.4856320000000  0.4655480000000 1.0
C      1  0.4103540000000  0.5111630000000  0.4651900000000 1.0
C      1  0.4017130000000  0.4800060000000  0.4692810000000 1.0
C      1  0.5961740000000  0.5194790000000  0.4647220000000 1.0
C      1  0.5563090000000  0.4287130000000  0.4704480000000 1.0
C      1  0.4485830000000  0.5701480000000  0.4781540000000 1.0
C      1  0.4380210000000  0.4212240000000  0.4827550000000 1.0
C      1  0.5560060000000  0.5772710000000  0.4790150000000 1.0
C      1  0.4958560000000  0.5027710000000  0.5053510000000 1.0
END
