TITL C-2782226-7400-1139 -0.00220024155537589 125000 -334.333480418316 0 0 57 (C1) n - 1
REM
REM in /home/nfs/bkarasulu/CARBON/AIRSS/Generating-Clusters/REBO/Higher-Symm/SD-CG/HFTN-CG
REM
REM
REM
REM
REM
REM ./C.cell (12c818d87b63d06a65506943cc24bca4)
REM
REM compiler GCC version 9.2.1 20190827 (Red Hat 9.2.1-1)
REM options -cpp -mtune=generic -march=x86-64 -g -O0 -fpre-include=/usr/include/finclude/math-vector-fortran.h
REM seed 889616332 1704847947 334159700 535900650 264450494 -1532116420 -1571247312 -2058566488 -1106654368 -1570537872 -1760811913 421877734 474879948 -1604054111 -2038007492 1440115542 -462546942 -297952395 -986728281 -526893531 1751952667 1913842786 -677411700 -1585513057 420864086 1270471284 1565247050 -996194892 1795218273 -1940822335 -11719253 -1722397610 1877353167
REM
CELL 1.54180   50.00000   50.00000   50.00000   90.00000   90.00000   90.00000
LATT -1
SFAC C  
C      1  0.4461110000000  0.4920120000000  0.5759830000000 1.0
C      1  0.4377180000000  0.4601690000000  0.4615110000000 1.0
C      1  0.4444440000000  0.5594190000000  0.4439670000000 1.0
C      1  0.4708440000000  0.5002100000000  0.5689510000000 1.0
C      1  0.4634820000000  0.4488590000000  0.4632730000000 1.0
C      1  0.4681980000000  0.5522370000000  0.4537550000000 1.0
C      1  0.4895870000000  0.4955770000000  0.5256250000000 1.0
C      1  0.4969090000000  0.4814920000000  0.4891390000000 1.0
C      1  0.4952100000000  0.5189700000000  0.5026820000000 1.0
C      1  0.5145970000000  0.5505560000000  0.4703000000000 1.0
C      1  0.5179820000000  0.5042660000000  0.5664100000000 1.0
C      1  0.5104770000000  0.4438020000000  0.4573360000000 1.0
C      1  0.5313060000000  0.5557950000000  0.4962740000000 1.0
C      1  0.5419060000000  0.4888060000000  0.5557100000000 1.0
C      1  0.5305410000000  0.4646560000000  0.4527650000000 1.0
C      1  0.4813660000000  0.5702290000000  0.5006030000000 1.0
C      1  0.4969200000000  0.4589240000000  0.5565370000000 1.0
C      1  0.4846260000000  0.4677250000000  0.4219220000000 1.0
C      1  0.5398420000000  0.5098060000000  0.4777030000000 1.0
C      1  0.5391600000000  0.5141870000000  0.5251740000000 1.0
C      1  0.5253160000000  0.4705990000000  0.5058910000000 1.0
C      1  0.5031640000000  0.4366880000000  0.4867760000000 1.0
C      1  0.5144300000000  0.5270240000000  0.4460080000000 1.0
C      1  0.5070030000000  0.5319610000000  0.5567960000000 1.0
C      1  0.5430100000000  0.4453070000000  0.5141700000000 1.0
C      1  0.5625720000000  0.5134680000000  0.4631330000000 1.0
C      1  0.5602160000000  0.5266160000000  0.5368730000000 1.0
C      1  0.5354090000000  0.5637810000000  0.5244820000000 1.0
C      1  0.5617590000000  0.4692920000000  0.5533140000000 1.0
C      1  0.5404890000000  0.4849700000000  0.4332410000000 1.0
C      1  0.5277020000000  0.4826750000000  0.4768660000000 1.0
C      1  0.5255480000000  0.5252680000000  0.4992630000000 1.0
C      1  0.5200990000000  0.4892120000000  0.5295830000000 1.0
C      1  0.5624490000000  0.4496530000000  0.5339420000000 1.0
C      1  0.5651090000000  0.4978470000000  0.4404060000000 1.0
C      1  0.5598080000000  0.5542600000000  0.5360440000000 1.0
C      1  0.4761650000000  0.4474000000000  0.4891020000000 1.0
C      1  0.4854340000000  0.5273010000000  0.4545190000000 1.0
C      1  0.4781690000000  0.5243730000000  0.5548510000000 1.0
C      1  0.4846480000000  0.4489990000000  0.4432130000000 1.0
C      1  0.4878530000000  0.5619350000000  0.4742960000000 1.0
C      1  0.4953900000000  0.4846850000000  0.5691380000000 1.0
C      1  0.4799340000000  0.5083320000000  0.4769480000000 1.0
C      1  0.4708390000000  0.5242530000000  0.5248870000000 1.0
C      1  0.4732680000000  0.4704850000000  0.5113750000000 1.0
C      1  0.4469440000000  0.4667610000000  0.5260050000000 1.0
C      1  0.4495180000000  0.5036330000000  0.4793000000000 1.0
C      1  0.4453820000000  0.5368030000000  0.5159320000000 1.0
C      1  0.4879830000000  0.5669160000000  0.5269520000000 1.0
C      1  0.5008110000000  0.4398740000000  0.5371030000000 1.0
C      1  0.4962500000000  0.4918020000000  0.4159110000000 1.0
C      1  0.4248070000000  0.4636300000000  0.5383080000000 1.0
C      1  0.4316760000000  0.4852050000000  0.4708060000000 1.0
C      1  0.4235530000000  0.5475640000000  0.5082530000000 1.0
C      1  0.5191910000000  0.5045160000000  0.4274590000000 1.0
C      1  0.5113900000000  0.5565360000000  0.5402270000000 1.0
C      1  0.5154820000000  0.4326790000000  0.5130000000000 1.0
END
