TITL C-2782239-8622-738 0.0166853722584206 125000 -758.376460163839 0 0 131 (C1) n - 1
REM
REM in /home/nfs/bkarasulu/CARBON/AIRSS/Generating-Clusters/REBO/Higher-Symm/SD-CG/HFTN-CG
REM
REM
REM
REM
REM
REM ./C.cell (12c818d87b63d06a65506943cc24bca4)
REM
REM compiler GCC version 9.2.1 20190827 (Red Hat 9.2.1-1)
REM options -cpp -mtune=generic -march=x86-64 -g -O0 -fpre-include=/usr/include/finclude/math-vector-fortran.h
REM seed 839732952 201201471 1567317435 1958050773 -1052081991 -1495431572 1307731439 -290337879 -231878938 -941128502 -1981744875 1297559594 622653419 1384191560 -559512799 -642668151 -1500286573 1714038497 1541311678 -1987916084 -2037059051 -373102206 847710762 -1969266096 -690711672 -1723685536 1562723410 1498030960 1138910277 -1672461100 1741142660 1463492737 1255245263
REM
CELL 1.54180   50.00000   50.00000   50.00000   90.00000   90.00000   90.00000
LATT -1
SFAC C  
C      1  0.4884920000000  0.4097520000000  0.5324230000000 1.0
C      1  0.4901340000000  0.5027570000000  0.5937400000000 1.0
C      1  0.4901260000000  0.5871190000000  0.5217750000000 1.0
C      1  0.4887520000000  0.5556330000000  0.4215940000000 1.0
C      1  0.4889880000000  0.4423770000000  0.4244380000000 1.0
C      1  0.4720200000000  0.5476880000000  0.5820230000000 1.0
C      1  0.4737000000000  0.5905080000000  0.4857990000000 1.0
C      1  0.4703620000000  0.5111670000000  0.4063750000000 1.0
C      1  0.4723580000000  0.4114680000000  0.4603300000000 1.0
C      1  0.4680390000000  0.4356560000000  0.5713450000000 1.0
C      1  0.5683710000000  0.4386690000000  0.4498210000000 1.0
C      1  0.5693380000000  0.4298640000000  0.5424590000000 1.0
C      1  0.5688340000000  0.5171200000000  0.5761220000000 1.0
C      1  0.5694490000000  0.5826540000000  0.5044430000000 1.0
C      1  0.5657900000000  0.5308600000000  0.4235660000000 1.0
C      1  0.5036750000000  0.5993810000000  0.4959770000000 1.0
C      1  0.4924880000000  0.5329840000000  0.4011700000000 1.0
C      1  0.4964120000000  0.4182140000000  0.4412360000000 1.0
C      1  0.4906750000000  0.4155780000000  0.5625750000000 1.0
C      1  0.4957450000000  0.5327580000000  0.5961490000000 1.0
C      1  0.4828800000000  0.5619520000000  0.5582470000000 1.0
C      1  0.4805790000000  0.5753700000000  0.4608560000000 1.0
C      1  0.4829730000000  0.4862820000000  0.4163670000000 1.0
C      1  0.4819190000000  0.4121060000000  0.4883330000000 1.0
C      1  0.4805760000000  0.4618250000000  0.5786550000000 1.0
C      1  0.5326070000000  0.5709660000000  0.5442600000000 1.0
C      1  0.5304600000000  0.5752980000000  0.4417970000000 1.0
C      1  0.5313720000000  0.4689420000000  0.4203700000000 1.0
C      1  0.5313740000000  0.4096430000000  0.5055800000000 1.0
C      1  0.5314180000000  0.4757980000000  0.5853270000000 1.0
C      1  0.5434550000000  0.4698660000000  0.5552270000000 1.0
C      1  0.5442670000000  0.5403410000000  0.5393750000000 1.0
C      1  0.5474820000000  0.5617030000000  0.4665590000000 1.0
C      1  0.5409680000000  0.4907320000000  0.4423880000000 1.0
C      1  0.5437720000000  0.4374200000000  0.4928240000000 1.0
C      1  0.4749610000000  0.4448790000000  0.4818810000000 1.0
C      1  0.4758950000000  0.4644050000000  0.5449750000000 1.0
C      1  0.4756870000000  0.5312100000000  0.5459850000000 1.0
C      1  0.4805150000000  0.5513240000000  0.4815900000000 1.0
C      1  0.4788690000000  0.5041230000000  0.4446820000000 1.0
C      1  0.5919260000000  0.4944480000000  0.4434300000000 1.0
C      1  0.5950830000000  0.4429950000000  0.4900550000000 1.0
C      1  0.5938100000000  0.4721340000000  0.5509770000000 1.0
C      1  0.5963720000000  0.5401420000000  0.5427740000000 1.0
C      1  0.5965570000000  0.5548280000000  0.4756510000000 1.0
C      1  0.5452670000000  0.4696010000000  0.3959780000000 1.0
C      1  0.5437170000000  0.3859460000000  0.4971060000000 1.0
C      1  0.5439320000000  0.4618500000000  0.6061830000000 1.0
C      1  0.5453800000000  0.5850900000000  0.5649510000000 1.0
C      1  0.5398020000000  0.6004960000000  0.4337280000000 1.0
C      1  0.4021650000000  0.5090390000000  0.4623800000000 1.0
C      1  0.4019100000000  0.4671200000000  0.4785580000000 1.0
C      1  0.4016330000000  0.4690350000000  0.5243360000000 1.0
C      1  0.4014190000000  0.5124720000000  0.5362800000000 1.0
C      1  0.4008500000000  0.5373900000000  0.4979510000000 1.0
C      1  0.4661200000000  0.4431170000000  0.4488570000000 1.0
C      1  0.4649130000000  0.4329450000000  0.5373330000000 1.0
C      1  0.4657900000000  0.5148380000000  0.5742500000000 1.0
C      1  0.4642200000000  0.5735520000000  0.5107390000000 1.0
C      1  0.4663420000000  0.5333230000000  0.4320780000000 1.0
C      1  0.4016930000000  0.5698950000000  0.5023160000000 1.0
C      1  0.4034470000000  0.5232450000000  0.4328410000000 1.0
C      1  0.4029630000000  0.4431340000000  0.4561410000000 1.0
C      1  0.4027920000000  0.4401710000000  0.5398630000000 1.0
C      1  0.4027530000000  0.5186640000000  0.5684970000000 1.0
C      1  0.4663980000000  0.4943660000000  0.4714140000000 1.0
C      1  0.4657740000000  0.4711240000000  0.4958040000000 1.0
C      1  0.4657910000000  0.4865020000000  0.5253550000000 1.0
C      1  0.4652480000000  0.5194900000000  0.5194210000000 1.0
C      1  0.4661380000000  0.5242210000000  0.4869810000000 1.0
C      1  0.5003320000000  0.4075440000000  0.5081310000000 1.0
C      1  0.5003940000000  0.4781850000000  0.5885610000000 1.0
C      1  0.5019620000000  0.5753600000000  0.5437730000000 1.0
C      1  0.4992690000000  0.5724520000000  0.4402300000000 1.0
C      1  0.5010060000000  0.4656910000000  0.4170820000000 1.0
C      1  0.5732520000000  0.5029730000000  0.5317390000000 1.0
C      1  0.5728280000000  0.5289190000000  0.5125760000000 1.0
C      1  0.5688070000000  0.5187650000000  0.4811460000000 1.0
C      1  0.5669750000000  0.4872600000000  0.4826560000000 1.0
C      1  0.5693950000000  0.4767950000000  0.5126830000000 1.0
C      1  0.5399780000000  0.5266690000000  0.5084020000000 1.0
C      1  0.5486680000000  0.5310940000000  0.4635580000000 1.0
C      1  0.5375970000000  0.4811570000000  0.4722950000000 1.0
C      1  0.5418630000000  0.4609740000000  0.5134720000000 1.0
C      1  0.5426860000000  0.4949400000000  0.5373850000000 1.0
C      1  0.4055640000000  0.4370280000000  0.4890280000000 1.0
C      1  0.4062030000000  0.4694770000000  0.5560510000000 1.0
C      1  0.4052830000000  0.5429080000000  0.5453890000000 1.0
C      1  0.4050700000000  0.5557680000000  0.4720230000000 1.0
C      1  0.4067470000000  0.4900440000000  0.4370350000000 1.0
C      1  0.5020080000000  0.4376800000000  0.4653170000000 1.0
C      1  0.5009630000000  0.4431880000000  0.5501600000000 1.0
C      1  0.5021790000000  0.5278150000000  0.5650780000000 1.0
C      1  0.5045750000000  0.5658580000000  0.4913400000000 1.0
C      1  0.5031100000000  0.5188360000000  0.4277710000000 1.0
C      1  0.5685700000000  0.5045700000000  0.4337310000000 1.0
C      1  0.5719830000000  0.4344760000000  0.4781980000000 1.0
C      1  0.5719410000000  0.4562760000000  0.5540550000000 1.0
C      1  0.5720980000000  0.5358830000000  0.5544380000000 1.0
C      1  0.5750050000000  0.5716660000000  0.4783360000000 1.0
C      1  0.4488260000000  0.5324000000000  0.4584600000000 1.0
C      1  0.4491590000000  0.4686730000000  0.4567810000000 1.0
C      1  0.4486030000000  0.4481210000000  0.5147950000000 1.0
C      1  0.4489240000000  0.4981710000000  0.5529170000000 1.0
C      1  0.4480890000000  0.5492660000000  0.5173050000000 1.0
C      1  0.4279740000000  0.4735870000000  0.5081770000000 1.0
C      1  0.4279530000000  0.4990290000000  0.5267980000000 1.0
C      1  0.4273220000000  0.5245400000000  0.5082920000000 1.0
C      1  0.4282950000000  0.5150510000000  0.4783510000000 1.0
C      1  0.4285770000000  0.4835480000000  0.4782620000000 1.0
C      1  0.6058870000000  0.5215460000000  0.5183210000000 1.0
C      1  0.6021630000000  0.5249500000000  0.4859580000000 1.0
C      1  0.5993060000000  0.4942180000000  0.4738320000000 1.0
C      1  0.6003770000000  0.4726390000000  0.4986890000000 1.0
C      1  0.6045030000000  0.4897120000000  0.5263220000000 1.0
C      1  0.5445630000000  0.4509820000000  0.4433350000000 1.0
C      1  0.5447320000000  0.4249100000000  0.5306500000000 1.0
C      1  0.5447780000000  0.5036730000000  0.5763130000000 1.0
C      1  0.5465760000000  0.5724810000000  0.5158130000000 1.0
C      1  0.5442510000000  0.5494830000000  0.4287170000000 1.0
C      1  0.4199870000000  0.4658080000000  0.4430160000000 1.0
C      1  0.4191270000000  0.4347980000000  0.5136950000000 1.0
C      1  0.4196220000000  0.4924650000000  0.5656020000000 1.0
C      1  0.4184950000000  0.5590800000000  0.5264010000000 1.0
C      1  0.4192420000000  0.5432510000000  0.4510130000000 1.0
C      1  0.5303250000000  0.5203770000000  0.4387340000000 1.0
C      1  0.5275200000000  0.4508570000000  0.4697400000000 1.0
C      1  0.5266560000000  0.4491160000000  0.5393740000000 1.0
C      1  0.5270740000000  0.5179770000000  0.5543050000000 1.0
C      1  0.5317180000000  0.5548270000000  0.4943140000000 1.0
C      1  0.5340490000000  0.4933200000000  0.5042560000000 1.0
END
