TITL C-2782238-9940-846 0.00451961571877146 125000 -363.508672719586 0 0 61 (C1) n - 1
REM
REM in /home/nfs/bkarasulu/CARBON/AIRSS/Generating-Clusters/REBO/Higher-Symm/SD-CG/HFTN-CG
REM
REM
REM
REM
REM
REM ./C.cell (12c818d87b63d06a65506943cc24bca4)
REM
REM compiler GCC version 9.2.1 20190827 (Red Hat 9.2.1-1)
REM options -cpp -mtune=generic -march=x86-64 -g -O0 -fpre-include=/usr/include/finclude/math-vector-fortran.h
REM seed -564313291 -687383807 -2038795074 619881980 -1597338906 1458163605 646597250 1190127948 -1015601440 791727117 1912155293 -527101256 -1503111024 -1680692321 -753046032 32950530 1524268111 -2147273387 -769868957 619550573 502306804 -694177315 -672770643 1860274988 65177928 -365594630 1247283449 -2039795708 2120581500 -499129300 -469672450 2081709369 -248897763
REM
CELL 1.54180   50.00000   50.00000   50.00000   90.00000   90.00000   90.00000
LATT -1
SFAC C  
C      1  0.4481500000000  0.5756520000000  0.4737310000000 1.0
C      1  0.5726450000000  0.5574700000000  0.5344360000000 1.0
C      1  0.5628760000000  0.4219330000000  0.4777630000000 1.0
C      1  0.4237110000000  0.4497290000000  0.5001830000000 1.0
C      1  0.4351840000000  0.4367220000000  0.5211170000000 1.0
C      1  0.5765640000000  0.4452010000000  0.4797170000000 1.0
C      1  0.5546500000000  0.5651280000000  0.5532610000000 1.0
C      1  0.4329440000000  0.5679500000000  0.4950330000000 1.0
C      1  0.4359720000000  0.5066820000000  0.4526980000000 1.0
C      1  0.5532360000000  0.5274610000000  0.4427180000000 1.0
C      1  0.4993700000000  0.4389690000000  0.4139670000000 1.0
C      1  0.4731620000000  0.4453940000000  0.4179750000000 1.0
C      1  0.4716990000000  0.4953280000000  0.5767020000000 1.0
C      1  0.5649700000000  0.5184460000000  0.5386380000000 1.0
C      1  0.4984510000000  0.5263010000000  0.6078050000000 1.0
C      1  0.4637910000000  0.5212500000000  0.5756090000000 1.0
C      1  0.4604300000000  0.4524720000000  0.4407400000000 1.0
C      1  0.4560940000000  0.5243560000000  0.4484140000000 1.0
C      1  0.5520990000000  0.5312790000000  0.4686200000000 1.0
C      1  0.5183690000000  0.4376610000000  0.4333580000000 1.0
C      1  0.4573080000000  0.5374870000000  0.5549130000000 1.0
C      1  0.4752880000000  0.4751490000000  0.5592020000000 1.0
C      1  0.5591660000000  0.5026900000000  0.5185240000000 1.0
C      1  0.5056820000000  0.5324720000000  0.5833830000000 1.0
C      1  0.5195400000000  0.4052570000000  0.4953190000000 1.0
C      1  0.4224790000000  0.4914270000000  0.4723520000000 1.0
C      1  0.4952240000000  0.5787900000000  0.4821500000000 1.0
C      1  0.5993250000000  0.5365380000000  0.4982980000000 1.0
C      1  0.5148610000000  0.5801010000000  0.5311260000000 1.0
C      1  0.4121380000000  0.5264680000000  0.5085130000000 1.0
C      1  0.4791820000000  0.4155170000000  0.5267770000000 1.0
C      1  0.5989270000000  0.4887560000000  0.4822280000000 1.0
C      1  0.5508830000000  0.5353650000000  0.4963370000000 1.0
C      1  0.5216000000000  0.4400720000000  0.4611530000000 1.0
C      1  0.4590420000000  0.4591700000000  0.4679310000000 1.0
C      1  0.4763850000000  0.5376690000000  0.4629920000000 1.0
C      1  0.5528740000000  0.4852320000000  0.4973200000000 1.0
C      1  0.5133650000000  0.5390300000000  0.5574330000000 1.0
C      1  0.4564050000000  0.5380020000000  0.5267870000000 1.0
C      1  0.4735550000000  0.4636640000000  0.5337370000000 1.0
C      1  0.4768340000000  0.5258970000000  0.5123990000000 1.0
C      1  0.5095450000000  0.5228160000000  0.5353330000000 1.0
C      1  0.5254620000000  0.4818370000000  0.4914050000000 1.0
C      1  0.4819130000000  0.4767160000000  0.5102750000000 1.0
C      1  0.4823930000000  0.4634560000000  0.4839030000000 1.0
C      1  0.5106640000000  0.4623160000000  0.4762250000000 1.0
C      1  0.5285950000000  0.5270070000000  0.5100300000000 1.0
C      1  0.4886320000000  0.5226360000000  0.4831940000000 1.0
C      1  0.5263980000000  0.5644100000000  0.5515350000000 1.0
C      1  0.5759890000000  0.4726280000000  0.4850650000000 1.0
C      1  0.4617210000000  0.4371560000000  0.5308240000000 1.0
C      1  0.4318800000000  0.5461910000000  0.5130470000000 1.0
C      1  0.5348760000000  0.4191480000000  0.4763820000000 1.0
C      1  0.5748090000000  0.5449380000000  0.5094190000000 1.0
C      1  0.4743240000000  0.5661070000000  0.4681080000000 1.0
C      1  0.4329210000000  0.4657630000000  0.4789600000000 1.0
C      1  0.4076480000000  0.5055620000000  0.4918050000000 1.0
C      1  0.5066810000000  0.5839980000000  0.5058810000000 1.0
C      1  0.6085490000000  0.5135300000000  0.4872730000000 1.0
C      1  0.4997610000000  0.4044820000000  0.5134800000000 1.0
C      1  0.5034280000000  0.5022700000000  0.5074830000000 1.0
END
