TITL C-2782236-320-696 -2.04941733345733e-07 125000 -275.451061084627 0 0 44 (Th) n - 1
REM
REM in /home/nfs/bkarasulu/CARBON/AIRSS/Generating-Clusters/REBO/Higher-Symm/SD-CG/HFTN-CG
REM
REM
REM
REM
REM
REM ./C.cell (12c818d87b63d06a65506943cc24bca4)
REM
REM compiler GCC version 9.2.1 20190827 (Red Hat 9.2.1-1)
REM options -cpp -mtune=generic -march=x86-64 -g -O0 -fpre-include=/usr/include/finclude/math-vector-fortran.h
REM seed 1793969441 1102108227 -1924468355 -355166070 -714294433 1623389019 1259782588 -1101998097 -174534904 -1518050873 -450116215 -1288510263 -276876381 536162257 -156827201 415431398 -899564032 709846644 1951826165 1713243389 673417175 -2094315531 -1055202480 -1761588799 -1336253330 1345834668 640934317 461554030 -959803428 -1210067962 -438257021 -315367711 -1372297773
REM
CELL 1.54180   50.00000   50.00000   50.00000   90.00000   90.00000   90.00000
LATT -1
SFAC C  
C      1  0.4460590000000  0.4765490000000  0.5137770000000 1.0
C      1  0.4755560000000  0.5154310000000  0.4453980000000 1.0
C      1  0.5144380000000  0.4470520000000  0.4748950000000 1.0
C      1  0.4460590000000  0.5247720000000  0.4842360000000 1.0
C      1  0.5532760000000  0.4765490000000  0.4842360000000 1.0
C      1  0.5532760000000  0.5247720000000  0.5137770000000 1.0
C      1  0.4755560000000  0.4858900000000  0.5526150000000 1.0
C      1  0.5237790000000  0.5154310000000  0.5526150000000 1.0
C      1  0.5237790000000  0.4858900000000  0.4453980000000 1.0
C      1  0.5144380000000  0.5542700000000  0.5231180000000 1.0
C      1  0.4848970000000  0.4470520000000  0.5231180000000 1.0
C      1  0.4848970000000  0.5542700000000  0.4748950000000 1.0
C      1  0.5532760000000  0.4765490000000  0.5137770000000 1.0
C      1  0.5237790000000  0.5154310000000  0.4453980000000 1.0
C      1  0.4848970000000  0.4470520000000  0.4748950000000 1.0
C      1  0.5532760000000  0.5247720000000  0.4842360000000 1.0
C      1  0.4460590000000  0.4765490000000  0.4842360000000 1.0
C      1  0.4460590000000  0.5247720000000  0.5137770000000 1.0
C      1  0.5237790000000  0.4858900000000  0.5526150000000 1.0
C      1  0.4755560000000  0.5154310000000  0.5526150000000 1.0
C      1  0.4755560000000  0.4858900000000  0.4453980000000 1.0
C      1  0.4848970000000  0.5542700000000  0.5231180000000 1.0
C      1  0.5144380000000  0.4470520000000  0.5231180000000 1.0
C      1  0.5144380000000  0.5542700000000  0.4748950000000 1.0
C      1  0.4755300000000  0.4341490000000  0.4990070000000 1.0
C      1  0.4331560000000  0.5006610000000  0.4748690000000 1.0
C      1  0.4996680000000  0.4765240000000  0.4324950000000 1.0
C      1  0.4755300000000  0.5671730000000  0.4990070000000 1.0
C      1  0.5238050000000  0.4341490000000  0.4990070000000 1.0
C      1  0.5238050000000  0.5671730000000  0.4990070000000 1.0
C      1  0.4331560000000  0.5006610000000  0.5231440000000 1.0
C      1  0.5661790000000  0.5006610000000  0.5231440000000 1.0
C      1  0.5661790000000  0.5006610000000  0.4748690000000 1.0
C      1  0.4996680000000  0.5247980000000  0.5655190000000 1.0
C      1  0.4996680000000  0.4765240000000  0.5655190000000 1.0
C      1  0.4996680000000  0.5247980000000  0.4324950000000 1.0
C      1  0.5323990000000  0.4679290000000  0.5317380000000 1.0
C      1  0.4669360000000  0.5333930000000  0.5317380000000 1.0
C      1  0.5323990000000  0.5333930000000  0.4662750000000 1.0
C      1  0.4669360000000  0.4679290000000  0.4662750000000 1.0
C      1  0.4669360000000  0.4679290000000  0.5317380000000 1.0
C      1  0.5323990000000  0.5333930000000  0.5317380000000 1.0
C      1  0.4669360000000  0.5333930000000  0.4662750000000 1.0
C      1  0.5323990000000  0.4679290000000  0.4662750000000 1.0
END
