TITL C-2782228-2999-1177 -0.0011839292728255 125000 -552.73846671491 0 0 93 (C1) n - 1
REM
REM in /home/nfs/bkarasulu/CARBON/AIRSS/Generating-Clusters/REBO/Higher-Symm/SD-CG/HFTN-CG
REM
REM
REM
REM
REM
REM ./C.cell (12c818d87b63d06a65506943cc24bca4)
REM
REM compiler GCC version 9.2.1 20190827 (Red Hat 9.2.1-1)
REM options -cpp -mtune=generic -march=x86-64 -g -O0 -fpre-include=/usr/include/finclude/math-vector-fortran.h
REM seed -302445269 1937423052 -87808999 327015055 329950481 -1793226298 904974806 -716275223 -795236392 624098904 929145094 -1533224699 1168905440 -174374629 -521034866 489795861 1817595687 -1947147249 -773053929 -1957779203 -1982756348 -2011312928 -1716434836 747838875 1644218805 -1600470071 -146327626 -514798201 -1550556094 459313988 407074718 -1391176522 -152695920
REM
CELL 1.54180   50.00000   50.00000   50.00000   90.00000   90.00000   90.00000
LATT -1
SFAC C  
C      1  0.5297090000000  0.4822130000000  0.4489560000000 1.0
C      1  0.4722220000000  0.5194000000000  0.4472600000000 1.0
C      1  0.4731240000000  0.4798300000000  0.4502610000000 1.0
C      1  0.5266720000000  0.5217130000000  0.4474540000000 1.0
C      1  0.4685850000000  0.4402430000000  0.4504010000000 1.0
C      1  0.5316670000000  0.5611330000000  0.4433690000000 1.0
C      1  0.5298860000000  0.4426050000000  0.4524500000000 1.0
C      1  0.4727410000000  0.5591810000000  0.4496450000000 1.0
C      1  0.4668160000000  0.4160240000000  0.5011060000000 1.0
C      1  0.5342990000000  0.5825080000000  0.5005960000000 1.0
C      1  0.5319920000000  0.4216000000000  0.4997480000000 1.0
C      1  0.4706710000000  0.5763930000000  0.5020600000000 1.0
C      1  0.5142730000000  0.5587190000000  0.5567470000000 1.0
C      1  0.4796310000000  0.4442060000000  0.5568300000000 1.0
C      1  0.4835780000000  0.5538150000000  0.5600270000000 1.0
C      1  0.5108820000000  0.4402560000000  0.5560730000000 1.0
C      1  0.5568580000000  0.4347790000000  0.4922130000000 1.0
C      1  0.4455670000000  0.5648490000000  0.4911180000000 1.0
C      1  0.4435670000000  0.4336420000000  0.4919230000000 1.0
C      1  0.5581930000000  0.5693990000000  0.4867710000000 1.0
C      1  0.5159550000000  0.5407590000000  0.4237070000000 1.0
C      1  0.4847960000000  0.4590690000000  0.4282630000000 1.0
C      1  0.4847460000000  0.5403940000000  0.4249310000000 1.0
C      1  0.5159060000000  0.4598460000000  0.4284070000000 1.0
C      1  0.4500630000000  0.5163700000000  0.5605760000000 1.0
C      1  0.5562780000000  0.4825570000000  0.5614550000000 1.0
C      1  0.5568120000000  0.5138170000000  0.5576390000000 1.0
C      1  0.4451590000000  0.4853640000000  0.5588660000000 1.0
C      1  0.4817430000000  0.5123990000000  0.5362160000000 1.0
C      1  0.5175190000000  0.4733620000000  0.5349150000000 1.0
C      1  0.5126710000000  0.5245380000000  0.5366310000000 1.0
C      1  0.4860680000000  0.4794730000000  0.5330760000000 1.0
C      1  0.4802120000000  0.5422590000000  0.5220070000000 1.0
C      1  0.5080480000000  0.4499940000000  0.5175900000000 1.0
C      1  0.5138830000000  0.5503160000000  0.5178180000000 1.0
C      1  0.4745210000000  0.4510530000000  0.5180260000000 1.0
C      1  0.4877280000000  0.5137100000000  0.5878940000000 1.0
C      1  0.5143560000000  0.4842820000000  0.5854940000000 1.0
C      1  0.5184290000000  0.5151530000000  0.5870210000000 1.0
C      1  0.4837300000000  0.4821410000000  0.5864620000000 1.0
C      1  0.5535110000000  0.5180160000000  0.4675030000000 1.0
C      1  0.4443430000000  0.4852830000000  0.4661610000000 1.0
C      1  0.4427490000000  0.5193250000000  0.4633520000000 1.0
C      1  0.5571000000000  0.4856640000000  0.4688250000000 1.0
C      1  0.5202110000000  0.5748590000000  0.4707470000000 1.0
C      1  0.4825950000000  0.4192540000000  0.4711830000000 1.0
C      1  0.4895560000000  0.5701230000000  0.4747280000000 1.0
C      1  0.5127650000000  0.4253600000000  0.4734480000000 1.0
C      1  0.5514640000000  0.5259570000000  0.4986980000000 1.0
C      1  0.4375790000000  0.4827640000000  0.4990380000000 1.0
C      1  0.4313650000000  0.5131800000000  0.4916840000000 1.0
C      1  0.5566620000000  0.4789730000000  0.5001310000000 1.0
C      1  0.5192700000000  0.5795770000000  0.5302000000000 1.0
C      1  0.4827790000000  0.4219930000000  0.5307130000000 1.0
C      1  0.4855750000000  0.5740230000000  0.5325460000000 1.0
C      1  0.5168980000000  0.4205510000000  0.5288770000000 1.0
C      1  0.4833270000000  0.4491160000000  0.4864290000000 1.0
C      1  0.5195000000000  0.5475080000000  0.4883020000000 1.0
C      1  0.5159310000000  0.4561520000000  0.4877900000000 1.0
C      1  0.4853980000000  0.5410200000000  0.4916060000000 1.0
C      1  0.4763090000000  0.5117970000000  0.4084210000000 1.0
C      1  0.5246230000000  0.4869100000000  0.4097390000000 1.0
C      1  0.5249110000000  0.5117090000000  0.4088850000000 1.0
C      1  0.4758690000000  0.4870650000000  0.4111300000000 1.0
C      1  0.5794810000000  0.5185070000000  0.5369350000000 1.0
C      1  0.4198360000000  0.4808290000000  0.5422420000000 1.0
C      1  0.4246810000000  0.5136170000000  0.5394570000000 1.0
C      1  0.5795940000000  0.4860530000000  0.5406160000000 1.0
C      1  0.5288050000000  0.4681970000000  0.5638250000000 1.0
C      1  0.4717470000000  0.5302930000000  0.5707390000000 1.0
C      1  0.4672270000000  0.4679710000000  0.5676440000000 1.0
C      1  0.5303290000000  0.5292940000000  0.5629720000000 1.0
C      1  0.5745940000000  0.5345970000000  0.5137210000000 1.0
C      1  0.4220020000000  0.4669720000000  0.5181980000000 1.0
C      1  0.4173820000000  0.5323660000000  0.5133270000000 1.0
C      1  0.5781600000000  0.4693780000000  0.5168670000000 1.0
C      1  0.5520600000000  0.5516670000000  0.4641550000000 1.0
C      1  0.4478880000000  0.4514280000000  0.4682010000000 1.0
C      1  0.4490660000000  0.5508130000000  0.4652070000000 1.0
C      1  0.5526550000000  0.4519800000000  0.4683490000000 1.0
C      1  0.4680930000000  0.4885200000000  0.5075140000000 1.0
C      1  0.5310590000000  0.5144210000000  0.5138570000000 1.0
C      1  0.5348100000000  0.4876100000000  0.5153200000000 1.0
C      1  0.4520520000000  0.5142460000000  0.5194550000000 1.0
C      1  0.5796530000000  0.5609120000000  0.5040660000000 1.0
C      1  0.4231520000000  0.4400160000000  0.5107640000000 1.0
C      1  0.4233160000000  0.5584640000000  0.5079030000000 1.0
C      1  0.5784390000000  0.4415390000000  0.5098990000000 1.0
C      1  0.4852810000000  0.4824170000000  0.4812650000000 1.0
C      1  0.5148720000000  0.5181800000000  0.4775170000000 1.0
C      1  0.5185130000000  0.4856800000000  0.4789180000000 1.0
C      1  0.4818640000000  0.5151930000000  0.4767240000000 1.0
C      1  0.5004840000000  0.4997340000000  0.4451720000000 1.0
END
