TITL C-2782227-3064-668 0.267816239184444 125000 -451.024700030032 0 0 77 (C1) n - 1
REM
REM in /home/nfs/bkarasulu/CARBON/AIRSS/Generating-Clusters/REBO/Higher-Symm/SD-CG/HFTN-CG
REM
REM
REM
REM
REM
REM ./C.cell (12c818d87b63d06a65506943cc24bca4)
REM
REM compiler GCC version 9.2.1 20190827 (Red Hat 9.2.1-1)
REM options -cpp -mtune=generic -march=x86-64 -g -O0 -fpre-include=/usr/include/finclude/math-vector-fortran.h
REM seed 1678299581 834043051 1987856389 -271694328 -322116514 243528952 1670913788 523480542 424045270 -238048312 -1769576846 -1575972041 -1808752105 1867480682 1133519785 1189296862 1717719736 -483694136 -1613817190 -1480312390 -1226261258 535302850 -1072397222 1744979279 -852605170 158956404 -2008075969 548820314 2106665806 -34042179 1882861385 -1981623004 -682989238
REM
CELL 1.54180   50.00000   50.00000   50.00000   90.00000   90.00000   90.00000
LATT -1
SFAC C  
C      1  0.4726630000000  0.4220750000000  0.4812310000000 1.0
C      1  0.4750760000000  0.4213850000000  0.5115070000000 1.0
C      1  0.5185790000000  0.4180940000000  0.5319490000000 1.0
C      1  0.5380940000000  0.4200220000000  0.5072100000000 1.0
C      1  0.4997920000000  0.4185950000000  0.4685740000000 1.0
C      1  0.4406820000000  0.5530730000000  0.5320490000000 1.0
C      1  0.5136950000000  0.5498470000000  0.5710870000000 1.0
C      1  0.5723040000000  0.5397230000000  0.5098960000000 1.0
C      1  0.5283400000000  0.5542890000000  0.4384500000000 1.0
C      1  0.4467190000000  0.5458700000000  0.4524120000000 1.0
C      1  0.4946720000000  0.4636060000000  0.4480230000000 1.0
C      1  0.4480680000000  0.4619350000000  0.4897410000000 1.0
C      1  0.4727860000000  0.4632740000000  0.5420280000000 1.0
C      1  0.5302330000000  0.4644800000000  0.5406400000000 1.0
C      1  0.5468890000000  0.4588680000000  0.4795620000000 1.0
C      1  0.5120340000000  0.5754010000000  0.4495420000000 1.0
C      1  0.4400750000000  0.5694400000000  0.4670370000000 1.0
C      1  0.4603580000000  0.5739000000000  0.5294840000000 1.0
C      1  0.5181340000000  0.5709210000000  0.5506850000000 1.0
C      1  0.5582370000000  0.5649640000000  0.5024710000000 1.0
C      1  0.5202210000000  0.5258710000000  0.5099890000000 1.0
C      1  0.5151430000000  0.5278980000000  0.4824110000000 1.0
C      1  0.4871590000000  0.5275700000000  0.4789720000000 1.0
C      1  0.4741280000000  0.5269990000000  0.5040540000000 1.0
C      1  0.4951840000000  0.5257990000000  0.5232360000000 1.0
C      1  0.4446670000000  0.5358840000000  0.5058530000000 1.0
C      1  0.4914140000000  0.5402040000000  0.5508830000000 1.0
C      1  0.5453700000000  0.5354760000000  0.5261900000000 1.0
C      1  0.5382080000000  0.5400480000000  0.4636710000000 1.0
C      1  0.4762500000000  0.5402320000000  0.4530760000000 1.0
C      1  0.5654050000000  0.4875490000000  0.4801480000000 1.0
C      1  0.4998000000000  0.4895770000000  0.4264680000000 1.0
C      1  0.4344420000000  0.4872240000000  0.4749160000000 1.0
C      1  0.4569620000000  0.4886960000000  0.5584620000000 1.0
C      1  0.5396360000000  0.4875240000000  0.5613040000000 1.0
C      1  0.5292390000000  0.4503150000000  0.4329370000000 1.0
C      1  0.4521250000000  0.4547650000000  0.4449330000000 1.0
C      1  0.4355890000000  0.4525420000000  0.5321500000000 1.0
C      1  0.5068320000000  0.4537290000000  0.5731230000000 1.0
C      1  0.5743360000000  0.4553100000000  0.5155040000000 1.0
C      1  0.5558960000000  0.4397320000000  0.4992770000000 1.0
C      1  0.5078010000000  0.4365810000000  0.4488720000000 1.0
C      1  0.4549110000000  0.4413520000000  0.4706220000000 1.0
C      1  0.4620210000000  0.4380720000000  0.5294020000000 1.0
C      1  0.5181730000000  0.4390000000000  0.5500120000000 1.0
C      1  0.4937070000000  0.5653490000000  0.4681070000000 1.0
C      1  0.4392860000000  0.5662990000000  0.4944230000000 1.0
C      1  0.4861580000000  0.5643950000000  0.5275660000000 1.0
C      1  0.5259150000000  0.5619360000000  0.5260400000000 1.0
C      1  0.5356980000000  0.5617130000000  0.4874450000000 1.0
C      1  0.5497210000000  0.4958710000000  0.5269560000000 1.0
C      1  0.5402430000000  0.4908250000000  0.4574950000000 1.0
C      1  0.4755500000000  0.4982350000000  0.4484000000000 1.0
C      1  0.4430730000000  0.4951020000000  0.5099630000000 1.0
C      1  0.4896750000000  0.4965200000000  0.5554720000000 1.0
C      1  0.5353530000000  0.5341350000000  0.5764920000000 1.0
C      1  0.5800120000000  0.5235100000000  0.4892440000000 1.0
C      1  0.5155440000000  0.5386250000000  0.4199000000000 1.0
C      1  0.4299320000000  0.5246560000000  0.4580620000000 1.0
C      1  0.4413760000000  0.5386730000000  0.5555310000000 1.0
C      1  0.4915650000000  0.4845490000000  0.5242680000000 1.0
C      1  0.5210170000000  0.4832680000000  0.5149420000000 1.0
C      1  0.5215010000000  0.4811010000000  0.4841670000000 1.0
C      1  0.4913150000000  0.4839440000000  0.4746930000000 1.0
C      1  0.4726140000000  0.4836430000000  0.4991650000000 1.0
C      1  0.5287380000000  0.4780870000000  0.4331310000000 1.0
C      1  0.4491800000000  0.4827940000000  0.4486370000000 1.0
C      1  0.4372710000000  0.4802190000000  0.5350450000000 1.0
C      1  0.5107370000000  0.4813310000000  0.5712230000000 1.0
C      1  0.5711210000000  0.4828990000000  0.5107250000000 1.0
C      1  0.5474210000000  0.5178800000000  0.5529120000000 1.0
C      1  0.5587430000000  0.5175080000000  0.4652540000000 1.0
C      1  0.4913170000000  0.5222430000000  0.4300190000000 1.0
C      1  0.4276560000000  0.5157960000000  0.4890840000000 1.0
C      1  0.4666430000000  0.5211580000000  0.5609520000000 1.0
C      1  0.5062120000000  0.4128900000000  0.5006690000000 1.0
C      1  0.5048760000000  0.5648400000000  0.4994710000000 1.0
END
