TITL C-2782230-7391-116 -0.000232871490289448 125000 -1138.95572168535 0 0 195 (C1) n - 1
REM
REM in /home/nfs/bkarasulu/CARBON/AIRSS/Generating-Clusters/REBO/Higher-Symm/SD-CG/HFTN-CG
REM
REM
REM
REM
REM
REM ./C.cell (12c818d87b63d06a65506943cc24bca4)
REM
REM compiler GCC version 9.2.1 20190827 (Red Hat 9.2.1-1)
REM options -cpp -mtune=generic -march=x86-64 -g -O0 -fpre-include=/usr/include/finclude/math-vector-fortran.h
REM seed -170357986 -66207562 1657409206 308401691 -1467282646 1237492600 -1916387179 1479529668 379226199 -945533561 2016521808 1324492048 318684114 755927520 -640917287 -2069943263 -228365005 -1446033054 342031425 -77241843 1916435047 -199334204 1586939484 2102846793 -784339767 1461762981 1900158818 393922606 -1442200078 1726433632 -991327276 244533920 915373276
REM
CELL 1.54180   50.00000   50.00000   50.00000   90.00000   90.00000   90.00000
LATT -1
SFAC C  
C      1  0.6042430000000  0.4706550000000  0.5465790000000 1.0
C      1  0.4083920000000  0.4744640000000  0.5649990000000 1.0
C      1  0.4839830000000  0.4732970000000  0.3923960000000 1.0
C      1  0.3986370000000  0.5271330000000  0.5401500000000 1.0
C      1  0.5924260000000  0.5298460000000  0.5667340000000 1.0
C      1  0.5112650000000  0.5270300000000  0.3888100000000 1.0
C      1  0.4906360000000  0.4213340000000  0.5826950000000 1.0
C      1  0.4264850000000  0.4253210000000  0.4584360000000 1.0
C      1  0.5716230000000  0.4266400000000  0.4660230000000 1.0
C      1  0.5064590000000  0.5735800000000  0.5791750000000 1.0
C      1  0.5667540000000  0.5791530000000  0.4506110000000 1.0
C      1  0.4272160000000  0.5769510000000  0.4584450000000 1.0
C      1  0.5271380000000  0.5779540000000  0.4411620000000 1.0
C      1  0.5378880000000  0.5775620000000  0.5543600000000 1.0
C      1  0.4411570000000  0.5786990000000  0.5058460000000 1.0
C      1  0.4749500000000  0.4215710000000  0.4464490000000 1.0
C      1  0.4633750000000  0.4232120000000  0.5535410000000 1.0
C      1  0.5661830000000  0.4227100000000  0.5054510000000 1.0
C      1  0.4788880000000  0.5229830000000  0.6018080000000 1.0
C      1  0.4203660000000  0.5241880000000  0.4318380000000 1.0
C      1  0.5989400000000  0.5277410000000  0.4646850000000 1.0
C      1  0.5191650000000  0.4726140000000  0.6034100000000 1.0
C      1  0.5770740000000  0.4773470000000  0.4307700000000 1.0
C      1  0.4010880000000  0.4786290000000  0.4633810000000 1.0
C      1  0.4876540000000  0.4714320000000  0.5139640000000 1.0
C      1  0.5010470000000  0.4780220000000  0.4846820000000 1.0
C      1  0.5203420000000  0.4748180000000  0.5109460000000 1.0
C      1  0.5195490000000  0.5252000000000  0.5124630000000 1.0
C      1  0.5059790000000  0.5291510000000  0.4828450000000 1.0
C      1  0.4871690000000  0.5220020000000  0.5086400000000 1.0
C      1  0.5879800000000  0.4566090000000  0.5690550000000 1.0
C      1  0.3976900000000  0.4635800000000  0.5378940000000 1.0
C      1  0.5115010000000  0.4598700000000  0.3929540000000 1.0
C      1  0.4132600000000  0.5400700000000  0.5638030000000 1.0
C      1  0.6036870000000  0.5439130000000  0.5413940000000 1.0
C      1  0.4829270000000  0.5385500000000  0.3920050000000 1.0
C      1  0.5015790000000  0.5555840000000  0.4150370000000 1.0
C      1  0.5718510000000  0.5564050000000  0.5452080000000 1.0
C      1  0.4264690000000  0.5553670000000  0.5360570000000 1.0
C      1  0.4940490000000  0.4448820000000  0.4184640000000 1.0
C      1  0.4266150000000  0.4459640000000  0.5438140000000 1.0
C      1  0.5753080000000  0.4440830000000  0.5396200000000 1.0
C      1  0.4579510000000  0.5075860000000  0.5702230000000 1.0
C      1  0.4623160000000  0.5059380000000  0.4344200000000 1.0
C      1  0.5845820000000  0.5057670000000  0.5039420000000 1.0
C      1  0.5457780000000  0.4945580000000  0.5713110000000 1.0
C      1  0.5398710000000  0.4924400000000  0.4283870000000 1.0
C      1  0.4240160000000  0.4947970000000  0.4999160000000 1.0
C      1  0.5159160000000  0.5027990000000  0.5557230000000 1.0
C      1  0.4556010000000  0.5042790000000  0.4916440000000 1.0
C      1  0.5408740000000  0.5060160000000  0.4599630000000 1.0
C      1  0.4857810000000  0.4939980000000  0.5552600000000 1.0
C      1  0.5561620000000  0.4973460000000  0.4859590000000 1.0
C      1  0.4708650000000  0.4966530000000  0.4656110000000 1.0
C      1  0.5911990000000  0.4908730000000  0.5323190000000 1.0
C      1  0.4279340000000  0.4945970000000  0.5632150000000 1.0
C      1  0.4810780000000  0.4942920000000  0.4103640000000 1.0
C      1  0.4123710000000  0.5060760000000  0.5282660000000 1.0
C      1  0.5735850000000  0.5095740000000  0.5626970000000 1.0
C      1  0.5188850000000  0.5065420000000  0.4063930000000 1.0
C      1  0.4577760000000  0.6127310000000  0.4930030000000 1.0
C      1  0.5184100000000  0.6077420000000  0.4663290000000 1.0
C      1  0.5093620000000  0.6159390000000  0.5287780000000 1.0
C      1  0.5299020000000  0.3838150000000  0.4942110000000 1.0
C      1  0.4724460000000  0.3876830000000  0.4675390000000 1.0
C      1  0.4807690000000  0.3923180000000  0.5338800000000 1.0
C      1  0.4968910000000  0.4177330000000  0.5498570000000 1.0
C      1  0.4534490000000  0.4157010000000  0.4710620000000 1.0
C      1  0.5492670000000  0.4075870000000  0.4799520000000 1.0
C      1  0.5072390000000  0.5924660000000  0.5527590000000 1.0
C      1  0.5411350000000  0.5828920000000  0.4718890000000 1.0
C      1  0.4521760000000  0.5842980000000  0.4751820000000 1.0
C      1  0.5072960000000  0.4151270000000  0.4223650000000 1.0
C      1  0.5621590000000  0.4143050000000  0.5442860000000 1.0
C      1  0.4259790000000  0.4144110000000  0.5329240000000 1.0
C      1  0.4901560000000  0.5861060000000  0.4189160000000 1.0
C      1  0.4363010000000  0.5850910000000  0.5457550000000 1.0
C      1  0.5691860000000  0.5861210000000  0.5310880000000 1.0
C      1  0.4450640000000  0.4413440000000  0.5722560000000 1.0
C      1  0.4605810000000  0.4393420000000  0.4233400000000 1.0
C      1  0.5921320000000  0.4399520000000  0.5101540000000 1.0
C      1  0.5548820000000  0.5604880000000  0.5745990000000 1.0
C      1  0.5354800000000  0.5601220000000  0.4163690000000 1.0
C      1  0.4139570000000  0.5611310000000  0.5046970000000 1.0
C      1  0.4303670000000  0.5396160000000  0.5861530000000 1.0
C      1  0.4551830000000  0.5396600000000  0.3961240000000 1.0
C      1  0.6124430000000  0.5443150000000  0.5141980000000 1.0
C      1  0.5688080000000  0.4561480000000  0.5902510000000 1.0
C      1  0.5393910000000  0.4603600000000  0.3965910000000 1.0
C      1  0.3887960000000  0.4645370000000  0.5106710000000 1.0
C      1  0.5471240000000  0.5716230000000  0.5012490000000 1.0
C      1  0.4759200000000  0.5840070000000  0.5485620000000 1.0
C      1  0.4754990000000  0.5760470000000  0.4545160000000 1.0
C      1  0.4490470000000  0.4226050000000  0.5015740000000 1.0
C      1  0.5251630000000  0.4285390000000  0.5402480000000 1.0
C      1  0.5294910000000  0.4164290000000  0.4553050000000 1.0
C      1  0.4453360000000  0.3921310000000  0.5153510000000 1.0
C      1  0.5191190000000  0.3883190000000  0.4399850000000 1.0
C      1  0.5339520000000  0.3954830000000  0.5463960000000 1.0
C      1  0.5564450000000  0.6047640000000  0.5056260000000 1.0
C      1  0.4837690000000  0.6076130000000  0.4447110000000 1.0
C      1  0.4573030000000  0.6120290000000  0.5472170000000 1.0
C      1  0.4711390000000  0.5132160000000  0.5332710000000 1.0
C      1  0.4907740000000  0.5204640000000  0.4582060000000 1.0
C      1  0.5469490000000  0.5164140000000  0.5100970000000 1.0
C      1  0.5322200000000  0.4836640000000  0.5357460000000 1.0
C      1  0.5146390000000  0.4865600000000  0.4584240000000 1.0
C      1  0.4590390000000  0.4807440000000  0.5126850000000 1.0
C      1  0.5954510000000  0.5008740000000  0.4751450000000 1.0
C      1  0.4720390000000  0.4941090000000  0.5968160000000 1.0
C      1  0.4332610000000  0.4981820000000  0.4308750000000 1.0
C      1  0.4064520000000  0.5036620000000  0.4764300000000 1.0
C      1  0.5265560000000  0.4995330000000  0.5953500000000 1.0
C      1  0.5699140000000  0.5063680000000  0.4270210000000 1.0
C      1  0.5642270000000  0.5599930000000  0.4289040000000 1.0
C      1  0.5271490000000  0.5554110000000  0.5884910000000 1.0
C      1  0.4097760000000  0.5591740000000  0.4735520000000 1.0
C      1  0.4313900000000  0.4421890000000  0.4350120000000 1.0
C      1  0.4706000000000  0.4407340000000  0.5909550000000 1.0
C      1  0.5900170000000  0.4449290000000  0.4791610000000 1.0
C      1  0.3931100000000  0.4584590000000  0.4821350000000 1.0
C      1  0.5628270000000  0.4625210000000  0.4107090000000 1.0
C      1  0.5433510000000  0.4566940000000  0.6014360000000 1.0
C      1  0.6094770000000  0.5436290000000  0.4865620000000 1.0
C      1  0.4316520000000  0.5396350000000  0.4104760000000 1.0
C      1  0.4542500000000  0.5377130000000  0.5996010000000 1.0
C      1  0.5062960000000  0.5619130000000  0.4600240000000 1.0
C      1  0.5302840000000  0.5600340000000  0.5286930000000 1.0
C      1  0.4634070000000  0.5632190000000  0.5236720000000 1.0
C      1  0.5016500000000  0.4372430000000  0.4567120000000 1.0
C      1  0.4688010000000  0.4380410000000  0.5252020000000 1.0
C      1  0.5401150000000  0.4401560000000  0.5117680000000 1.0
C      1  0.5727270000000  0.5343810000000  0.5186280000000 1.0
C      1  0.4498380000000  0.5337760000000  0.5495440000000 1.0
C      1  0.4788610000000  0.5357310000000  0.4314920000000 1.0
C      1  0.4303370000000  0.4648500000000  0.5153280000000 1.0
C      1  0.5526180000000  0.4658670000000  0.5538430000000 1.0
C      1  0.5175800000000  0.4665110000000  0.4316720000000 1.0
C      1  0.4632950000000  0.4535850000000  0.3944560000000 1.0
C      1  0.6152100000000  0.4512220000000  0.5285690000000 1.0
C      1  0.4171800000000  0.4531800000000  0.5819910000000 1.0
C      1  0.5307810000000  0.5477670000000  0.3877190000000 1.0
C      1  0.3901900000000  0.5471150000000  0.5214390000000 1.0
C      1  0.5823980000000  0.5492580000000  0.5852940000000 1.0
C      1  0.4982140000000  0.5357710000000  0.5694480000000 1.0
C      1  0.4438210000000  0.5395240000000  0.4773660000000 1.0
C      1  0.5616260000000  0.5420480000000  0.4643060000000 1.0
C      1  0.5003440000000  0.4582630000000  0.5712070000000 1.0
C      1  0.5589030000000  0.4643920000000  0.4637250000000 1.0
C      1  0.4517920000000  0.4618840000000  0.4623860000000 1.0
C      1  0.4591010000000  0.5364530000000  0.5031450000000 1.0
C      1  0.5301560000000  0.5376940000000  0.4631250000000 1.0
C      1  0.5159090000000  0.5335030000000  0.5431560000000 1.0
C      1  0.5450400000000  0.4667110000000  0.4922230000000 1.0
C      1  0.4818900000000  0.4642270000000  0.4629650000000 1.0
C      1  0.4833460000000  0.4620570000000  0.5446470000000 1.0
C      1  0.4878790000000  0.4219970000000  0.5085010000000 1.0
C      1  0.4977700000000  0.4159830000000  0.4788080000000 1.0
C      1  0.5187830000000  0.4210280000000  0.5020420000000 1.0
C      1  0.5108810000000  0.5787290000000  0.5150890000000 1.0
C      1  0.5004030000000  0.5777750000000  0.4851180000000 1.0
C      1  0.4805260000000  0.5847030000000  0.5093390000000 1.0
C      1  0.5783730000000  0.5638720000000  0.5068000000000 1.0
C      1  0.4550880000000  0.5620870000000  0.5626820000000 1.0
C      1  0.4644620000000  0.5646870000000  0.4262770000000 1.0
C      1  0.4210130000000  0.4350620000000  0.5060600000000 1.0
C      1  0.5455020000000  0.4362320000000  0.5645990000000 1.0
C      1  0.5313670000000  0.4381240000000  0.4300580000000 1.0
C      1  0.5244890000000  0.6060990000000  0.4997850000000 1.0
C      1  0.4771440000000  0.6147840000000  0.5211350000000 1.0
C      1  0.4858030000000  0.6074100000000  0.4769870000000 1.0
C      1  0.4743430000000  0.3918090000000  0.5002190000000 1.0
C      1  0.5126690000000  0.3938240000000  0.5219830000000 1.0
C      1  0.5065630000000  0.3858260000000  0.4703400000000 1.0
C      1  0.5583240000000  0.4412980000000  0.4440920000000 1.0
C      1  0.5185690000000  0.4348780000000  0.5789670000000 1.0
C      1  0.4080720000000  0.4338230000000  0.4784040000000 1.0
C      1  0.4342370000000  0.5728670000000  0.4319930000000 1.0
C      1  0.4808560000000  0.5588300000000  0.5788450000000 1.0
C      1  0.5775160000000  0.5652850000000  0.4763670000000 1.0
C      1  0.5522610000000  0.3948450000000  0.5176140000000 1.0
C      1  0.4496620000000  0.3945270000000  0.5477520000000 1.0
C      1  0.4860530000000  0.3923790000000  0.4367130000000 1.0
C      1  0.4378560000000  0.6078770000000  0.5201840000000 1.0
C      1  0.5410450000000  0.6053750000000  0.5360370000000 1.0
C      1  0.5142790000000  0.6063270000000  0.4324730000000 1.0
C      1  0.5784740000000  0.5317720000000  0.4385780000000 1.0
C      1  0.5124650000000  0.5258210000000  0.5967350000000 1.0
C      1  0.4151220000000  0.5294410000000  0.4621610000000 1.0
C      1  0.4248400000000  0.4725500000000  0.4445350000000 1.0
C      1  0.4863590000000  0.4687260000000  0.5985380000000 1.0
C      1  0.5895750000000  0.4745330000000  0.4623430000000 1.0
C      1  0.4427300000000  0.4973450000000  0.5349410000000 1.0
C      1  0.5598150000000  0.5000770000000  0.5345220000000 1.0
C      1  0.5019630000000  0.5032040000000  0.4334450000000 1.0
END
