TITL C-2782235-7892-1204 -0.00299480011457952 125000 -791.891024755942 0 0 140 (C1) n - 1
REM
REM in /home/nfs/bkarasulu/CARBON/AIRSS/Generating-Clusters/REBO/Higher-Symm/SD-CG/HFTN-CG
REM
REM
REM
REM
REM
REM ./C.cell (12c818d87b63d06a65506943cc24bca4)
REM
REM compiler GCC version 9.2.1 20190827 (Red Hat 9.2.1-1)
REM options -cpp -mtune=generic -march=x86-64 -g -O0 -fpre-include=/usr/include/finclude/math-vector-fortran.h
REM seed 1250424084 2133375969 2047741264 -1548434337 -1399208560 1298541301 -1193893 883440175 -1714511373 1721451822 1305940763 1050219099 -1218725530 1280755194 563890213 -942566490 -606912673 -744709973 1077822225 -1742015857 -1308997086 1540308534 374723063 -1230110287 -98911676 1659466541 -1032027465 750251207 -707909883 2076480803 -1725582827 1197029183 -1287958051
REM
CELL 1.54180   50.00000   50.00000   50.00000   90.00000   90.00000   90.00000
LATT -1
SFAC C  
C      1  0.5789320000000  0.4584110000000  0.5351670000000 1.0
C      1  0.4546560000000  0.5335030000000  0.5754800000000 1.0
C      1  0.5384520000000  0.5764140000000  0.4565250000000 1.0
C      1  0.4197690000000  0.5433170000000  0.5364250000000 1.0
C      1  0.5788730000000  0.5396870000000  0.4637040000000 1.0
C      1  0.4255620000000  0.4600130000000  0.4685940000000 1.0
C      1  0.5441750000000  0.4644280000000  0.5756070000000 1.0
C      1  0.4573580000000  0.4641470000000  0.4244520000000 1.0
C      1  0.5423170000000  0.5350670000000  0.4228220000000 1.0
C      1  0.4656660000000  0.4234530000000  0.4577810000000 1.0
C      1  0.5369800000000  0.4229810000000  0.5424410000000 1.0
C      1  0.4613940000000  0.5773430000000  0.5444870000000 1.0
C      1  0.5790460000000  0.4548510000000  0.4633390000000 1.0
C      1  0.4562330000000  0.5391720000000  0.4235220000000 1.0
C      1  0.5350010000000  0.5786110000000  0.5422540000000 1.0
C      1  0.4242430000000  0.5444280000000  0.4647550000000 1.0
C      1  0.5758100000000  0.5441080000000  0.5358070000000 1.0
C      1  0.4193750000000  0.4551150000000  0.5427830000000 1.0
C      1  0.5440960000000  0.4613720000000  0.4221940000000 1.0
C      1  0.4576480000000  0.4593800000000  0.5798980000000 1.0
C      1  0.5396210000000  0.5365940000000  0.5759150000000 1.0
C      1  0.4624140000000  0.4215340000000  0.5413040000000 1.0
C      1  0.5365370000000  0.4217160000000  0.4572170000000 1.0
C      1  0.4662930000000  0.5791630000000  0.4596010000000 1.0
C      1  0.4149830000000  0.4888760000000  0.4529990000000 1.0
C      1  0.4804290000000  0.4445620000000  0.4087620000000 1.0
C      1  0.4491890000000  0.4091860000000  0.4833900000000 1.0
C      1  0.5885280000000  0.5101320000000  0.4488780000000 1.0
C      1  0.4069420000000  0.5151890000000  0.5508470000000 1.0
C      1  0.5878540000000  0.4887020000000  0.5488000000000 1.0
C      1  0.5128340000000  0.5509670000000  0.4147210000000 1.0
C      1  0.4767840000000  0.5537540000000  0.5919110000000 1.0
C      1  0.5212540000000  0.4457210000000  0.5918360000000 1.0
C      1  0.5569620000000  0.5918520000000  0.4806590000000 1.0
C      1  0.4430240000000  0.5932170000000  0.5206700000000 1.0
C      1  0.5498170000000  0.4127880000000  0.5123350000000 1.0
C      1  0.4094960000000  0.4831900000000  0.5592950000000 1.0
C      1  0.4887650000000  0.4478740000000  0.5881110000000 1.0
C      1  0.4430020000000  0.4123970000000  0.5150270000000 1.0
C      1  0.5917360000000  0.5210400000000  0.5551790000000 1.0
C      1  0.4090680000000  0.5206940000000  0.4455570000000 1.0
C      1  0.5947720000000  0.4775680000000  0.4432280000000 1.0
C      1  0.5096660000000  0.5501780000000  0.5859420000000 1.0
C      1  0.4808660000000  0.5575410000000  0.4088900000000 1.0
C      1  0.5133610000000  0.4478910000000  0.4143310000000 1.0
C      1  0.5499130000000  0.5890310000000  0.5132750000000 1.0
C      1  0.4504880000000  0.5884070000000  0.4887320000000 1.0
C      1  0.5552170000000  0.4052780000000  0.4805370000000 1.0
C      1  0.4773840000000  0.4544260000000  0.4847610000000 1.0
C      1  0.4600410000000  0.4804510000000  0.4758590000000 1.0
C      1  0.4898810000000  0.4723950000000  0.4534510000000 1.0
C      1  0.5294880000000  0.5501090000000  0.4852290000000 1.0
C      1  0.4682790000000  0.5438290000000  0.5145050000000 1.0
C      1  0.5245780000000  0.4538730000000  0.5203080000000 1.0
C      1  0.5472400000000  0.5179230000000  0.4749090000000 1.0
C      1  0.4549650000000  0.5164590000000  0.5242710000000 1.0
C      1  0.5510940000000  0.4835930000000  0.5218200000000 1.0
C      1  0.5211780000000  0.5249130000000  0.4577550000000 1.0
C      1  0.4841540000000  0.5285980000000  0.5457080000000 1.0
C      1  0.5179500000000  0.4734480000000  0.5444390000000 1.0
C      1  0.4687880000000  0.4581010000000  0.5176560000000 1.0
C      1  0.4553160000000  0.4847080000000  0.5312820000000 1.0
C      1  0.4859410000000  0.4708050000000  0.5493300000000 1.0
C      1  0.5225620000000  0.5461850000000  0.5168770000000 1.0
C      1  0.4760690000000  0.5439080000000  0.4817120000000 1.0
C      1  0.5287020000000  0.4470890000000  0.4881330000000 1.0
C      1  0.5528840000000  0.5125360000000  0.5276500000000 1.0
C      1  0.4566660000000  0.5129950000000  0.4705820000000 1.0
C      1  0.5493400000000  0.4861150000000  0.4692200000000 1.0
C      1  0.5161330000000  0.5262090000000  0.5407170000000 1.0
C      1  0.4881910000000  0.5283030000000  0.4555760000000 1.0
C      1  0.5220980000000  0.4728130000000  0.4607000000000 1.0
C      1  0.4824950000000  0.4378790000000  0.5572380000000 1.0
C      1  0.4451940000000  0.5564370000000  0.4845960000000 1.0
C      1  0.5622270000000  0.4816820000000  0.4389780000000 1.0
C      1  0.5137380000000  0.5575630000000  0.5540010000000 1.0
C      1  0.4848780000000  0.5596450000000  0.4424420000000 1.0
C      1  0.5175220000000  0.4443010000000  0.4466350000000 1.0
C      1  0.5611800000000  0.4386230000000  0.4836050000000 1.0
C      1  0.4377510000000  0.4443210000000  0.5197320000000 1.0
C      1  0.5543780000000  0.5560760000000  0.5156870000000 1.0
C      1  0.4420170000000  0.5175790000000  0.4410630000000 1.0
C      1  0.5581790000000  0.5174170000000  0.5597210000000 1.0
C      1  0.4433080000000  0.4809110000000  0.5615090000000 1.0
C      1  0.4851210000000  0.4414340000000  0.4418480000000 1.0
C      1  0.4385420000000  0.5602400000000  0.5165730000000 1.0
C      1  0.5560680000000  0.4840080000000  0.5554500000000 1.0
C      1  0.5175510000000  0.5550690000000  0.4467730000000 1.0
C      1  0.4811630000000  0.5585910000000  0.5592520000000 1.0
C      1  0.5157070000000  0.4424970000000  0.5583340000000 1.0
C      1  0.5571110000000  0.4447970000000  0.5158300000000 1.0
C      1  0.4455440000000  0.4427660000000  0.4874540000000 1.0
C      1  0.5620090000000  0.5582490000000  0.4830350000000 1.0
C      1  0.4406830000000  0.5139860000000  0.5541730000000 1.0
C      1  0.5566170000000  0.5145870000000  0.4422060000000 1.0
C      1  0.4463730000000  0.4845660000000  0.4451090000000 1.0
C      1  0.5193910000000  0.4799770000000  0.4089690000000 1.0
C      1  0.4768380000000  0.4104630000000  0.5121880000000 1.0
C      1  0.4076990000000  0.5181370000000  0.4791310000000 1.0
C      1  0.4837860000000  0.5237160000000  0.4122410000000 1.0
C      1  0.5152680000000  0.5174060000000  0.5896790000000 1.0
C      1  0.4823110000000  0.4808290000000  0.5877770000000 1.0
C      1  0.5160550000000  0.5856030000000  0.5154990000000 1.0
C      1  0.4835010000000  0.5932520000000  0.4856180000000 1.0
C      1  0.5215700000000  0.4080590000000  0.4846220000000 1.0
C      1  0.5946400000000  0.4822300000000  0.4767020000000 1.0
C      1  0.4157740000000  0.4843770000000  0.5257260000000 1.0
C      1  0.5919400000000  0.5174290000000  0.5214020000000 1.0
C      1  0.5142480000000  0.4782730000000  0.5838600000000 1.0
C      1  0.4823680000000  0.4040110000000  0.4802900000000 1.0
C      1  0.4155450000000  0.5158250000000  0.5180200000000 1.0
C      1  0.4830900000000  0.5205840000000  0.5893020000000 1.0
C      1  0.5156030000000  0.5179210000000  0.4116640000000 1.0
C      1  0.4868600000000  0.4777380000000  0.4140140000000 1.0
C      1  0.5231640000000  0.5895660000000  0.4837480000000 1.0
C      1  0.4769700000000  0.5928060000000  0.5182360000000 1.0
C      1  0.5163150000000  0.4149300000000  0.5166560000000 1.0
C      1  0.5906060000000  0.4842230000000  0.5160450000000 1.0
C      1  0.4109210000000  0.4855220000000  0.4860840000000 1.0
C      1  0.5938770000000  0.5147940000000  0.4816920000000 1.0
C      1  0.5210560000000  0.4974000000000  0.4382740000000 1.0
C      1  0.4775700000000  0.5012940000000  0.5618280000000 1.0
C      1  0.5210210000000  0.5019900000000  0.5599940000000 1.0
C      1  0.4930170000000  0.5628000000000  0.5201990000000 1.0
C      1  0.4941770000000  0.4384800000000  0.5192740000000 1.0
C      1  0.4814820000000  0.5014080000000  0.4378340000000 1.0
C      1  0.4996530000000  0.5650330000000  0.4808650000000 1.0
C      1  0.4991120000000  0.4336040000000  0.4800950000000 1.0
C      1  0.4393550000000  0.4796760000000  0.5014570000000 1.0
C      1  0.5663150000000  0.5220340000000  0.4991920000000 1.0
C      1  0.4378690000000  0.5189190000000  0.4949310000000 1.0
C      1  0.5657510000000  0.4769330000000  0.4938960000000 1.0
C      1  0.5536570000000  0.5568650000000  0.5555970000000 1.0
C      1  0.4427590000000  0.4406930000000  0.5591490000000 1.0
C      1  0.5572400000000  0.4423270000000  0.4439900000000 1.0
C      1  0.4450090000000  0.5590780000000  0.4449170000000 1.0
C      1  0.5574020000000  0.5543790000000  0.4435830000000 1.0
C      1  0.4451340000000  0.4448890000000  0.4475250000000 1.0
C      1  0.5576900000000  0.4440780000000  0.5555790000000 1.0
C      1  0.4415800000000  0.5547280000000  0.5559790000000 1.0
END
