TITL C-2782228-2999-1423 0.00123761118174389 125000 -431.120713736933 0 0 72 (C1) n - 1
REM
REM in /home/nfs/bkarasulu/CARBON/AIRSS/Generating-Clusters/REBO/Higher-Symm/SD-CG/HFTN-CG
REM
REM
REM
REM
REM
REM ./C.cell (12c818d87b63d06a65506943cc24bca4)
REM
REM compiler GCC version 9.2.1 20190827 (Red Hat 9.2.1-1)
REM options -cpp -mtune=generic -march=x86-64 -g -O0 -fpre-include=/usr/include/finclude/math-vector-fortran.h
REM seed 1874773664 365012588 392312936 -87187599 1648002517 -1401098221 -512698550 495229705 -1730106976 2001089351 -489967282 -511707156 605632004 2075760941 -752676544 2000110852 638407343 2062867779 -1098760488 1594387701 -98858523 1160132966 2093198185 36336430 -1562337618 805384189 585783537 -937176823 1726719021 482062767 125794230 439059317 -1517901437
REM
CELL 1.54180   50.00000   50.00000   50.00000   90.00000   90.00000   90.00000
LATT -1
SFAC C  
C      1  0.5603950000000  0.5356150000000  0.4932710000000 1.0
C      1  0.5668060000000  0.4692890000000  0.4669840000000 1.0
C      1  0.5659490000000  0.4881070000000  0.5410380000000 1.0
C      1  0.5665170000000  0.4603840000000  0.4903370000000 1.0
C      1  0.5626490000000  0.5234110000000  0.4717950000000 1.0
C      1  0.5641640000000  0.5130190000000  0.5420470000000 1.0
C      1  0.5150760000000  0.4652090000000  0.4942580000000 1.0
C      1  0.5160710000000  0.5127920000000  0.5246460000000 1.0
C      1  0.5106370000000  0.5151540000000  0.4693940000000 1.0
C      1  0.5075700000000  0.5294460000000  0.4977950000000 1.0
C      1  0.5172490000000  0.4805400000000  0.5231500000000 1.0
C      1  0.5175200000000  0.4829950000000  0.4680630000000 1.0
C      1  0.5356000000000  0.5442640000000  0.5099260000000 1.0
C      1  0.5436060000000  0.4806380000000  0.4498260000000 1.0
C      1  0.5428270000000  0.4677620000000  0.5381650000000 1.0
C      1  0.5423600000000  0.4530040000000  0.5088150000000 1.0
C      1  0.5401130000000  0.5125610000000  0.4536060000000 1.0
C      1  0.5383400000000  0.5298720000000  0.5394530000000 1.0
C      1  0.4360260000000  0.5132320000000  0.4775410000000 1.0
C      1  0.4338260000000  0.4698540000000  0.5041060000000 1.0
C      1  0.4303090000000  0.5143270000000  0.5270110000000 1.0
C      1  0.4334930000000  0.4834060000000  0.4797710000000 1.0
C      1  0.4346550000000  0.5285540000000  0.5008610000000 1.0
C      1  0.4308900000000  0.4868150000000  0.5287570000000 1.0
C      1  0.4850180000000  0.4886100000000  0.5305620000000 1.0
C      1  0.4746470000000  0.5340220000000  0.5006250000000 1.0
C      1  0.4853240000000  0.4853290000000  0.4771170000000 1.0
C      1  0.4834690000000  0.5197400000000  0.5281870000000 1.0
C      1  0.4835330000000  0.4694070000000  0.5047980000000 1.0
C      1  0.4775960000000  0.5170900000000  0.4746310000000 1.0
C      1  0.5100860000000  0.4869640000000  0.4289940000000 1.0
C      1  0.5099520000000  0.4462030000000  0.5449810000000 1.0
C      1  0.5064830000000  0.5670910000000  0.5248970000000 1.0
C      1  0.5085700000000  0.5117580000000  0.4291710000000 1.0
C      1  0.5076250000000  0.5544650000000  0.5462510000000 1.0
C      1  0.5103310000000  0.4340590000000  0.5233700000000 1.0
C      1  0.5279520000000  0.4646880000000  0.5672980000000 1.0
C      1  0.5266600000000  0.5741960000000  0.4984270000000 1.0
C      1  0.5273090000000  0.4577820000000  0.4328960000000 1.0
C      1  0.5257400000000  0.5357070000000  0.5682720000000 1.0
C      1  0.5285750000000  0.4249840000000  0.4960990000000 1.0
C      1  0.5280910000000  0.5387700000000  0.4360410000000 1.0
C      1  0.4794200000000  0.5797070000000  0.4693800000000 1.0
C      1  0.4778350000000  0.4368970000000  0.4470820000000 1.0
C      1  0.4782160000000  0.4865190000000  0.5811820000000 1.0
C      1  0.4793890000000  0.4223560000000  0.4695540000000 1.0
C      1  0.4799190000000  0.5657270000000  0.4465350000000 1.0
C      1  0.4766570000000  0.5132860000000  0.5806750000000 1.0
C      1  0.4942880000000  0.4581880000000  0.4268570000000 1.0
C      1  0.4955380000000  0.4586450000000  0.5721370000000 1.0
C      1  0.4950940000000  0.5846710000000  0.4990310000000 1.0
C      1  0.4960610000000  0.5424740000000  0.4277310000000 1.0
C      1  0.4933150000000  0.5416760000000  0.5730260000000 1.0
C      1  0.4967010000000  0.4168140000000  0.4983050000000 1.0
C      1  0.5387110000000  0.5644690000000  0.4488410000000 1.0
C      1  0.5378930000000  0.4207800000000  0.4673250000000 1.0
C      1  0.5353420000000  0.5127650000000  0.5862750000000 1.0
C      1  0.5363030000000  0.4310670000000  0.4449170000000 1.0
C      1  0.5383110000000  0.5768220000000  0.4702260000000 1.0
C      1  0.5364900000000  0.4880730000000  0.5852200000000 1.0
C      1  0.4634450000000  0.5411680000000  0.4336310000000 1.0
C      1  0.4644870000000  0.4236790000000  0.4978420000000 1.0
C      1  0.4613310000000  0.5371650000000  0.5649170000000 1.0
C      1  0.4631080000000  0.4642270000000  0.4380390000000 1.0
C      1  0.4621340000000  0.5810950000000  0.4966730000000 1.0
C      1  0.4635100000000  0.4633000000000  0.5646390000000 1.0
C      1  0.4582300000000  0.4706250000000  0.5356870000000 1.0
C      1  0.4523000000000  0.5554790000000  0.5073690000000 1.0
C      1  0.4583360000000  0.4862290000000  0.4583450000000 1.0
C      1  0.4544130000000  0.5350330000000  0.5349210000000 1.0
C      1  0.4584440000000  0.4501680000000  0.5084930000000 1.0
C      1  0.4551710000000  0.5197820000000  0.4519090000000 1.0
END
