TITL C-2782227-3064-422 0.00101051627134768 125000 -656.399566518966 0 0 111 (C1) n - 1
REM
REM in /home/nfs/bkarasulu/CARBON/AIRSS/Generating-Clusters/REBO/Higher-Symm/SD-CG/HFTN-CG
REM
REM
REM
REM
REM
REM ./C.cell (12c818d87b63d06a65506943cc24bca4)
REM
REM compiler GCC version 9.2.1 20190827 (Red Hat 9.2.1-1)
REM options -cpp -mtune=generic -march=x86-64 -g -O0 -fpre-include=/usr/include/finclude/math-vector-fortran.h
REM seed -1011542833 599480081 1250250725 -1045749274 1501445849 1287649400 310358246 -2123063462 -1797220385 -347247509 143175866 -701340180 -1849731792 636092061 -1191418406 945531466 -703118227 476412562 2133261562 164580818 566709932 2131122098 908681364 1180505474 -1854319380 465616094 -759447320 1732262447 982829553 -1858692839 679232132 -1591165044 136718484
REM
CELL 1.54180   50.00000   50.00000   50.00000   90.00000   90.00000   90.00000
LATT -1
SFAC C  
C      1  0.5597960000000  0.5492020000000  0.5452870000000 1.0
C      1  0.5538800000000  0.4386950000000  0.5233090000000 1.0
C      1  0.5563580000000  0.5171920000000  0.4335370000000 1.0
C      1  0.4418950000000  0.4520270000000  0.5437240000000 1.0
C      1  0.4454430000000  0.5596310000000  0.5228760000000 1.0
C      1  0.4422820000000  0.4828770000000  0.4328410000000 1.0
C      1  0.5607060000000  0.4580470000000  0.4641800000000 1.0
C      1  0.5768380000000  0.5548600000000  0.4824290000000 1.0
C      1  0.5805780000000  0.4892620000000  0.5550200000000 1.0
C      1  0.4365030000000  0.5425340000000  0.4623540000000 1.0
C      1  0.4224710000000  0.4447240000000  0.4815160000000 1.0
C      1  0.4184770000000  0.5103010000000  0.5547390000000 1.0
C      1  0.4330370000000  0.5611270000000  0.4910750000000 1.0
C      1  0.4341700000000  0.4806720000000  0.5612440000000 1.0
C      1  0.4361490000000  0.4552470000000  0.4521690000000 1.0
C      1  0.5659460000000  0.4389420000000  0.4919180000000 1.0
C      1  0.5702260000000  0.5210530000000  0.5620870000000 1.0
C      1  0.5627740000000  0.5444900000000  0.4531740000000 1.0
C      1  0.4620000000000  0.4354570000000  0.4802790000000 1.0
C      1  0.4899450000000  0.5424740000000  0.4601160000000 1.0
C      1  0.4682850000000  0.5206440000000  0.5623820000000 1.0
C      1  0.5356300000000  0.5621560000000  0.4812050000000 1.0
C      1  0.5074740000000  0.4569950000000  0.4594070000000 1.0
C      1  0.5217740000000  0.4923520000000  0.5666790000000 1.0
C      1  0.5269420000000  0.4805450000000  0.4750740000000 1.0
C      1  0.5389710000000  0.5426830000000  0.4992660000000 1.0
C      1  0.5284960000000  0.4905110000000  0.5369150000000 1.0
C      1  0.4706460000000  0.5191750000000  0.4762260000000 1.0
C      1  0.4578050000000  0.4561830000000  0.4964820000000 1.0
C      1  0.4644180000000  0.5064480000000  0.5349880000000 1.0
C      1  0.4760680000000  0.4790860000000  0.5351830000000 1.0
C      1  0.4893610000000  0.4748210000000  0.4395990000000 1.0
C      1  0.4834400000000  0.5370730000000  0.4991440000000 1.0
C      1  0.5193780000000  0.5202770000000  0.5384530000000 1.0
C      1  0.5078660000000  0.5247090000000  0.4400640000000 1.0
C      1  0.5146880000000  0.4621940000000  0.4981980000000 1.0
C      1  0.4542540000000  0.5120320000000  0.4197310000000 1.0
C      1  0.4560830000000  0.5502240000000  0.5538840000000 1.0
C      1  0.4523280000000  0.4248980000000  0.5256780000000 1.0
C      1  0.5450480000000  0.4878770000000  0.4202300000000 1.0
C      1  0.5471560000000  0.4392620000000  0.5562000000000 1.0
C      1  0.5484100000000  0.5758890000000  0.5271470000000 1.0
C      1  0.5178430000000  0.4480250000000  0.4221760000000 1.0
C      1  0.5184500000000  0.5961900000000  0.4924130000000 1.0
C      1  0.5179740000000  0.4596960000000  0.5883830000000 1.0
C      1  0.4810540000000  0.5520940000000  0.4226230000000 1.0
C      1  0.4811150000000  0.4025660000000  0.4913930000000 1.0
C      1  0.4854110000000  0.5410800000000  0.5920330000000 1.0
C      1  0.4359500000000  0.5281690000000  0.4938450000000 1.0
C      1  0.4284950000000  0.4897150000000  0.5295840000000 1.0
C      1  0.4307980000000  0.4778170000000  0.4771150000000 1.0
C      1  0.5597200000000  0.4720120000000  0.4960970000000 1.0
C      1  0.5703600000000  0.5100920000000  0.5303560000000 1.0
C      1  0.5663970000000  0.5224050000000  0.4787990000000 1.0
C      1  0.4590490000000  0.4067950000000  0.4658510000000 1.0
C      1  0.4617950000000  0.5565710000000  0.4481580000000 1.0
C      1  0.4626040000000  0.5176630000000  0.5958650000000 1.0
C      1  0.5397530000000  0.5914900000000  0.4681460000000 1.0
C      1  0.5364230000000  0.4438600000000  0.4484830000000 1.0
C      1  0.5399980000000  0.4830790000000  0.5906370000000 1.0
C      1  0.5056720000000  0.4182790000000  0.5616580000000 1.0
C      1  0.5064930000000  0.4883820000000  0.3933460000000 1.0
C      1  0.5066530000000  0.5926580000000  0.5408310000000 1.0
C      1  0.4931610000000  0.5816450000000  0.5615020000000 1.0
C      1  0.4932910000000  0.5121200000000  0.3935810000000 1.0
C      1  0.4929560000000  0.4071960000000  0.5404200000000 1.0
C      1  0.4820640000000  0.4668810000000  0.5063600000000 1.0
C      1  0.4824440000000  0.5047070000000  0.4504540000000 1.0
C      1  0.4881660000000  0.5234110000000  0.5278010000000 1.0
C      1  0.5146600000000  0.5326960000000  0.5097070000000 1.0
C      1  0.5143960000000  0.4948740000000  0.4500050000000 1.0
C      1  0.5071650000000  0.4762020000000  0.5252000000000 1.0
C      1  0.4264170000000  0.5402340000000  0.5436630000000 1.0
C      1  0.4262490000000  0.4400610000000  0.5150010000000 1.0
C      1  0.4327630000000  0.5142750000000  0.4436720000000 1.0
C      1  0.5693150000000  0.4603270000000  0.5450660000000 1.0
C      1  0.5741290000000  0.5600480000000  0.5157320000000 1.0
C      1  0.5651620000000  0.4861060000000  0.4454870000000 1.0
C      1  0.5278300000000  0.4354330000000  0.5023600000000 1.0
C      1  0.5325790000000  0.5391440000000  0.4281690000000 1.0
C      1  0.5333850000000  0.5353180000000  0.5601600000000 1.0
C      1  0.4708750000000  0.5641800000000  0.5025470000000 1.0
C      1  0.4655750000000  0.4600600000000  0.4262480000000 1.0
C      1  0.4694730000000  0.4629800000000  0.5603980000000 1.0
C      1  0.4884980000000  0.5864480000000  0.4842660000000 1.0
C      1  0.4908700000000  0.4730760000000  0.5835560000000 1.0
C      1  0.4892320000000  0.4359190000000  0.4309740000000 1.0
C      1  0.5108080000000  0.4131880000000  0.4830810000000 1.0
C      1  0.5154130000000  0.5291090000000  0.5877050000000 1.0
C      1  0.5091750000000  0.5637030000000  0.4323090000000 1.0
C      1  0.4741030000000  0.4091700000000  0.5192890000000 1.0
C      1  0.4753510000000  0.5270300000000  0.4094290000000 1.0
C      1  0.4780990000000  0.5608390000000  0.5726250000000 1.0
C      1  0.5259580000000  0.5905700000000  0.5201820000000 1.0
C      1  0.5240880000000  0.4731140000000  0.4092480000000 1.0
C      1  0.5243990000000  0.4369630000000  0.5717350000000 1.0
C      1  0.5414080000000  0.5688700000000  0.4427310000000 1.0
C      1  0.5468300000000  0.5161290000000  0.5856610000000 1.0
C      1  0.5415130000000  0.4241860000000  0.4733290000000 1.0
C      1  0.4570230000000  0.4305320000000  0.4414160000000 1.0
C      1  0.4596170000000  0.4870250000000  0.5829430000000 1.0
C      1  0.4579650000000  0.5760460000000  0.4733960000000 1.0
C      1  0.4411250000000  0.5044270000000  0.4725180000000 1.0
C      1  0.4381310000000  0.5190700000000  0.5212890000000 1.0
C      1  0.4315320000000  0.4713000000000  0.5090450000000 1.0
C      1  0.5560300000000  0.4960400000000  0.4743700000000 1.0
C      1  0.5560940000000  0.4818900000000  0.5245760000000 1.0
C      1  0.5661400000000  0.5291250000000  0.5103920000000 1.0
C      1  0.5077790000000  0.5679060000000  0.4662480000000 1.0
C      1  0.4904960000000  0.4309680000000  0.4649190000000 1.0
C      1  0.4942220000000  0.5059720000000  0.5754350000000 1.0
END
