TITL C-2782226-7400-1383 0.00203146638739702 125000 -619.927561236871 0 0 113 (C1) n - 1
REM
REM in /home/nfs/bkarasulu/CARBON/AIRSS/Generating-Clusters/REBO/Higher-Symm/SD-CG/HFTN-CG
REM
REM
REM
REM
REM
REM ./C.cell (12c818d87b63d06a65506943cc24bca4)
REM
REM compiler GCC version 9.2.1 20190827 (Red Hat 9.2.1-1)
REM options -cpp -mtune=generic -march=x86-64 -g -O0 -fpre-include=/usr/include/finclude/math-vector-fortran.h
REM seed 1744897640 999239392 -39628236 1966921322 -680871035 -890895049 -404745339 1838236343 1418024984 1280133994 -652888898 -647384375 -198260988 2050731553 248344781 -2120861915 765045215 85828426 -2087934310 1465868908 1815243338 -759204724 222584696 -778474110 288848728 -1697263288 2103011364 606910418 -286047805 -1526518101 64144339 -1312122242 -903801617
REM
CELL 1.54180   50.00000   50.00000   50.00000   90.00000   90.00000   90.00000
LATT -1
SFAC C  
C      1  0.5508140000000  0.4874860000000  0.5580250000000 1.0
C      1  0.5567030000000  0.5543390000000  0.5319280000000 1.0
C      1  0.5574860000000  0.5463830000000  0.4604170000000 1.0
C      1  0.5506690000000  0.4802170000000  0.4388710000000 1.0
C      1  0.5525030000000  0.4436890000000  0.4988140000000 1.0
C      1  0.4442940000000  0.4802370000000  0.5534890000000 1.0
C      1  0.4479570000000  0.5486310000000  0.5322890000000 1.0
C      1  0.4502710000000  0.5542100000000  0.4610620000000 1.0
C      1  0.4492650000000  0.4824540000000  0.4419580000000 1.0
C      1  0.4499780000000  0.4358430000000  0.4992200000000 1.0
C      1  0.5221000000000  0.4955890000000  0.4491660000000 1.0
C      1  0.5229590000000  0.4503120000000  0.4887630000000 1.0
C      1  0.5260910000000  0.4695380000000  0.5463460000000 1.0
C      1  0.5241220000000  0.5294270000000  0.5369820000000 1.0
C      1  0.5244150000000  0.5456360000000  0.4828370000000 1.0
C      1  0.4758940000000  0.5010940000000  0.4490420000000 1.0
C      1  0.4754410000000  0.4513660000000  0.4840100000000 1.0
C      1  0.4737720000000  0.4701890000000  0.5426110000000 1.0
C      1  0.4748030000000  0.5313610000000  0.5437230000000 1.0
C      1  0.4765560000000  0.5523870000000  0.4827040000000 1.0
C      1  0.5177070000000  0.4618850000000  0.4280440000000 1.0
C      1  0.5174160000000  0.4195020000000  0.5136080000000 1.0
C      1  0.5048660000000  0.4830210000000  0.5772910000000 1.0
C      1  0.5184530000000  0.5699600000000  0.5367130000000 1.0
C      1  0.5215120000000  0.5555940000000  0.4437360000000 1.0
C      1  0.4882170000000  0.4715830000000  0.4253200000000 1.0
C      1  0.4877580000000  0.4204040000000  0.5057830000000 1.0
C      1  0.4744720000000  0.4794140000000  0.5813090000000 1.0
C      1  0.4890040000000  0.5684870000000  0.5454600000000 1.0
C      1  0.4924150000000  0.5653470000000  0.4486220000000 1.0
C      1  0.4571360000000  0.5363370000000  0.4352460000000 1.0
C      1  0.4553570000000  0.4513710000000  0.4474950000000 1.0
C      1  0.4561760000000  0.4325630000000  0.5306000000000 1.0
C      1  0.4491620000000  0.5084510000000  0.5677050000000 1.0
C      1  0.4562340000000  0.5715050000000  0.5113970000000 1.0
C      1  0.5515020000000  0.5301670000000  0.4341510000000 1.0
C      1  0.5500260000000  0.4470760000000  0.4468860000000 1.0
C      1  0.5500350000000  0.4406760000000  0.5322890000000 1.0
C      1  0.5450430000000  0.5185500000000  0.5708150000000 1.0
C      1  0.5524340000000  0.5758120000000  0.5069170000000 1.0
C      1  0.5211310000000  0.5272710000000  0.4248300000000 1.0
C      1  0.5192300000000  0.4352300000000  0.4492550000000 1.0
C      1  0.5220660000000  0.4299500000000  0.5437830000000 1.0
C      1  0.5128310000000  0.5161480000000  0.5766850000000 1.0
C      1  0.5208680000000  0.5817220000000  0.5055950000000 1.0
C      1  0.4889990000000  0.5382760000000  0.4281960000000 1.0
C      1  0.4863650000000  0.4426350000000  0.4432730000000 1.0
C      1  0.4880810000000  0.4278680000000  0.5394490000000 1.0
C      1  0.4788910000000  0.5131710000000  0.5792530000000 1.0
C      1  0.4876210000000  0.5796630000000  0.5132340000000 1.0
C      1  0.4432310000000  0.5739430000000  0.4865540000000 1.0
C      1  0.4432470000000  0.5126240000000  0.4292950000000 1.0
C      1  0.4420410000000  0.4369410000000  0.4675150000000 1.0
C      1  0.4405900000000  0.4485480000000  0.5476130000000 1.0
C      1  0.4370780000000  0.5311320000000  0.5569160000000 1.0
C      1  0.5610110000000  0.5659520000000  0.4806290000000 1.0
C      1  0.5668910000000  0.5058030000000  0.4308540000000 1.0
C      1  0.5670610000000  0.4416530000000  0.4713550000000 1.0
C      1  0.5649390000000  0.4601800000000  0.5478090000000 1.0
C      1  0.5570600000000  0.5399900000000  0.5569030000000 1.0
C      1  0.3973020000000  0.5475280000000  0.5146360000000 1.0
C      1  0.4006080000000  0.5214550000000  0.4609850000000 1.0
C      1  0.4022370000000  0.4649930000000  0.4702290000000 1.0
C      1  0.4023280000000  0.4556200000000  0.5280330000000 1.0
C      1  0.4056990000000  0.5063810000000  0.5573920000000 1.0
C      1  0.5966850000000  0.5518420000000  0.4918360000000 1.0
C      1  0.5913320000000  0.5066490000000  0.4452540000000 1.0
C      1  0.5943250000000  0.4529820000000  0.4731870000000 1.0
C      1  0.5921710000000  0.4653510000000  0.5380550000000 1.0
C      1  0.5963560000000  0.5245700000000  0.5430750000000 1.0
C      1  0.4220490000000  0.4814980000000  0.4861160000000 1.0
C      1  0.4216410000000  0.4762700000000  0.5173190000000 1.0
C      1  0.4208880000000  0.5040630000000  0.5315860000000 1.0
C      1  0.4178550000000  0.5260650000000  0.5104660000000 1.0
C      1  0.4221150000000  0.5128960000000  0.4809600000000 1.0
C      1  0.5770500000000  0.4774490000000  0.4860960000000 1.0
C      1  0.5754980000000  0.4835500000000  0.5171390000000 1.0
C      1  0.5764450000000  0.5145100000000  0.5226360000000 1.0
C      1  0.5770180000000  0.5291150000000  0.4953600000000 1.0
C      1  0.5789610000000  0.5061140000000  0.4737700000000 1.0
C      1  0.4813270000000  0.5402160000000  0.5122660000000 1.0
C      1  0.4846030000000  0.5252290000000  0.4656530000000 1.0
C      1  0.4835130000000  0.4749250000000  0.4665100000000 1.0
C      1  0.4839180000000  0.4590190000000  0.5152490000000 1.0
C      1  0.4854670000000  0.5004750000000  0.5419370000000 1.0
C      1  0.5121650000000  0.5398910000000  0.5112970000000 1.0
C      1  0.5148010000000  0.5220800000000  0.4642160000000 1.0
C      1  0.5139140000000  0.4705980000000  0.4668070000000 1.0
C      1  0.5139680000000  0.4603860000000  0.5172800000000 1.0
C      1  0.5153400000000  0.4991710000000  0.5406230000000 1.0
C      1  0.5149220000000  0.4513330000000  0.5692570000000 1.0
C      1  0.5181350000000  0.5471190000000  0.5622090000000 1.0
C      1  0.5230480000000  0.5750410000000  0.4719350000000 1.0
C      1  0.5196320000000  0.4941410000000  0.4164710000000 1.0
C      1  0.5177620000000  0.4194850000000  0.4795110000000 1.0
C      1  0.4828630000000  0.4500800000000  0.5656140000000 1.0
C      1  0.4862430000000  0.5451860000000  0.5701660000000 1.0
C      1  0.4911810000000  0.5805490000000  0.4791560000000 1.0
C      1  0.4883100000000  0.5051980000000  0.4195810000000 1.0
C      1  0.4864750000000  0.4236560000000  0.4717240000000 1.0
C      1  0.4538740000000  0.5017200000000  0.5285710000000 1.0
C      1  0.4491940000000  0.5321280000000  0.5031460000000 1.0
C      1  0.4513130000000  0.5232600000000  0.4725950000000 1.0
C      1  0.4509360000000  0.4834420000000  0.4746890000000 1.0
C      1  0.4503830000000  0.4666950000000  0.5106780000000 1.0
C      1  0.5481490000000  0.5081750000000  0.5327520000000 1.0
C      1  0.5467200000000  0.5367790000000  0.5051230000000 1.0
C      1  0.5480100000000  0.5161120000000  0.4713180000000 1.0
C      1  0.5479450000000  0.4767420000000  0.4725930000000 1.0
C      1  0.5449200000000  0.4744890000000  0.5117980000000 1.0
C      1  0.5285360000000  0.4972490000000  0.4923570000000 1.0
C      1  0.4704120000000  0.4931150000000  0.5000660000000 1.0
C      1  0.4991690000000  0.4975830000000  0.4959790000000 1.0
END
