TITL C-2782234-8014-97 0.000650214205538163 125000 -297.834869873835 0 0 48 (C4h) n - 1
REM
REM in /home/nfs/bkarasulu/CARBON/AIRSS/Generating-Clusters/REBO/Higher-Symm/SD-CG/HFTN-CG
REM
REM
REM
REM
REM
REM ./C.cell (12c818d87b63d06a65506943cc24bca4)
REM
REM compiler GCC version 9.2.1 20190827 (Red Hat 9.2.1-1)
REM options -cpp -mtune=generic -march=x86-64 -g -O0 -fpre-include=/usr/include/finclude/math-vector-fortran.h
REM seed 1135279620 1495387287 -71248760 414763042 -1400127246 950867269 1204767770 150732048 289274708 -1123194890 259018699 -194987261 -1389088964 -1139385920 1712727625 791806220 -1425109252 -384124219 899628675 -1687292473 1284602604 1849238413 2031654852 1425408488 1091777685 1432127885 671437091 409162627 -2083829256 -1599144584 425110662 -1945156515 -98947340
REM
CELL 1.54180   50.00000   50.00000   50.00000   90.00000   90.00000   90.00000
LATT -1
SFAC C  
C      1  0.4410450000000  0.4914650000000  0.4643090000000 1.0
C      1  0.4410470000000  0.5356930000000  0.4914660000000 1.0
C      1  0.4410470000000  0.5085370000000  0.5356940000000 1.0
C      1  0.4410460000000  0.4643090000000  0.5085380000000 1.0
C      1  0.5589530000000  0.4914630000000  0.4643060000000 1.0
C      1  0.5589540000000  0.5356910000000  0.4914620000000 1.0
C      1  0.5589550000000  0.5085350000000  0.5356910000000 1.0
C      1  0.5589530000000  0.4643070000000  0.5085340000000 1.0
C      1  0.4873510000000  0.4506620000000  0.5667850000000 1.0
C      1  0.4873470000000  0.4332160000000  0.4506630000000 1.0
C      1  0.4873490000000  0.5493380000000  0.4332160000000 1.0
C      1  0.4873520000000  0.5667850000000  0.5493380000000 1.0
C      1  0.5126510000000  0.4506620000000  0.5667840000000 1.0
C      1  0.5126480000000  0.4332150000000  0.4506620000000 1.0
C      1  0.5126490000000  0.5493380000000  0.4332150000000 1.0
C      1  0.5126530000000  0.5667840000000  0.5493370000000 1.0
C      1  0.4862040000000  0.4975380000000  0.5485910000000 1.0
C      1  0.4862020000000  0.4514100000000  0.4975380000000 1.0
C      1  0.4862010000000  0.5024620000000  0.4514100000000 1.0
C      1  0.4862040000000  0.5485910000000  0.5024630000000 1.0
C      1  0.5137990000000  0.4975380000000  0.5485900000000 1.0
C      1  0.5137960000000  0.4514090000000  0.4975370000000 1.0
C      1  0.5137960000000  0.5024620000000  0.4514090000000 1.0
C      1  0.5137980000000  0.5485900000000  0.5024620000000 1.0
C      1  0.5310240000000  0.5429770000000  0.4814870000000 1.0
C      1  0.5310250000000  0.5185120000000  0.5429760000000 1.0
C      1  0.5310240000000  0.4570220000000  0.5185110000000 1.0
C      1  0.5310220000000  0.4814870000000  0.4570220000000 1.0
C      1  0.4689760000000  0.5429780000000  0.4814890000000 1.0
C      1  0.4689780000000  0.5185130000000  0.5429780000000 1.0
C      1  0.4689760000000  0.4570230000000  0.5185130000000 1.0
C      1  0.4689750000000  0.4814880000000  0.4570240000000 1.0
C      1  0.4716520000000  0.4694310000000  0.5481580000000 1.0
C      1  0.4716490000000  0.4518440000000  0.4694310000000 1.0
C      1  0.4716500000000  0.5305700000000  0.4518440000000 1.0
C      1  0.4716530000000  0.5481570000000  0.5305710000000 1.0
C      1  0.5283500000000  0.4694300000000  0.5481560000000 1.0
C      1  0.5283470000000  0.4518430000000  0.4694290000000 1.0
C      1  0.5283480000000  0.5305690000000  0.4518420000000 1.0
C      1  0.5283510000000  0.5481560000000  0.5305690000000 1.0
C      1  0.4415790000000  0.5356650000000  0.5200670000000 1.0
C      1  0.4415790000000  0.4799360000000  0.5356650000000 1.0
C      1  0.4415770000000  0.4643380000000  0.4799360000000 1.0
C      1  0.4415770000000  0.5200660000000  0.4643380000000 1.0
C      1  0.5584230000000  0.5356620000000  0.5200640000000 1.0
C      1  0.5584230000000  0.4799340000000  0.5356620000000 1.0
C      1  0.5584210000000  0.4643350000000  0.4799330000000 1.0
C      1  0.5584210000000  0.5200640000000  0.4643350000000 1.0
END
