TITL C-2782237-5345-139 0.00644906959411059 125000 -1112.2138276521 0 0 188 (C1) n - 1
REM
REM in /home/nfs/bkarasulu/CARBON/AIRSS/Generating-Clusters/REBO/Higher-Symm/SD-CG/HFTN-CG
REM
REM
REM
REM
REM
REM ./C.cell (12c818d87b63d06a65506943cc24bca4)
REM
REM compiler GCC version 9.2.1 20190827 (Red Hat 9.2.1-1)
REM options -cpp -mtune=generic -march=x86-64 -g -O0 -fpre-include=/usr/include/finclude/math-vector-fortran.h
REM seed -1063338185 226340437 1526937023 -1553106997 -1546426545 -1849285285 1732372434 -1300162822 1160195588 -1254297077 -4081053 950748089 2093595780 -1864042672 -854310808 1388563813 -1865714596 958559848 -742456819 426417644 -2017742530 1613132366 -2040511566 781391540 -2128746377 -1187621506 -681971220 -453943314 758919289 674788509 -192612826 775498574 -965383612
REM
CELL 1.54180   50.00000   50.00000   50.00000   90.00000   90.00000   90.00000
LATT -1
SFAC C  
C      1  0.5173750000000  0.4804500000000  0.4068370000000 1.0
C      1  0.5143510000000  0.5123960000000  0.4091700000000 1.0
C      1  0.4837130000000  0.5142340000000  0.4094340000000 1.0
C      1  0.4870900000000  0.4835100000000  0.4072680000000 1.0
C      1  0.5293020000000  0.5085130000000  0.6061770000000 1.0
C      1  0.4859980000000  0.5278230000000  0.6148300000000 1.0
C      1  0.4850210000000  0.4786230000000  0.6061810000000 1.0
C      1  0.5131630000000  0.4690820000000  0.6016450000000 1.0
C      1  0.5371720000000  0.5244340000000  0.5068930000000 1.0
C      1  0.4731460000000  0.5429290000000  0.5080270000000 1.0
C      1  0.4627030000000  0.4765040000000  0.5050670000000 1.0
C      1  0.5263500000000  0.4578000000000  0.5013880000000 1.0
C      1  0.4670820000000  0.5152890000000  0.5132570000000 1.0
C      1  0.4884800000000  0.4677850000000  0.5093920000000 1.0
C      1  0.5323620000000  0.4848980000000  0.5090120000000 1.0
C      1  0.5119610000000  0.5341700000000  0.5127650000000 1.0
C      1  0.4680000000000  0.4037270000000  0.5214940000000 1.0
C      1  0.5953640000000  0.4671940000000  0.5212670000000 1.0
C      1  0.5279270000000  0.6039890000000  0.5160870000000 1.0
C      1  0.4013730000000  0.5336730000000  0.5195080000000 1.0
C      1  0.4167760000000  0.4276400000000  0.5023270000000 1.0
C      1  0.5715270000000  0.4180220000000  0.5018210000000 1.0
C      1  0.5756730000000  0.5729860000000  0.4986750000000 1.0
C      1  0.4246100000000  0.5819600000000  0.4948740000000 1.0
C      1  0.5305530000000  0.4802740000000  0.5779540000000 1.0
C      1  0.5157160000000  0.5310870000000  0.5884590000000 1.0
C      1  0.4796000000000  0.5132650000000  0.5869780000000 1.0
C      1  0.4816670000000  0.4617820000000  0.5782720000000 1.0
C      1  0.4664060000000  0.5347550000000  0.4141050000000 1.0
C      1  0.4673560000000  0.4666440000000  0.4167420000000 1.0
C      1  0.5359950000000  0.4613070000000  0.4136040000000 1.0
C      1  0.5326370000000  0.5317140000000  0.4166610000000 1.0
C      1  0.5923170000000  0.4669320000000  0.4294010000000 1.0
C      1  0.5412760000000  0.5866540000000  0.4308230000000 1.0
C      1  0.4110970000000  0.5408740000000  0.4298810000000 1.0
C      1  0.4600240000000  0.4121970000000  0.4395900000000 1.0
C      1  0.5826580000000  0.5772740000000  0.5560480000000 1.0
C      1  0.4351720000000  0.5757280000000  0.5547750000000 1.0
C      1  0.4062810000000  0.4292860000000  0.5601180000000 1.0
C      1  0.5755590000000  0.4136590000000  0.5535770000000 1.0
C      1  0.5031830000000  0.4279120000000  0.4245090000000 1.0
C      1  0.5605320000000  0.4981000000000  0.4085250000000 1.0
C      1  0.5028820000000  0.5619670000000  0.4107090000000 1.0
C      1  0.4410280000000  0.5032700000000  0.4097060000000 1.0
C      1  0.5017150000000  0.6109510000000  0.4453620000000 1.0
C      1  0.3900580000000  0.5017090000000  0.4495750000000 1.0
C      1  0.5046810000000  0.3978200000000  0.4633090000000 1.0
C      1  0.6120400000000  0.5050840000000  0.4507470000000 1.0
C      1  0.4800900000000  0.5032480000000  0.3712040000000 1.0
C      1  0.4979780000000  0.4780260000000  0.3650180000000 1.0
C      1  0.5198210000000  0.4994700000000  0.3717440000000 1.0
C      1  0.5024800000000  0.5255290000000  0.3733270000000 1.0
C      1  0.5052850000000  0.5951460000000  0.5475460000000 1.0
C      1  0.4074830000000  0.5159770000000  0.5540390000000 1.0
C      1  0.4885120000000  0.4123640000000  0.5556210000000 1.0
C      1  0.5844340000000  0.4824000000000  0.5562560000000 1.0
C      1  0.5151440000000  0.4402350000000  0.5997770000000 1.0
C      1  0.5559950000000  0.5060610000000  0.5982230000000 1.0
C      1  0.4860310000000  0.5555410000000  0.6103600000000 1.0
C      1  0.4573480000000  0.4861030000000  0.6110130000000 1.0
C      1  0.4770150000000  0.5930480000000  0.4604190000000 1.0
C      1  0.4107590000000  0.4801770000000  0.4659020000000 1.0
C      1  0.5304010000000  0.4113440000000  0.4701330000000 1.0
C      1  0.5876990000000  0.5213040000000  0.4680800000000 1.0
C      1  0.5307180000000  0.5694110000000  0.5102880000000 1.0
C      1  0.4337220000000  0.5365280000000  0.5099840000000 1.0
C      1  0.4640620000000  0.4366020000000  0.5148970000000 1.0
C      1  0.5652220000000  0.4628060000000  0.5084360000000 1.0
C      1  0.5630850000000  0.4727160000000  0.4252670000000 1.0
C      1  0.5273280000000  0.5601090000000  0.4293480000000 1.0
C      1  0.4383310000000  0.5291300000000  0.4272890000000 1.0
C      1  0.4743020000000  0.4410080000000  0.4317640000000 1.0
C      1  0.4949420000000  0.5418600000000  0.4852780000000 1.0
C      1  0.4629760000000  0.4991250000000  0.4839940000000 1.0
C      1  0.5022320000000  0.4583230000000  0.4805500000000 1.0
C      1  0.5385350000000  0.5038010000000  0.4830150000000 1.0
C      1  0.5473410000000  0.5554580000000  0.5892020000000 1.0
C      1  0.4375050000000  0.5407920000000  0.5950640000000 1.0
C      1  0.4552750000000  0.4353820000000  0.5924400000000 1.0
C      1  0.5664190000000  0.4479620000000  0.5922220000000 1.0
C      1  0.4306150000000  0.4658360000000  0.4497660000000 1.0
C      1  0.5447130000000  0.4302230000000  0.4521100000000 1.0
C      1  0.5689890000000  0.5352570000000  0.4501390000000 1.0
C      1  0.4623370000000  0.5727360000000  0.4456810000000 1.0
C      1  0.4606220000000  0.4069130000000  0.5740310000000 1.0
C      1  0.5958650000000  0.4595480000000  0.5788620000000 1.0
C      1  0.5212160000000  0.5807740000000  0.5729820000000 1.0
C      1  0.4068620000000  0.5331260000000  0.5821760000000 1.0
C      1  0.5292090000000  0.5858190000000  0.4809290000000 1.0
C      1  0.4156890000000  0.5323400000000  0.4823650000000 1.0
C      1  0.4647990000000  0.4130890000000  0.4830070000000 1.0
C      1  0.5885410000000  0.4682070000000  0.4770580000000 1.0
C      1  0.3963930000000  0.5024860000000  0.5235000000000 1.0
C      1  0.4984140000000  0.3968310000000  0.5269960000000 1.0
C      1  0.5975040000000  0.4984870000000  0.5290570000000 1.0
C      1  0.4961310000000  0.6096200000000  0.5177160000000 1.0
C      1  0.5050760000000  0.6018840000000  0.4769210000000 1.0
C      1  0.3995030000000  0.5083060000000  0.4804600000000 1.0
C      1  0.4874430000000  0.3967210000000  0.4873160000000 1.0
C      1  0.6028590000000  0.4938310000000  0.4804410000000 1.0
C      1  0.3972540000000  0.4522760000000  0.5422800000000 1.0
C      1  0.5515540000000  0.3973590000000  0.5425160000000 1.0
C      1  0.5951290000000  0.5537720000000  0.5412220000000 1.0
C      1  0.4458530000000  0.6011430000000  0.5347570000000 1.0
C      1  0.4023140000000  0.5610390000000  0.5066350000000 1.0
C      1  0.4392860000000  0.4054060000000  0.5127360000000 1.0
C      1  0.5950850000000  0.4377620000000  0.5145100000000 1.0
C      1  0.5565920000000  0.5994530000000  0.5066530000000 1.0
C      1  0.5953460000000  0.4469120000000  0.4515250000000 1.0
C      1  0.5650080000000  0.5853390000000  0.4460670000000 1.0
C      1  0.4121360000000  0.5653170000000  0.4442010000000 1.0
C      1  0.4344900000000  0.4145270000000  0.4503970000000 1.0
C      1  0.4669780000000  0.5797810000000  0.5494320000000 1.0
C      1  0.4241280000000  0.4711490000000  0.5369010000000 1.0
C      1  0.5278620000000  0.4199810000000  0.5407990000000 1.0
C      1  0.5735530000000  0.5284650000000  0.5398440000000 1.0
C      1  0.4713470000000  0.4440690000000  0.4825170000000 1.0
C      1  0.5570420000000  0.4755190000000  0.4791180000000 1.0
C      1  0.5239940000000  0.5541220000000  0.4805150000000 1.0
C      1  0.4480170000000  0.5272780000000  0.4803300000000 1.0
C      1  0.5441220000000  0.4641860000000  0.4524940000000 1.0
C      1  0.5357260000000  0.5398700000000  0.4555230000000 1.0
C      1  0.4583050000000  0.5397150000000  0.4527780000000 1.0
C      1  0.4638340000000  0.4621240000000  0.4562900000000 1.0
C      1  0.6039370000000  0.5227970000000  0.5515440000000 1.0
C      1  0.4763980000000  0.6114690000000  0.5444820000000 1.0
C      1  0.3970310000000  0.4844970000000  0.5517950000000 1.0
C      1  0.5197410000000  0.3905460000000  0.5527420000000 1.0
C      1  0.4543900000000  0.5045620000000  0.3841190000000 1.0
C      1  0.4956200000000  0.4519950000000  0.3600210000000 1.0
C      1  0.5455880000000  0.4971240000000  0.3839960000000 1.0
C      1  0.5061460000000  0.5502670000000  0.3852430000000 1.0
C      1  0.4776100000000  0.5589990000000  0.4216910000000 1.0
C      1  0.4435910000000  0.4791480000000  0.4237350000000 1.0
C      1  0.5284210000000  0.4378450000000  0.4260310000000 1.0
C      1  0.5575350000000  0.5213860000000  0.4234920000000 1.0
C      1  0.5187880000000  0.4011930000000  0.5005780000000 1.0
C      1  0.5932340000000  0.5186600000000  0.5018370000000 1.0
C      1  0.4749840000000  0.6014490000000  0.4933220000000 1.0
C      1  0.4017120000000  0.4796560000000  0.4988530000000 1.0
C      1  0.4078030000000  0.5618810000000  0.4731080000000 1.0
C      1  0.4333260000000  0.4082000000000  0.4799120000000 1.0
C      1  0.5924630000000  0.4348410000000  0.4820400000000 1.0
C      1  0.5600930000000  0.5911580000000  0.4743430000000 1.0
C      1  0.4297250000000  0.5479590000000  0.5627490000000 1.0
C      1  0.4356180000000  0.4275850000000  0.5657640000000 1.0
C      1  0.5727510000000  0.4442710000000  0.5591390000000 1.0
C      1  0.5536130000000  0.5746650000000  0.5642060000000 1.0
C      1  0.3904850000000  0.5216910000000  0.4316040000000 1.0
C      1  0.4902160000000  0.4053270000000  0.4395460000000 1.0
C      1  0.6097290000000  0.4881190000000  0.4297090000000 1.0
C      1  0.5233980000000  0.6085510000000  0.4295580000000 1.0
C      1  0.4332590000000  0.5818140000000  0.4381090000000 1.0
C      1  0.4204370000000  0.4368570000000  0.4430890000000 1.0
C      1  0.5746200000000  0.4226760000000  0.4483950000000 1.0
C      1  0.5805830000000  0.5632220000000  0.4420390000000 1.0
C      1  0.5882210000000  0.5505790000000  0.5100220000000 1.0
C      1  0.4459490000000  0.5968620000000  0.5045790000000 1.0
C      1  0.4030660000000  0.4505720000000  0.5105720000000 1.0
C      1  0.5494590000000  0.4040470000000  0.5112050000000 1.0
C      1  0.5619430000000  0.4793790000000  0.5816860000000 1.0
C      1  0.5146270000000  0.5617370000000  0.5969940000000 1.0
C      1  0.4508230000000  0.5140730000000  0.6026020000000 1.0
C      1  0.4883540000000  0.4311760000000  0.5841080000000 1.0
C      1  0.5395520000000  0.4915160000000  0.5407300000000 1.0
C      1  0.5002370000000  0.5410370000000  0.5371540000000 1.0
C      1  0.4590870000000  0.5038460000000  0.5430920000000 1.0
C      1  0.5019200000000  0.4615710000000  0.5325270000000 1.0
C      1  0.5413200000000  0.4321210000000  0.6011490000000 1.0
C      1  0.5636600000000  0.5334370000000  0.5931930000000 1.0
C      1  0.4597450000000  0.5634400000000  0.6044550000000 1.0
C      1  0.4440390000000  0.4602170000000  0.6081960000000 1.0
C      1  0.5222960000000  0.4412720000000  0.5262810000000 1.0
C      1  0.5524150000000  0.5170480000000  0.5288920000000 1.0
C      1  0.4784250000000  0.5593900000000  0.5325250000000 1.0
C      1  0.4469850000000  0.4808470000000  0.5272240000000 1.0
C      1  0.4828320000000  0.4893870000000  0.4595670000000 1.0
C      1  0.5147470000000  0.4776060000000  0.4571960000000 1.0
C      1  0.5171850000000  0.5115460000000  0.4590100000000 1.0
C      1  0.4853440000000  0.5233420000000  0.4613910000000 1.0
C      1  0.4365470000000  0.5264220000000  0.5401210000000 1.0
C      1  0.4631910000000  0.4335460000000  0.5467630000000 1.0
C      1  0.5596440000000  0.4667150000000  0.5397270000000 1.0
C      1  0.5294510000000  0.5729810000000  0.5407230000000 1.0
C      1  0.5033050000000  0.4745590000000  0.5584830000000 1.0
C      1  0.5247640000000  0.5076770000000  0.5647960000000 1.0
C      1  0.4986290000000  0.5255130000000  0.5615020000000 1.0
C      1  0.4762380000000  0.4926730000000  0.5646630000000 1.0
END
