TITL C-2782233-7966-1227 0.000807549479471958 125000 -291.231483197644 0 0 52 (S4) n - 1
REM
REM in /home/nfs/bkarasulu/CARBON/AIRSS/Generating-Clusters/REBO/Higher-Symm/SD-CG/HFTN-CG
REM
REM
REM
REM
REM
REM ./C.cell (12c818d87b63d06a65506943cc24bca4)
REM
REM compiler GCC version 9.2.1 20190827 (Red Hat 9.2.1-1)
REM options -cpp -mtune=generic -march=x86-64 -g -O0 -fpre-include=/usr/include/finclude/math-vector-fortran.h
REM seed 278619024 1555894198 1068024768 -1683724811 -261791842 -1238386368 1099478397 1405160750 -1518639122 -2066428651 1632900710 -1530322127 932525493 554719704 -615949047 -1718258572 1604550139 -644547878 -68700421 -930635283 -436345509 1914751084 -1638263394 -899157627 712113304 80158547 594546449 1805985092 -1705529175 -2097694581 1644609532 1857497843 -710559720
REM
CELL 1.54180   50.00000   50.00000   50.00000   90.00000   90.00000   90.00000
LATT -1
SFAC C  
C      1  0.5182300000000  0.4495720000000  0.5259560000000 1.0
C      1  0.4818880000000  0.5259950000000  0.5504510000000 1.0
C      1  0.5181880000000  0.5504120000000  0.4739830000000 1.0
C      1  0.4816940000000  0.4740210000000  0.4496110000000 1.0
C      1  0.5213970000000  0.4978270000000  0.4831290000000 1.0
C      1  0.4785700000000  0.4831750000000  0.5021990000000 1.0
C      1  0.5214550000000  0.5021530000000  0.5167980000000 1.0
C      1  0.4785780000000  0.5168440000000  0.4978730000000 1.0
C      1  0.4703610000000  0.4753070000000  0.5404960000000 1.0
C      1  0.5297560000000  0.5404330000000  0.5246560000000 1.0
C      1  0.4702470000000  0.5247200000000  0.4596040000000 1.0
C      1  0.5296360000000  0.4595400000000  0.4752440000000 1.0
C      1  0.5567510000000  0.5357790000000  0.5328640000000 1.0
C      1  0.4432750000000  0.5329850000000  0.4642910000000 1.0
C      1  0.5566080000000  0.4641700000000  0.4669450000000 1.0
C      1  0.4433660000000  0.4670660000000  0.5359000000000 1.0
C      1  0.4748680000000  0.4388610000000  0.4813340000000 1.0
C      1  0.5251680000000  0.4812800000000  0.5611080000000 1.0
C      1  0.4749850000000  0.5611610000000  0.5187510000000 1.0
C      1  0.5249790000000  0.5186970000000  0.4388080000000 1.0
C      1  0.5648820000000  0.5400530000000  0.4517150000000 1.0
C      1  0.4349660000000  0.4518530000000  0.4600270000000 1.0
C      1  0.5650090000000  0.4598890000000  0.5480660000000 1.0
C      1  0.4351440000000  0.5482050000000  0.5401920000000 1.0
C      1  0.4681710000000  0.4552110000000  0.5036200000000 1.0
C      1  0.5318930000000  0.5035530000000  0.5447490000000 1.0
C      1  0.4681990000000  0.5448170000000  0.4964870000000 1.0
C      1  0.5317380000000  0.4964190000000  0.4551430000000 1.0
C      1  0.4235210000000  0.5477360000000  0.5146510000000 1.0
C      1  0.5764510000000  0.5144870000000  0.4521690000000 1.0
C      1  0.4234290000000  0.4523320000000  0.4856080000000 1.0
C      1  0.5765990000000  0.4854440000000  0.5475730000000 1.0
C      1  0.5363480000000  0.5426710000000  0.4498700000000 1.0
C      1  0.4634930000000  0.4499480000000  0.4573740000000 1.0
C      1  0.5364780000000  0.4572970000000  0.5500070000000 1.0
C      1  0.4636810000000  0.5500850000000  0.5427490000000 1.0
C      1  0.4779700000000  0.4959530000000  0.4706880000000 1.0
C      1  0.5219720000000  0.4706410000000  0.5040200000000 1.0
C      1  0.4780730000000  0.5040670000000  0.5293860000000 1.0
C      1  0.5219850000000  0.5293390000000  0.4959060000000 1.0
C      1  0.4901900000000  0.5432150000000  0.4607030000000 1.0
C      1  0.5096730000000  0.4606820000000  0.4567730000000 1.0
C      1  0.4902840000000  0.4567940000000  0.5393300000000 1.0
C      1  0.5098540000000  0.5393090000000  0.5431940000000 1.0
C      1  0.4387430000000  0.4548460000000  0.5095940000000 1.0
C      1  0.5613340000000  0.5094630000000  0.5450780000000 1.0
C      1  0.4387510000000  0.5452090000000  0.4906120000000 1.0
C      1  0.5611730000000  0.4904820000000  0.4547150000000 1.0
C      1  0.4793910000000  0.5172880000000  0.5770180000000 1.0
C      1  0.5207520000000  0.5769740000000  0.4826870000000 1.0
C      1  0.4791160000000  0.4827310000000  0.4230520000000 1.0
C      1  0.5207410000000  0.4230080000000  0.5172430000000 1.0
END
