TITL C-2782227-3064-1153 -0.000689464997611488 125000 -279.680843349541 0 0 48 (Ci) n - 1
REM
REM in /home/nfs/bkarasulu/CARBON/AIRSS/Generating-Clusters/REBO/Higher-Symm/SD-CG/HFTN-CG
REM
REM
REM
REM
REM
REM ./C.cell (12c818d87b63d06a65506943cc24bca4)
REM
REM compiler GCC version 9.2.1 20190827 (Red Hat 9.2.1-1)
REM options -cpp -mtune=generic -march=x86-64 -g -O0 -fpre-include=/usr/include/finclude/math-vector-fortran.h
REM seed -2045841012 1413781475 738810996 -681557232 -214079806 -382219089 -1859943304 -1077384428 -291125962 2051873553 -1858871578 1616834657 -304268385 -196837836 -1965342997 671606791 -741004340 2120429171 1553070038 1015708196 -392763355 788887517 -1835591754 424877925 1716134112 1838113053 1973311794 423829368 59056436 -1390757501 -356229139 -1301861061 25831579
REM
CELL 1.54180   50.00000   50.00000   50.00000   90.00000   90.00000   90.00000
LATT -1
SFAC C  
C      1  0.5302570000000  0.4853800000000  0.5304340000000 1.0
C      1  0.4698010000000  0.5145960000000  0.4694920000000 1.0
C      1  0.4498610000000  0.4679620000000  0.5275290000000 1.0
C      1  0.5502130000000  0.5321620000000  0.4724140000000 1.0
C      1  0.5533270000000  0.4540260000000  0.5053600000000 1.0
C      1  0.4466160000000  0.5459400000000  0.4945490000000 1.0
C      1  0.5224200000000  0.4881700000000  0.4286340000000 1.0
C      1  0.4777480000000  0.5118250000000  0.5714480000000 1.0
C      1  0.4870140000000  0.4824930000000  0.5204390000000 1.0
C      1  0.5127380000000  0.5174850000000  0.4795160000000 1.0
C      1  0.4801080000000  0.5106370000000  0.5199510000000 1.0
C      1  0.5196520000000  0.4893660000000  0.4801140000000 1.0
C      1  0.5434170000000  0.4083450000000  0.4925490000000 1.0
C      1  0.4564390000000  0.5914880000000  0.5078870000000 1.0
C      1  0.4499640000000  0.4708260000000  0.5012830000000 1.0
C      1  0.5500970000000  0.5292230000000  0.4986500000000 1.0
C      1  0.5532850000000  0.5060690000000  0.5225860000000 1.0
C      1  0.4467430000000  0.4938980000000  0.4772680000000 1.0
C      1  0.4797010000000  0.4679420000000  0.4417260000000 1.0
C      1  0.5204160000000  0.5320510000000  0.5582190000000 1.0
C      1  0.5647300000000  0.4775590000000  0.5119530000000 1.0
C      1  0.4352590000000  0.5224170000000  0.4878440000000 1.0
C      1  0.4858120000000  0.5169900000000  0.4461090000000 1.0
C      1  0.5143240000000  0.4829880000000  0.5538900000000 1.0
C      1  0.4957620000000  0.4513100000000  0.4739670000000 1.0
C      1  0.5042540000000  0.5486700000000  0.5260220000000 1.0
C      1  0.5173720000000  0.4699260000000  0.4549250000000 1.0
C      1  0.4827080000000  0.5300410000000  0.5451290000000 1.0
C      1  0.4930850000000  0.5601530000000  0.5009790000000 1.0
C      1  0.5068310000000  0.4398380000000  0.4990470000000 1.0
C      1  0.5349850000000  0.4333710000000  0.4992510000000 1.0
C      1  0.4649200000000  0.5665680000000  0.5008640000000 1.0
C      1  0.4992670000000  0.5569170000000  0.5586510000000 1.0
C      1  0.5008410000000  0.4430600000000  0.4413520000000 1.0
C      1  0.5160180000000  0.4782820000000  0.5057570000000 1.0
C      1  0.4837710000000  0.5218190000000  0.4943650000000 1.0
C      1  0.4629410000000  0.4700660000000  0.5527040000000 1.0
C      1  0.5371170000000  0.5300510000000  0.4472480000000 1.0
C      1  0.5076700000000  0.5076860000000  0.5668760000000 1.0
C      1  0.4924860000000  0.4923080000000  0.4331210000000 1.0
C      1  0.4922060000000  0.4616600000000  0.5511230000000 1.0
C      1  0.5078590000000  0.5384100000000  0.4488460000000 1.0
C      1  0.4658900000000  0.4666370000000  0.4717210000000 1.0
C      1  0.5341560000000  0.5333430000000  0.5282040000000 1.0
C      1  0.4587430000000  0.4911720000000  0.5711040000000 1.0
C      1  0.5413560000000  0.5088840000000  0.4289220000000 1.0
C      1  0.4943210000000  0.4491890000000  0.5219720000000 1.0
C      1  0.5055000000000  0.5508020000000  0.4780040000000 1.0
END
