TITL C-2782238-9940-1292 0.000562555747090745 125000 -142.644523178375 0 0 25 (C1) n - 1
REM
REM in /home/nfs/bkarasulu/CARBON/AIRSS/Generating-Clusters/REBO/Higher-Symm/SD-CG/HFTN-CG
REM
REM
REM
REM
REM
REM ./C.cell (12c818d87b63d06a65506943cc24bca4)
REM
REM compiler GCC version 9.2.1 20190827 (Red Hat 9.2.1-1)
REM options -cpp -mtune=generic -march=x86-64 -g -O0 -fpre-include=/usr/include/finclude/math-vector-fortran.h
REM seed 1411749047 986626315 629666515 -30954805 12274571 -1070003057 1713871736 -1496753478 -521247068 405087423 600438030 -1916351034 763639233 1751910150 2094453932 -114757928 -1990512448 -2003270843 1552185236 -194612746 -1706747467 -1866526696 1508119615 395685299 -315903791 -1915108795 50564024 1584486044 1663680253 2055470171 1097414146 -1070124902 1352112569
REM
CELL 1.54180   50.00000   50.00000   50.00000   90.00000   90.00000   90.00000
LATT -1
SFAC C  
C      1  0.5247960000000  0.5076960000000  0.4347250000000 1.0
C      1  0.4511140000000  0.5096640000000  0.4537370000000 1.0
C      1  0.4457830000000  0.4988050000000  0.5276560000000 1.0
C      1  0.5146650000000  0.4969340000000  0.5574070000000 1.0
C      1  0.5645760000000  0.5003810000000  0.5004090000000 1.0
C      1  0.4477240000000  0.5155310000000  0.4812870000000 1.0
C      1  0.4699770000000  0.5080820000000  0.5392660000000 1.0
C      1  0.5309590000000  0.5092090000000  0.5378420000000 1.0
C      1  0.5505320000000  0.5133020000000  0.4794100000000 1.0
C      1  0.4992210000000  0.5183100000000  0.4414660000000 1.0
C      1  0.5291460000000  0.5302090000000  0.4901400000000 1.0
C      1  0.5008550000000  0.5316650000000  0.4672720000000 1.0
C      1  0.4697430000000  0.5312320000000  0.4923630000000 1.0
C      1  0.4836090000000  0.5283980000000  0.5229890000000 1.0
C      1  0.5166210000000  0.5287380000000  0.5209340000000 1.0
C      1  0.4348620000000  0.5011380000000  0.5022270000000 1.0
C      1  0.4870920000000  0.4959080000000  0.5581760000000 1.0
C      1  0.5550150000000  0.4995810000000  0.5263820000000 1.0
C      1  0.5463980000000  0.5063040000000  0.4521650000000 1.0
C      1  0.4724730000000  0.5103500000000  0.4360930000000 1.0
C      1  0.4983110000000  0.5488690000000  0.4965040000000 1.0
C      1  0.4998720000000  0.4850260000000  0.5026630000000 1.0
C      1  0.5029570000000  0.4372210000000  0.5249580000000 1.0
C      1  0.4983400000000  0.5087720000000  0.4915880000000 1.0
C      1  0.5014270000000  0.4609320000000  0.5139000000000 1.0
END
