TITL C-2782228-2999-826 -0.000278708109838442 125000 -751.786798260646 0 0 129 (C1) n - 1
REM
REM in /home/nfs/bkarasulu/CARBON/AIRSS/Generating-Clusters/REBO/Higher-Symm/SD-CG/HFTN-CG
REM
REM
REM
REM
REM
REM ./C.cell (12c818d87b63d06a65506943cc24bca4)
REM
REM compiler GCC version 9.2.1 20190827 (Red Hat 9.2.1-1)
REM options -cpp -mtune=generic -march=x86-64 -g -O0 -fpre-include=/usr/include/finclude/math-vector-fortran.h
REM seed -653812615 -2089276171 1574923599 -585807694 1503339475 -1278747933 -788531516 901959434 -398124604 -1446544826 1536077990 -1334257024 -1750982347 1829076489 1308719082 -1876402490 947900369 405852066 -1407522108 -102991759 1006241068 -1974956699 -441078896 -1822153134 689317677 -1544088899 353383746 1092758882 1860674681 -268551247 283324589 -145528879 997201027
REM
CELL 1.54180   50.00000   50.00000   50.00000   90.00000   90.00000   90.00000
LATT -1
SFAC C  
C      1  0.4110550000000  0.5104560000000  0.5030760000000 1.0
C      1  0.5806290000000  0.4906870000000  0.5144880000000 1.0
C      1  0.4722530000000  0.4057920000000  0.4893960000000 1.0
C      1  0.5286940000000  0.5953190000000  0.4930520000000 1.0
C      1  0.4779930000000  0.5379010000000  0.5782080000000 1.0
C      1  0.5316700000000  0.4677540000000  0.5767410000000 1.0
C      1  0.4201680000000  0.4778380000000  0.4445990000000 1.0
C      1  0.5761020000000  0.5264270000000  0.4548240000000 1.0
C      1  0.4708650000000  0.5666600000000  0.5039770000000 1.0
C      1  0.5266110000000  0.4344390000000  0.5052820000000 1.0
C      1  0.5153590000000  0.4440910000000  0.5851440000000 1.0
C      1  0.4924470000000  0.5605350000000  0.5880810000000 1.0
C      1  0.4077610000000  0.5293710000000  0.4802160000000 1.0
C      1  0.5786610000000  0.4779490000000  0.4888970000000 1.0
C      1  0.5335790000000  0.4588970000000  0.4857410000000 1.0
C      1  0.4707390000000  0.5453400000000  0.4861190000000 1.0
C      1  0.5513520000000  0.4641630000000  0.4633030000000 1.0
C      1  0.4445920000000  0.5401450000000  0.4705300000000 1.0
C      1  0.5455550000000  0.5798320000000  0.5253400000000 1.0
C      1  0.4539340000000  0.4212910000000  0.5213120000000 1.0
C      1  0.4747920000000  0.4400730000000  0.4874290000000 1.0
C      1  0.5221910000000  0.5614560000000  0.4929040000000 1.0
C      1  0.4330670000000  0.5078650000000  0.4700200000000 1.0
C      1  0.5668180000000  0.4947860000000  0.4624880000000 1.0
C      1  0.4519690000000  0.5283320000000  0.4242310000000 1.0
C      1  0.5385730000000  0.4691460000000  0.4156910000000 1.0
C      1  0.4918050000000  0.5853600000000  0.5029310000000 1.0
C      1  0.5027700000000  0.4159390000000  0.5021160000000 1.0
C      1  0.4321720000000  0.5807810000000  0.4930700000000 1.0
C      1  0.5643340000000  0.4233840000000  0.4939160000000 1.0
C      1  0.5113040000000  0.4614620000000  0.4083780000000 1.0
C      1  0.4746310000000  0.5340690000000  0.4071940000000 1.0
C      1  0.4445840000000  0.5758840000000  0.5210170000000 1.0
C      1  0.5525720000000  0.4174340000000  0.5212460000000 1.0
C      1  0.4656320000000  0.4673030000000  0.5311610000000 1.0
C      1  0.5419050000000  0.5299360000000  0.5307160000000 1.0
C      1  0.5269080000000  0.4172840000000  0.5414020000000 1.0
C      1  0.4704550000000  0.5747410000000  0.5430600000000 1.0
C      1  0.5077600000000  0.5057760000000  0.4329830000000 1.0
C      1  0.4785690000000  0.4966120000000  0.4414120000000 1.0
C      1  0.5150330000000  0.5912670000000  0.5242250000000 1.0
C      1  0.4813410000000  0.4151480000000  0.5270040000000 1.0
C      1  0.5012900000000  0.4058320000000  0.4710110000000 1.0
C      1  0.5003720000000  0.5924200000000  0.4735130000000 1.0
C      1  0.5769610000000  0.4490030000000  0.4898500000000 1.0
C      1  0.4203970000000  0.5573540000000  0.4825210000000 1.0
C      1  0.5225600000000  0.5728510000000  0.4609550000000 1.0
C      1  0.4796170000000  0.4265110000000  0.4565880000000 1.0
C      1  0.5468250000000  0.4699990000000  0.5376810000000 1.0
C      1  0.4544200000000  0.5222840000000  0.5235120000000 1.0
C      1  0.4720810000000  0.5079590000000  0.5001450000000 1.0
C      1  0.5173630000000  0.4832490000000  0.4942280000000 1.0
C      1  0.4210250000000  0.4522280000000  0.4643270000000 1.0
C      1  0.5896430000000  0.5427910000000  0.4738560000000 1.0
C      1  0.4709020000000  0.5108000000000  0.4660510000000 1.0
C      1  0.5166660000000  0.4782730000000  0.4477710000000 1.0
C      1  0.5228420000000  0.5433890000000  0.5555220000000 1.0
C      1  0.4725070000000  0.4565710000000  0.5621770000000 1.0
C      1  0.4622360000000  0.4723820000000  0.4686670000000 1.0
C      1  0.5497900000000  0.5213340000000  0.4839810000000 1.0
C      1  0.5023700000000  0.4717770000000  0.5594010000000 1.0
C      1  0.4990460000000  0.5224440000000  0.5601820000000 1.0
C      1  0.4933140000000  0.5602920000000  0.4190210000000 1.0
C      1  0.5076310000000  0.4331130000000  0.4141770000000 1.0
C      1  0.4928570000000  0.5128130000000  0.5280650000000 1.0
C      1  0.5094320000000  0.4825720000000  0.5279100000000 1.0
C      1  0.5107910000000  0.4519970000000  0.4491980000000 1.0
C      1  0.4946290000000  0.5297780000000  0.4758850000000 1.0
C      1  0.4509660000000  0.5495050000000  0.4426200000000 1.0
C      1  0.5490780000000  0.4513430000000  0.4380120000000 1.0
C      1  0.4656900000000  0.4963440000000  0.5406280000000 1.0
C      1  0.5359370000000  0.4986250000000  0.5423010000000 1.0
C      1  0.4903940000000  0.4583420000000  0.5116470000000 1.0
C      1  0.5134590000000  0.5335410000000  0.5106410000000 1.0
C      1  0.4497570000000  0.5945400000000  0.4750460000000 1.0
C      1  0.5516840000000  0.4075800000000  0.4738410000000 1.0
C      1  0.4519800000000  0.5299510000000  0.5758200000000 1.0
C      1  0.5545030000000  0.4832220000000  0.5746220000000 1.0
C      1  0.5592940000000  0.5490110000000  0.5678320000000 1.0
C      1  0.4411330000000  0.4532020000000  0.5593080000000 1.0
C      1  0.5847070000000  0.4775850000000  0.5638300000000 1.0
C      1  0.4228070000000  0.5324450000000  0.5576440000000 1.0
C      1  0.4730390000000  0.5892990000000  0.4592140000000 1.0
C      1  0.5290820000000  0.4064420000000  0.4586610000000 1.0
C      1  0.5110980000000  0.5679510000000  0.5672060000000 1.0
C      1  0.4930920000000  0.4344700000000  0.5704300000000 1.0
C      1  0.4483030000000  0.5028510000000  0.5646690000000 1.0
C      1  0.5518170000000  0.5161040000000  0.5668950000000 1.0
C      1  0.4558970000000  0.4754860000000  0.4275470000000 1.0
C      1  0.5372070000000  0.5213830000000  0.4255160000000 1.0
C      1  0.4972250000000  0.5828420000000  0.5473000000000 1.0
C      1  0.4989540000000  0.4158500000000  0.5497610000000 1.0
C      1  0.5500130000000  0.5459220000000  0.5010300000000 1.0
C      1  0.4527390000000  0.4629430000000  0.4999640000000 1.0
C      1  0.5291660000000  0.4261830000000  0.4364490000000 1.0
C      1  0.4706070000000  0.5695160000000  0.4391440000000 1.0
C      1  0.5865430000000  0.5600310000000  0.4951010000000 1.0
C      1  0.4225040000000  0.4395640000000  0.4884850000000 1.0
C      1  0.4858890000000  0.4810220000000  0.4876250000000 1.0
C      1  0.5201080000000  0.5122480000000  0.4854760000000 1.0
C      1  0.4474530000000  0.5494900000000  0.5412490000000 1.0
C      1  0.5316970000000  0.4479370000000  0.5352410000000 1.0
C      1  0.4199230000000  0.4979430000000  0.5570960000000 1.0
C      1  0.5853430000000  0.5074060000000  0.5672180000000 1.0
C      1  0.5573830000000  0.5395380000000  0.4377100000000 1.0
C      1  0.4379540000000  0.4500220000000  0.4358400000000 1.0
C      1  0.5582570000000  0.5784950000000  0.4948850000000 1.0
C      1  0.4416460000000  0.4188600000000  0.4937050000000 1.0
C      1  0.5286660000000  0.4990330000000  0.6014780000000 1.0
C      1  0.4997480000000  0.4965170000000  0.6098780000000 1.0
C      1  0.5071980000000  0.5303950000000  0.4122930000000 1.0
C      1  0.4879030000000  0.4757850000000  0.4158730000000 1.0
C      1  0.5756510000000  0.4711710000000  0.5360740000000 1.0
C      1  0.4226700000000  0.5223280000000  0.5258550000000 1.0
C      1  0.4537700000000  0.4252480000000  0.4350950000000 1.0
C      1  0.5476290000000  0.5652730000000  0.4407070000000 1.0
C      1  0.4163530000000  0.4591750000000  0.5151620000000 1.0
C      1  0.5850760000000  0.5478170000000  0.5239790000000 1.0
C      1  0.5190820000000  0.5733900000000  0.4281360000000 1.0
C      1  0.4825930000000  0.4287630000000  0.4238810000000 1.0
C      1  0.4265170000000  0.4835900000000  0.4933840000000 1.0
C      1  0.5729870000000  0.5173420000000  0.5218310000000 1.0
C      1  0.5618090000000  0.5639050000000  0.5417230000000 1.0
C      1  0.4355230000000  0.4386090000000  0.5343140000000 1.0
C      1  0.4181430000000  0.4719430000000  0.5467730000000 1.0
C      1  0.5851460000000  0.5348550000000  0.5555360000000 1.0
C      1  0.4395210000000  0.5035550000000  0.4368380000000 1.0
C      1  0.5452540000000  0.4932150000000  0.4367990000000 1.0
C      1  0.5056440000000  0.4980110000000  0.5762780000000 1.0
END
