TITL C-2782236-320-69 -0.00194373412686487 125000 -306.72773371637 0 0 54 (C1) n - 1
REM
REM in /home/nfs/bkarasulu/CARBON/AIRSS/Generating-Clusters/REBO/Higher-Symm/SD-CG/HFTN-CG
REM
REM
REM
REM
REM
REM ./C.cell (12c818d87b63d06a65506943cc24bca4)
REM
REM compiler GCC version 9.2.1 20190827 (Red Hat 9.2.1-1)
REM options -cpp -mtune=generic -march=x86-64 -g -O0 -fpre-include=/usr/include/finclude/math-vector-fortran.h
REM seed 954858699 1317710286 1179317165 1469941165 -263536503 337821952 -1701951233 1922429705 -1819467616 1970929286 1550365499 879102227 1474018187 -474335870 1096768448 1846625507 -406419939 1141676945 2055167390 -1608175258 -1514580143 1620646290 -98968185 1102883432 -570550222 98644847 433655477 -1406549158 391198581 862278660 909077186 -1085480577 1236182406
REM
CELL 1.54180   50.00000   50.00000   50.00000   90.00000   90.00000   90.00000
LATT -1
SFAC C  
C      1  0.4860540000000  0.4886460000000  0.5567170000000 1.0
C      1  0.5477030000000  0.4882310000000  0.4890250000000 1.0
C      1  0.4631290000000  0.4959690000000  0.4588250000000 1.0
C      1  0.5167910000000  0.4976130000000  0.5534330000000 1.0
C      1  0.4505750000000  0.4914440000000  0.4879160000000 1.0
C      1  0.5311360000000  0.4968840000000  0.4626090000000 1.0
C      1  0.5732800000000  0.5294400000000  0.4743200000000 1.0
C      1  0.4429030000000  0.5306200000000  0.4464170000000 1.0
C      1  0.4853400000000  0.5323390000000  0.5755290000000 1.0
C      1  0.4289400000000  0.5313510000000  0.4702370000000 1.0
C      1  0.5605470000000  0.5321430000000  0.4500580000000 1.0
C      1  0.5130430000000  0.5343530000000  0.5765430000000 1.0
C      1  0.5352160000000  0.4642850000000  0.4584090000000 1.0
C      1  0.4454700000000  0.4596290000000  0.4932830000000 1.0
C      1  0.5176840000000  0.4642870000000  0.5516020000000 1.0
C      1  0.4623370000000  0.4626560000000  0.4609170000000 1.0
C      1  0.5543270000000  0.4566300000000  0.4887040000000 1.0
C      1  0.4819290000000  0.4565600000000  0.5533080000000 1.0
C      1  0.4418690000000  0.4287110000000  0.4882480000000 1.0
C      1  0.5149990000000  0.4342170000000  0.5546960000000 1.0
C      1  0.5433750000000  0.4351620000000  0.4568580000000 1.0
C      1  0.5579350000000  0.4269790000000  0.4786940000000 1.0
C      1  0.4888230000000  0.4259460000000  0.5561180000000 1.0
C      1  0.4547860000000  0.4335570000000  0.4644950000000 1.0
C      1  0.4324180000000  0.5146320000000  0.5182930000000 1.0
C      1  0.5513530000000  0.5163340000000  0.5478390000000 1.0
C      1  0.5175660000000  0.5161430000000  0.4305620000000 1.0
C      1  0.5631910000000  0.5094800000000  0.5204960000000 1.0
C      1  0.4488650000000  0.5110080000000  0.5444680000000 1.0
C      1  0.4879470000000  0.5115990000000  0.4318300000000 1.0
C      1  0.4561290000000  0.4777940000000  0.5465880000000 1.0
C      1  0.5612870000000  0.4756820000000  0.5161520000000 1.0
C      1  0.4823170000000  0.4785920000000  0.4382770000000 1.0
C      1  0.5455660000000  0.4825930000000  0.5440160000000 1.0
C      1  0.4406640000000  0.4815060000000  0.5189470000000 1.0
C      1  0.5147300000000  0.4825810000000  0.4378910000000 1.0
C      1  0.5117690000000  0.5186840000000  0.4747130000000 1.0
C      1  0.4700010000000  0.5105470000000  0.5056460000000 1.0
C      1  0.5155020000000  0.5156890000000  0.5262280000000 1.0
C      1  0.4814730000000  0.5138030000000  0.4763580000000 1.0
C      1  0.5275580000000  0.5083160000000  0.5003740000000 1.0
C      1  0.4861140000000  0.5052190000000  0.5295350000000 1.0
C      1  0.5613230000000  0.5293300000000  0.5000000000000 1.0
C      1  0.4711620000000  0.5323030000000  0.4426550000000 1.0
C      1  0.4678010000000  0.5315000000000  0.5528400000000 1.0
C      1  0.4380130000000  0.5327240000000  0.4971490000000 1.0
C      1  0.5327760000000  0.5350560000000  0.4449050000000 1.0
C      1  0.5324690000000  0.5366370000000  0.5554270000000 1.0
C      1  0.4845770000000  0.5409410000000  0.5269720000000 1.0
C      1  0.5316000000000  0.5432450000000  0.4992640000000 1.0
C      1  0.4846740000000  0.5473440000000  0.4689990000000 1.0
C      1  0.5168870000000  0.5484820000000  0.5286000000000 1.0
C      1  0.4685510000000  0.5442240000000  0.4985550000000 1.0
C      1  0.5175230000000  0.5503610000000  0.4694570000000 1.0
END
