TITL C-2782233-7966-274 -1.28874321425895e-07 125000 -25.1356698579083 0 0 5 (D(inf)h) n - 1
REM
REM in /home/nfs/bkarasulu/CARBON/AIRSS/Generating-Clusters/REBO/Higher-Symm/SD-CG/HFTN-CG
REM
REM
REM
REM
REM
REM ./C.cell (12c818d87b63d06a65506943cc24bca4)
REM
REM compiler GCC version 9.2.1 20190827 (Red Hat 9.2.1-1)
REM options -cpp -mtune=generic -march=x86-64 -g -O0 -fpre-include=/usr/include/finclude/math-vector-fortran.h
REM seed -1296145142 -621373962 -1646515981 -1752895086 -2077083747 1486989622 1736197579 818391762 -33788327 -298143624 1410093583 2057227212 1797201287 -1373990281 1469209290 1222841120 314919134 -734275595 502354090 118759348 125386195 -1522345414 609775234 -1862871869 -331273699 -1643861923 79959389 1310855838 -1225267990 255661987 -1871198440 -1006211136 1158957296
REM
CELL 1.54180   50.00000   50.00000   50.00000   90.00000   90.00000   90.00000
LATT -1
SFAC C  
C      1  0.5047370000000  0.5013440000000  0.5000000000000 1.0
C      1  0.5047370000000  0.5013440000000  0.4471620000000 1.0
C      1  0.5047370000000  0.5013440000000  0.5528380000000 1.0
C      1  0.5047370000000  0.5013440000000  0.5266310000000 1.0
C      1  0.5047370000000  0.5013440000000  0.4733690000000 1.0
END
