TITL C-2782226-7400-1282 0.00209744447565596 125000 -690.798363857935 0 0 119 (C1) n - 1
REM
REM in /home/nfs/bkarasulu/CARBON/AIRSS/Generating-Clusters/REBO/Higher-Symm/SD-CG/HFTN-CG
REM
REM
REM
REM
REM
REM ./C.cell (12c818d87b63d06a65506943cc24bca4)
REM
REM compiler GCC version 9.2.1 20190827 (Red Hat 9.2.1-1)
REM options -cpp -mtune=generic -march=x86-64 -g -O0 -fpre-include=/usr/include/finclude/math-vector-fortran.h
REM seed 1537088681 -1880816274 -475817559 -1120481153 -382831431 1762344730 2075506958 -999901122 1757323494 -1613760666 -1692047980 -2016602732 1863700318 753638912 -71577719 -1858747428 1191077298 -2012070597 -2079428250 1887348224 1385383910 1825688289 -1289733447 -1185186045 331259103 -990465603 174050422 1002088198 321853536 1846243571 1129516545 2034040682 -2064901077
REM
CELL 1.54180   50.00000   50.00000   50.00000   90.00000   90.00000   90.00000
LATT -1
SFAC C  
C      1  0.5136280000000  0.4605060000000  0.5034140000000 1.0
C      1  0.4818250000000  0.5437090000000  0.5255790000000 1.0
C      1  0.4844420000000  0.4554790000000  0.4909480000000 1.0
C      1  0.5221090000000  0.5429430000000  0.4754980000000 1.0
C      1  0.5499860000000  0.4986040000000  0.4923680000000 1.0
C      1  0.5007740000000  0.4975940000000  0.5470300000000 1.0
C      1  0.4467080000000  0.4915150000000  0.5038640000000 1.0
C      1  0.4841250000000  0.5058990000000  0.4470210000000 1.0
C      1  0.4942400000000  0.4858960000000  0.4672490000000 1.0
C      1  0.5207720000000  0.5129010000000  0.4989050000000 1.0
C      1  0.4880400000000  0.4824550000000  0.5241980000000 1.0
C      1  0.4681880000000  0.5107490000000  0.5033980000000 1.0
C      1  0.4361410000000  0.5506440000000  0.5539990000000 1.0
C      1  0.4690580000000  0.4584590000000  0.4263200000000 1.0
C      1  0.5657390000000  0.5412760000000  0.4492600000000 1.0
C      1  0.5275140000000  0.4727930000000  0.5631930000000 1.0
C      1  0.5675870000000  0.5551320000000  0.4864410000000 1.0
C      1  0.5296840000000  0.4432980000000  0.5897660000000 1.0
C      1  0.4362620000000  0.5606770000000  0.5213580000000 1.0
C      1  0.4625530000000  0.4094680000000  0.4045090000000 1.0
C      1  0.5561410000000  0.4367800000000  0.5108470000000 1.0
C      1  0.5085680000000  0.5739820000000  0.5584100000000 1.0
C      1  0.4468310000000  0.4232620000000  0.4814140000000 1.0
C      1  0.4995540000000  0.5645320000000  0.4474030000000 1.0
C      1  0.4839370000000  0.4574580000000  0.4572030000000 1.0
C      1  0.5433170000000  0.5368660000000  0.5017790000000 1.0
C      1  0.5107560000000  0.4603360000000  0.5370390000000 1.0
C      1  0.4557560000000  0.5392360000000  0.5057540000000 1.0
C      1  0.4394480000000  0.4940710000000  0.5679900000000 1.0
C      1  0.4430240000000  0.5109380000000  0.3922750000000 1.0
C      1  0.5728300000000  0.4798460000000  0.4403620000000 1.0
C      1  0.5342990000000  0.5243000000000  0.5972320000000 1.0
C      1  0.4258650000000  0.5133790000000  0.5846040000000 1.0
C      1  0.4332950000000  0.4870170000000  0.4015530000000 1.0
C      1  0.5783760000000  0.5019740000000  0.4197320000000 1.0
C      1  0.5531380000000  0.5063260000000  0.5885700000000 1.0
C      1  0.4642360000000  0.4250430000000  0.4272510000000 1.0
C      1  0.5511280000000  0.5695920000000  0.4612520000000 1.0
C      1  0.5344250000000  0.4305160000000  0.5638740000000 1.0
C      1  0.4565790000000  0.5759920000000  0.5434800000000 1.0
C      1  0.4624520000000  0.4257590000000  0.5529610000000 1.0
C      1  0.4353710000000  0.5717840000000  0.4732340000000 1.0
C      1  0.5381340000000  0.4350610000000  0.4389040000000 1.0
C      1  0.5676530000000  0.5650970000000  0.5340730000000 1.0
C      1  0.5185950000000  0.5416500000000  0.4308000000000 1.0
C      1  0.5606480000000  0.4637180000000  0.5294570000000 1.0
C      1  0.4883800000000  0.5523310000000  0.5756990000000 1.0
C      1  0.4349700000000  0.4500930000000  0.4662960000000 1.0
C      1  0.4667700000000  0.5209420000000  0.4021970000000 1.0
C      1  0.5893020000000  0.4835920000000  0.4670790000000 1.0
C      1  0.5079310000000  0.5223280000000  0.5889060000000 1.0
C      1  0.4249840000000  0.4826230000000  0.5463370000000 1.0
C      1  0.5272680000000  0.5029160000000  0.5369150000000 1.0
C      1  0.4640260000000  0.5070430000000  0.5596140000000 1.0
C      1  0.4572090000000  0.5004200000000  0.4663790000000 1.0
C      1  0.5480910000000  0.4920760000000  0.4606050000000 1.0
C      1  0.4656190000000  0.4926720000000  0.6308980000000 1.0
C      1  0.4134830000000  0.5176170000000  0.4760450000000 1.0
C      1  0.5364040000000  0.4773990000000  0.3758660000000 1.0
C      1  0.5913780000000  0.5202320000000  0.5267260000000 1.0
C      1  0.4429990000000  0.4218800000000  0.4490130000000 1.0
C      1  0.5302500000000  0.5722990000000  0.4388590000000 1.0
C      1  0.5551860000000  0.4338010000000  0.5439870000000 1.0
C      1  0.4769320000000  0.5816510000000  0.5647160000000 1.0
C      1  0.4552900000000  0.4701540000000  0.4820000000000 1.0
C      1  0.5373510000000  0.5229310000000  0.4524260000000 1.0
C      1  0.5376790000000  0.4812450000000  0.5161990000000 1.0
C      1  0.4779740000000  0.5296550000000  0.5541590000000 1.0
C      1  0.4247390000000  0.5296720000000  0.5294970000000 1.0
C      1  0.4874700000000  0.4776270000000  0.4099980000000 1.0
C      1  0.5851300000000  0.5303190000000  0.4726720000000 1.0
C      1  0.5088110000000  0.4701560000000  0.5910420000000 1.0
C      1  0.4237770000000  0.5326420000000  0.4959750000000 1.0
C      1  0.5099280000000  0.4767160000000  0.3943290000000 1.0
C      1  0.5753730000000  0.5334050000000  0.5110210000000 1.0
C      1  0.4897950000000  0.4848460000000  0.6112250000000 1.0
C      1  0.4852130000000  0.4108040000000  0.5141190000000 1.0
C      1  0.4854530000000  0.5767970000000  0.4759080000000 1.0
C      1  0.5211950000000  0.4171480000000  0.4779650000000 1.0
C      1  0.5207550000000  0.5787630000000  0.5270200000000 1.0
C      1  0.5654890000000  0.4499980000000  0.4338850000000 1.0
C      1  0.5592640000000  0.5418260000000  0.5465880000000 1.0
C      1  0.4319800000000  0.4368080000000  0.5553130000000 1.0
C      1  0.4398560000000  0.5470530000000  0.4623320000000 1.0
C      1  0.4875410000000  0.4156000000000  0.5425870000000 1.0
C      1  0.4557960000000  0.5828590000000  0.4868350000000 1.0
C      1  0.5167710000000  0.4200640000000  0.4496210000000 1.0
C      1  0.5506560000000  0.5775410000000  0.5171120000000 1.0
C      1  0.5320640000000  0.5728790000000  0.4892310000000 1.0
C      1  0.5097300000000  0.4316620000000  0.5489650000000 1.0
C      1  0.4728930000000  0.5744560000000  0.5136750000000 1.0
C      1  0.4912550000000  0.4299170000000  0.4428710000000 1.0
C      1  0.5470190000000  0.4584000000000  0.4618890000000 1.0
C      1  0.5344840000000  0.5294670000000  0.5408110000000 1.0
C      1  0.4487680000000  0.4399020000000  0.5276340000000 1.0
C      1  0.4616940000000  0.5312990000000  0.4671040000000 1.0
C      1  0.4654680000000  0.4317880000000  0.5030750000000 1.0
C      1  0.4884730000000  0.5439330000000  0.4709250000000 1.0
C      1  0.5358520000000  0.4425880000000  0.4883590000000 1.0
C      1  0.5115200000000  0.5486810000000  0.5368760000000 1.0
C      1  0.4265860000000  0.4975490000000  0.4609660000000 1.0
C      1  0.5304730000000  0.5023720000000  0.3961500000000 1.0
C      1  0.5930430000000  0.4990570000000  0.5434830000000 1.0
C      1  0.4734420000000  0.5138910000000  0.6073200000000 1.0
C      1  0.5369400000000  0.5236890000000  0.4124590000000 1.0
C      1  0.5725210000000  0.4814410000000  0.5500420000000 1.0
C      1  0.4665110000000  0.5362620000000  0.5918930000000 1.0
C      1  0.4253370000000  0.4720970000000  0.4477350000000 1.0
C      1  0.4399920000000  0.5382900000000  0.5814720000000 1.0
C      1  0.4397140000000  0.4704870000000  0.4233550000000 1.0
C      1  0.5633640000000  0.5248030000000  0.4221160000000 1.0
C      1  0.5523120000000  0.4861990000000  0.5687620000000 1.0
C      1  0.4997230000000  0.4986030000000  0.5753450000000 1.0
C      1  0.4268810000000  0.4982910000000  0.5227440000000 1.0
C      1  0.4824080000000  0.5045780000000  0.4193380000000 1.0
C      1  0.5797030000000  0.5039970000000  0.4825520000000 1.0
C      1  0.5029920000000  0.5846350000000  0.5014880000000 1.0
C      1  0.5054930000000  0.4032140000000  0.4964260000000 1.0
C      1  0.4957500000000  0.4972280000000  0.4957040000000 1.0
END
