TITL C-2782233-7966-670 0.00131044501571907 125000 -666.198717996219 0 0 116 (C1) n - 1
REM
REM in /home/nfs/bkarasulu/CARBON/AIRSS/Generating-Clusters/REBO/Higher-Symm/SD-CG/HFTN-CG
REM
REM
REM
REM
REM
REM ./C.cell (12c818d87b63d06a65506943cc24bca4)
REM
REM compiler GCC version 9.2.1 20190827 (Red Hat 9.2.1-1)
REM options -cpp -mtune=generic -march=x86-64 -g -O0 -fpre-include=/usr/include/finclude/math-vector-fortran.h
REM seed -1700895790 -684528945 -946479118 -1882136496 -1213885293 1659702249 851379514 743046818 -742281830 -1646424703 595938087 2097506326 155943845 -5345914 -1257747885 -398014970 1334050434 -1913091909 119161244 430310414 961848348 -1595744272 -1870341071 -1154378783 1485738599 -2028520669 -1228585589 -2140133831 1296385418 694056761 1281955525 -268446617 2017603352
REM
CELL 1.54180   50.00000   50.00000   50.00000   90.00000   90.00000   90.00000
LATT -1
SFAC C  
C      1  0.5109630000000  0.5323310000000  0.5790550000000 1.0
C      1  0.4402300000000  0.4412900000000  0.4759540000000 1.0
C      1  0.5543400000000  0.4751160000000  0.4933980000000 1.0
C      1  0.4855460000000  0.5457820000000  0.4716930000000 1.0
C      1  0.5220510000000  0.5545590000000  0.5099180000000 1.0
C      1  0.4480260000000  0.4269690000000  0.5527610000000 1.0
C      1  0.5564610000000  0.5741180000000  0.5152790000000 1.0
C      1  0.5089900000000  0.4112460000000  0.5077140000000 1.0
C      1  0.4588250000000  0.5512630000000  0.5500410000000 1.0
C      1  0.4994130000000  0.4610330000000  0.4842990000000 1.0
C      1  0.4973310000000  0.5189220000000  0.4891000000000 1.0
C      1  0.5266650000000  0.5812800000000  0.4897140000000 1.0
C      1  0.4459840000000  0.4696450000000  0.5231470000000 1.0
C      1  0.5274010000000  0.5092870000000  0.4853460000000 1.0
C      1  0.5108530000000  0.4931210000000  0.5485320000000 1.0
C      1  0.5077120000000  0.4315790000000  0.4552630000000 1.0
C      1  0.5203070000000  0.4505250000000  0.4297960000000 1.0
C      1  0.5712100000000  0.4575890000000  0.5157770000000 1.0
C      1  0.5099920000000  0.5496520000000  0.5401540000000 1.0
C      1  0.4557050000000  0.4250480000000  0.4567810000000 1.0
C      1  0.5528780000000  0.4708650000000  0.4626750000000 1.0
C      1  0.4657470000000  0.5799600000000  0.4774400000000 1.0
C      1  0.5529110000000  0.4703630000000  0.5603410000000 1.0
C      1  0.4592890000000  0.5245240000000  0.4785800000000 1.0
C      1  0.5189520000000  0.4705470000000  0.5952010000000 1.0
C      1  0.4499250000000  0.5542990000000  0.4927880000000 1.0
C      1  0.5404680000000  0.4104530000000  0.5113200000000 1.0
C      1  0.4890470000000  0.4382790000000  0.4271030000000 1.0
C      1  0.4851700000000  0.5162930000000  0.4574100000000 1.0
C      1  0.4307830000000  0.4957030000000  0.5357950000000 1.0
C      1  0.4651120000000  0.5444630000000  0.4373940000000 1.0
C      1  0.5872050000000  0.5232460000000  0.5195280000000 1.0
C      1  0.4407030000000  0.5004010000000  0.5618790000000 1.0
C      1  0.4399540000000  0.5626780000000  0.5238400000000 1.0
C      1  0.4632510000000  0.4289650000000  0.5061980000000 1.0
C      1  0.4912670000000  0.4188020000000  0.5327940000000 1.0
C      1  0.4950990000000  0.4807020000000  0.5208280000000 1.0
C      1  0.4935520000000  0.4456190000000  0.5394180000000 1.0
C      1  0.4846240000000  0.5983450000000  0.4571580000000 1.0
C      1  0.4577750000000  0.5240820000000  0.5657580000000 1.0
C      1  0.4439710000000  0.4976390000000  0.4875290000000 1.0
C      1  0.4600230000000  0.4399950000000  0.4328910000000 1.0
C      1  0.5662590000000  0.4932990000000  0.5471590000000 1.0
C      1  0.4699870000000  0.5782760000000  0.5175650000000 1.0
C      1  0.4485470000000  0.5627410000000  0.4541450000000 1.0
C      1  0.5220330000000  0.4826480000000  0.4717520000000 1.0
C      1  0.4682190000000  0.4916690000000  0.4312910000000 1.0
C      1  0.5448520000000  0.5320850000000  0.5145560000000 1.0
C      1  0.5005520000000  0.4591970000000  0.4047800000000 1.0
C      1  0.5061480000000  0.4852250000000  0.4436180000000 1.0
C      1  0.4644400000000  0.4954480000000  0.5140860000000 1.0
C      1  0.4862870000000  0.4490510000000  0.5869090000000 1.0
C      1  0.4524730000000  0.4748440000000  0.5732330000000 1.0
C      1  0.4803330000000  0.4750680000000  0.4597410000000 1.0
C      1  0.5340240000000  0.5243400000000  0.5656960000000 1.0
C      1  0.5411070000000  0.5588120000000  0.5471140000000 1.0
C      1  0.5628400000000  0.5179630000000  0.5607140000000 1.0
C      1  0.5340180000000  0.5123880000000  0.5336740000000 1.0
C      1  0.5100690000000  0.4366970000000  0.5758530000000 1.0
C      1  0.5896570000000  0.5597390000000  0.4821230000000 1.0
C      1  0.4146570000000  0.5437520000000  0.5235280000000 1.0
C      1  0.4765500000000  0.4640020000000  0.5516260000000 1.0
C      1  0.4967390000000  0.5219290000000  0.5432500000000 1.0
C      1  0.4258920000000  0.5489040000000  0.4693890000000 1.0
C      1  0.4740670000000  0.4578910000000  0.5068240000000 1.0
C      1  0.5413310000000  0.4823220000000  0.5240550000000 1.0
C      1  0.4673980000000  0.4076690000000  0.5432310000000 1.0
C      1  0.4155540000000  0.5166450000000  0.5253040000000 1.0
C      1  0.5294140000000  0.4385410000000  0.5550900000000 1.0
C      1  0.4889470000000  0.5663050000000  0.4479910000000 1.0
C      1  0.5211320000000  0.4597490000000  0.5296830000000 1.0
C      1  0.5593890000000  0.5500480000000  0.4579480000000 1.0
C      1  0.5597220000000  0.5143930000000  0.4919610000000 1.0
C      1  0.5393970000000  0.5464500000000  0.4358820000000 1.0
C      1  0.4492380000000  0.4664860000000  0.4367490000000 1.0
C      1  0.5314490000000  0.5861320000000  0.5322260000000 1.0
C      1  0.5015720000000  0.5135060000000  0.4295830000000 1.0
C      1  0.4838170000000  0.5184250000000  0.5148080000000 1.0
C      1  0.4546430000000  0.5192360000000  0.4314870000000 1.0
C      1  0.4273050000000  0.5183450000000  0.4256280000000 1.0
C      1  0.5301940000000  0.5232810000000  0.4232980000000 1.0
C      1  0.5586010000000  0.5716790000000  0.4830260000000 1.0
C      1  0.4142080000000  0.5038700000000  0.4874780000000 1.0
C      1  0.4558040000000  0.4414740000000  0.5768340000000 1.0
C      1  0.5729960000000  0.5266350000000  0.4672000000000 1.0
C      1  0.4889900000000  0.4904230000000  0.4080210000000 1.0
C      1  0.5732780000000  0.4487750000000  0.4558240000000 1.0
C      1  0.4936510000000  0.5880470000000  0.4951880000000 1.0
C      1  0.5683050000000  0.5465630000000  0.5315780000000 1.0
C      1  0.4323870000000  0.4288770000000  0.5029950000000 1.0
C      1  0.5728360000000  0.4296140000000  0.4723780000000 1.0
C      1  0.4082340000000  0.5280790000000  0.4742640000000 1.0
C      1  0.4843040000000  0.4825340000000  0.5795050000000 1.0
C      1  0.4741290000000  0.5459100000000  0.5211050000000 1.0
C      1  0.5258360000000  0.4762010000000  0.5690470000000 1.0
C      1  0.4862600000000  0.5686320000000  0.5526790000000 1.0
C      1  0.5375540000000  0.4753920000000  0.4358720000000 1.0
C      1  0.4347390000000  0.4417010000000  0.5311290000000 1.0
C      1  0.5033750000000  0.5588390000000  0.5784780000000 1.0
C      1  0.5213530000000  0.4350130000000  0.4864140000000 1.0
C      1  0.3959610000000  0.4869680000000  0.4993590000000 1.0
C      1  0.5149800000000  0.5932130000000  0.4614160000000 1.0
C      1  0.4485150000000  0.4726850000000  0.4701910000000 1.0
C      1  0.5207220000000  0.5600690000000  0.4563650000000 1.0
C      1  0.6047210000000  0.5365920000000  0.5009530000000 1.0
C      1  0.6031460000000  0.5312820000000  0.4692560000000 1.0
C      1  0.5272280000000  0.5426430000000  0.4803930000000 1.0
C      1  0.4868230000000  0.5122680000000  0.5743990000000 1.0
C      1  0.4810980000000  0.4111680000000  0.4940450000000 1.0
C      1  0.4810310000000  0.4148470000000  0.4663480000000 1.0
C      1  0.4957220000000  0.4778660000000  0.3790950000000 1.0
C      1  0.5574570000000  0.4470260000000  0.5425000000000 1.0
C      1  0.5465740000000  0.5010340000000  0.4199010000000 1.0
C      1  0.5013100000000  0.5871120000000  0.5284080000000 1.0
C      1  0.5542340000000  0.4352520000000  0.4963320000000 1.0
C      1  0.5776710000000  0.4916370000000  0.5108880000000 1.0
END
