TITL C-2782233-7966-870 -0.00270522977721187 125000 -655.140501292421 0 0 115 (C1) n - 1
REM
REM in /home/nfs/bkarasulu/CARBON/AIRSS/Generating-Clusters/REBO/Higher-Symm/SD-CG/HFTN-CG
REM
REM
REM
REM
REM
REM ./C.cell (12c818d87b63d06a65506943cc24bca4)
REM
REM compiler GCC version 9.2.1 20190827 (Red Hat 9.2.1-1)
REM options -cpp -mtune=generic -march=x86-64 -g -O0 -fpre-include=/usr/include/finclude/math-vector-fortran.h
REM seed 1112152967 1337378399 1706829773 909010635 1298538662 -134153461 -2090606687 -49985027 -68108534 -1032943556 1173219944 -1930153497 -689868748 -430257736 -1800625979 1114201755 -863570157 137729754 832783913 -1420367985 63302947 2032447479 1669287288 -394569535 915270559 -745447954 -277710422 1410821986 489527473 -1456164635 -265622469 -603208884 219673530
REM
CELL 1.54180   50.00000   50.00000   50.00000   90.00000   90.00000   90.00000
LATT -1
SFAC C  
C      1  0.5561690000000  0.5088120000000  0.5547870000000 1.0
C      1  0.5325080000000  0.5506200000000  0.5576950000000 1.0
C      1  0.4784810000000  0.5521650000000  0.5538220000000 1.0
C      1  0.4439360000000  0.5199130000000  0.5563980000000 1.0
C      1  0.4575470000000  0.4686680000000  0.5503920000000 1.0
C      1  0.4922830000000  0.4381760000000  0.5610220000000 1.0
C      1  0.5442890000000  0.4542880000000  0.5609680000000 1.0
C      1  0.4281900000000  0.5423180000000  0.5276130000000 1.0
C      1  0.4383610000000  0.4768290000000  0.5164110000000 1.0
C      1  0.4759640000000  0.4250560000000  0.5270290000000 1.0
C      1  0.5373920000000  0.4362960000000  0.5261270000000 1.0
C      1  0.5647200000000  0.4933320000000  0.5194430000000 1.0
C      1  0.5572330000000  0.5591350000000  0.5277200000000 1.0
C      1  0.4909270000000  0.5659320000000  0.5188310000000 1.0
C      1  0.5903810000000  0.4899820000000  0.4900820000000 1.0
C      1  0.5574640000000  0.5691240000000  0.4897340000000 1.0
C      1  0.4874440000000  0.5915820000000  0.4897130000000 1.0
C      1  0.4184190000000  0.5401490000000  0.4896490000000 1.0
C      1  0.4122170000000  0.4667810000000  0.4882910000000 1.0
C      1  0.4790100000000  0.4132800000000  0.4902270000000 1.0
C      1  0.5504260000000  0.4281380000000  0.4897300000000 1.0
C      1  0.4733100000000  0.5293670000000  0.5005130000000 1.0
C      1  0.4645460000000  0.4965140000000  0.4965460000000 1.0
C      1  0.4829150000000  0.4708050000000  0.5015110000000 1.0
C      1  0.5104870000000  0.4697490000000  0.4933850000000 1.0
C      1  0.5280280000000  0.4873300000000  0.5063570000000 1.0
C      1  0.5295320000000  0.5153020000000  0.5057720000000 1.0
C      1  0.5060000000000  0.5364490000000  0.4974050000000 1.0
C      1  0.4781010000000  0.5690580000000  0.4435870000000 1.0
C      1  0.4328520000000  0.5256220000000  0.4404330000000 1.0
C      1  0.4359480000000  0.4634290000000  0.4413100000000 1.0
C      1  0.4903810000000  0.4291050000000  0.4399250000000 1.0
C      1  0.5485850000000  0.4480370000000  0.4376860000000 1.0
C      1  0.5721230000000  0.5051680000000  0.4422190000000 1.0
C      1  0.5390600000000  0.5585510000000  0.4409290000000 1.0
C      1  0.5834880000000  0.5238550000000  0.5408020000000 1.0
C      1  0.5291400000000  0.5814090000000  0.5449890000000 1.0
C      1  0.4573770000000  0.5759930000000  0.5413840000000 1.0
C      1  0.4150360000000  0.5087000000000  0.5443260000000 1.0
C      1  0.4412070000000  0.4423980000000  0.5361110000000 1.0
C      1  0.5098630000000  0.4161720000000  0.5463000000000 1.0
C      1  0.5717550000000  0.4541370000000  0.5441400000000 1.0
C      1  0.5204190000000  0.5836290000000  0.4868760000000 1.0
C      1  0.4433320000000  0.5631790000000  0.4866940000000 1.0
C      1  0.4129360000000  0.5007730000000  0.4862260000000 1.0
C      1  0.4506150000000  0.4309590000000  0.4838480000000 1.0
C      1  0.5186120000000  0.4163400000000  0.4872880000000 1.0
C      1  0.5743480000000  0.4600300000000  0.4871560000000 1.0
C      1  0.5742330000000  0.5397320000000  0.4862710000000 1.0
C      1  0.5509140000000  0.4802420000000  0.4328510000000 1.0
C      1  0.5474620000000  0.5270140000000  0.4345750000000 1.0
C      1  0.5071810000000  0.5540640000000  0.4347390000000 1.0
C      1  0.4622840000000  0.5407720000000  0.4350010000000 1.0
C      1  0.4438630000000  0.4955760000000  0.4333830000000 1.0
C      1  0.4671170000000  0.4532140000000  0.4337210000000 1.0
C      1  0.5170740000000  0.4462710000000  0.4320590000000 1.0
C      1  0.5261190000000  0.4478180000000  0.4781520000000 1.0
C      1  0.5631830000000  0.4872020000000  0.4701080000000 1.0
C      1  0.5451480000000  0.5434770000000  0.4710820000000 1.0
C      1  0.4969850000000  0.5637520000000  0.4720770000000 1.0
C      1  0.4459300000000  0.5342110000000  0.4709010000000 1.0
C      1  0.4366550000000  0.4822680000000  0.4702230000000 1.0
C      1  0.4788010000000  0.4405410000000  0.4698810000000 1.0
C      1  0.5462360000000  0.5274850000000  0.5283980000000 1.0
C      1  0.5188810000000  0.5478880000000  0.5262380000000 1.0
C      1  0.4619680000000  0.5396290000000  0.5268420000000 1.0
C      1  0.4496460000000  0.5079970000000  0.5246790000000 1.0
C      1  0.4789800000000  0.4569200000000  0.5284000000000 1.0
C      1  0.5116710000000  0.4551860000000  0.5379820000000 1.0
C      1  0.5393740000000  0.4750570000000  0.5337460000000 1.0
C      1  0.4107590000000  0.5188910000000  0.5138960000000 1.0
C      1  0.4339340000000  0.4469970000000  0.5055910000000 1.0
C      1  0.5022010000000  0.4108920000000  0.5150160000000 1.0
C      1  0.5666960000000  0.4436600000000  0.5142110000000 1.0
C      1  0.5828470000000  0.5179030000000  0.5081300000000 1.0
C      1  0.5391020000000  0.5819740000000  0.5141670000000 1.0
C      1  0.4625060000000  0.5777430000000  0.5085360000000 1.0
C      1  0.5382240000000  0.4220670000000  0.5553020000000 1.0
C      1  0.5764830000000  0.4828440000000  0.5464680000000 1.0
C      1  0.5663950000000  0.5471840000000  0.5564120000000 1.0
C      1  0.5000940000000  0.5764350000000  0.5469920000000 1.0
C      1  0.4387790000000  0.5536020000000  0.5559070000000 1.0
C      1  0.4275320000000  0.4818620000000  0.5453130000000 1.0
C      1  0.4619890000000  0.4293620000000  0.5561540000000 1.0
C      1  0.5086630000000  0.4697250000000  0.4128210000000 1.0
C      1  0.5290650000000  0.4889080000000  0.4123620000000 1.0
C      1  0.5273820000000  0.5166750000000  0.4127150000000 1.0
C      1  0.5039770000000  0.5320530000000  0.4130680000000 1.0
C      1  0.4773640000000  0.5236310000000  0.4133370000000 1.0
C      1  0.4673520000000  0.4974580000000  0.4131890000000 1.0
C      1  0.4810490000000  0.4732030000000  0.4132560000000 1.0
C      1  0.4742030000000  0.4829770000000  0.5706830000000 1.0
C      1  0.4975550000000  0.4673880000000  0.5733590000000 1.0
C      1  0.5239910000000  0.4762460000000  0.5724430000000 1.0
C      1  0.5316330000000  0.5032780000000  0.5710080000000 1.0
C      1  0.5166670000000  0.5274430000000  0.5718940000000 1.0
C      1  0.4887680000000  0.5299840000000  0.5709930000000 1.0
C      1  0.4688040000000  0.5102810000000  0.5720790000000 1.0
C      1  0.5895220000000  0.5165950000000  0.4688380000000 1.0
C      1  0.5431170000000  0.5821460000000  0.4621040000000 1.0
C      1  0.4624970000000  0.5830620000000  0.4690320000000 1.0
C      1  0.4087740000000  0.5236560000000  0.4617120000000 1.0
C      1  0.4259170000000  0.4443450000000  0.4666770000000 1.0
C      1  0.4980840000000  0.4066590000000  0.4627280000000 1.0
C      1  0.5620430000000  0.4408100000000  0.4620770000000 1.0
C      1  0.4684590000000  0.4772840000000  0.4589320000000 1.0
C      1  0.4979800000000  0.4645770000000  0.4558030000000 1.0
C      1  0.5275270000000  0.4750760000000  0.4577310000000 1.0
C      1  0.5367410000000  0.5060810000000  0.4598870000000 1.0
C      1  0.5165140000000  0.5315020000000  0.4592900000000 1.0
C      1  0.4844540000000  0.5340440000000  0.4607980000000 1.0
C      1  0.4638130000000  0.5088980000000  0.4587720000000 1.0
C      1  0.4953450000000  0.5061000000000  0.4874390000000 1.0
C      1  0.5003330000000  0.5007840000000  0.5462620000000 1.0
C      1  0.4948080000000  0.5033110000000  0.5215180000000 1.0
END
