TITL C-2782231-7322-1213 -2.07130734978995e-07 125000 -177.46248865485 0 0 32 (C1) n - 1
REM
REM in /home/nfs/bkarasulu/CARBON/AIRSS/Generating-Clusters/REBO/Higher-Symm/SD-CG/HFTN-CG
REM
REM
REM
REM
REM
REM ./C.cell (12c818d87b63d06a65506943cc24bca4)
REM
REM compiler GCC version 9.2.1 20190827 (Red Hat 9.2.1-1)
REM options -cpp -mtune=generic -march=x86-64 -g -O0 -fpre-include=/usr/include/finclude/math-vector-fortran.h
REM seed 1011513773 344057672 -1078809034 -913166082 -972529101 -1698866094 -2089863909 2009965914 -401175509 1583885745 1464235922 1552375986 -946054770 -1081330067 944876666 -1189128907 -1654827055 -280483614 -2066265122 -1118077729 -1362776041 1681135898 -1715695335 2050726985 859888315 1117950975 87211495 -1164177111 -2067754981 659924939 733393691 -1814815592 835842564
REM
CELL 1.54180   50.00000   50.00000   50.00000   90.00000   90.00000   90.00000
LATT -1
SFAC C  
C      1  0.5288810000000  0.5300610000000  0.4666050000000 1.0
C      1  0.5430300000000  0.4354640000000  0.5131860000000 1.0
C      1  0.5861610000000  0.4837300000000  0.5369060000000 1.0
C      1  0.4152720000000  0.5138440000000  0.5169000000000 1.0
C      1  0.4530240000000  0.4858210000000  0.5062360000000 1.0
C      1  0.5271280000000  0.5439330000000  0.4907240000000 1.0
C      1  0.4895580000000  0.4725040000000  0.4360930000000 1.0
C      1  0.5220070000000  0.5119420000000  0.4480780000000 1.0
C      1  0.5107210000000  0.4709320000000  0.5115050000000 1.0
C      1  0.5371710000000  0.4619360000000  0.5162820000000 1.0
C      1  0.3918160000000  0.4526310000000  0.4868790000000 1.0
C      1  0.4901260000000  0.4543390000000  0.5012900000000 1.0
C      1  0.5021870000000  0.4964220000000  0.5168200000000 1.0
C      1  0.4250610000000  0.4905500000000  0.5066650000000 1.0
C      1  0.5339400000000  0.5380860000000  0.5517420000000 1.0
C      1  0.5506950000000  0.5787260000000  0.5148260000000 1.0
C      1  0.4829860000000  0.5659360000000  0.4937020000000 1.0
C      1  0.5522880000000  0.5513540000000  0.5067830000000 1.0
C      1  0.4716950000000  0.5044650000000  0.5146140000000 1.0
C      1  0.5067660000000  0.5358090000000  0.5507130000000 1.0
C      1  0.4635530000000  0.4617140000000  0.4940470000000 1.0
C      1  0.4695110000000  0.4579020000000  0.4465230000000 1.0
C      1  0.4529870000000  0.4525140000000  0.4687050000000 1.0
C      1  0.5532140000000  0.5333910000000  0.5317660000000 1.0
C      1  0.5015140000000  0.5473900000000  0.5024180000000 1.0
C      1  0.5680920000000  0.5099640000000  0.5306430000000 1.0
C      1  0.5082280000000  0.4917620000000  0.4370410000000 1.0
C      1  0.5566270000000  0.4797850000000  0.5244950000000 1.0
C      1  0.4280920000000  0.4418260000000  0.4665620000000 1.0
C      1  0.4942690000000  0.5276880000000  0.5239930000000 1.0
C      1  0.4078990000000  0.4709760000000  0.4964510000000 1.0
C      1  0.5755000000000  0.5466040000000  0.4908100000000 1.0
END
