TITL C-2782230-7391-519 -0.00477529954931003 125000 -838.129648562678 0 0 144 (C1) n - 1
REM
REM in /home/nfs/bkarasulu/CARBON/AIRSS/Generating-Clusters/REBO/Higher-Symm/SD-CG/HFTN-CG
REM
REM
REM
REM
REM
REM ./C.cell (12c818d87b63d06a65506943cc24bca4)
REM
REM compiler GCC version 9.2.1 20190827 (Red Hat 9.2.1-1)
REM options -cpp -mtune=generic -march=x86-64 -g -O0 -fpre-include=/usr/include/finclude/math-vector-fortran.h
REM seed -219171089 2039129854 1996760803 457348091 -995919065 1501836892 -2053317470 1840896643 126288086 1799633460 -660524547 1128019012 -951608078 787651224 -1665095043 -1977296994 1588814094 -466991911 902424007 372665939 -1633679363 -756389617 -1589902295 719926170 1185098697 1821938979 -813845900 23582557 -666741191 -1406479167 1477477013 -646499491 255173961
REM
CELL 1.54180   50.00000   50.00000   50.00000   90.00000   90.00000   90.00000
LATT -1
SFAC C  
C      1  0.5452810000000  0.4492980000000  0.5078310000000 1.0
C      1  0.4892420000000  0.4898230000000  0.3991910000000 1.0
C      1  0.4808820000000  0.5749290000000  0.4447580000000 1.0
C      1  0.4253290000000  0.5660520000000  0.4773060000000 1.0
C      1  0.5569590000000  0.5331930000000  0.4440420000000 1.0
C      1  0.5368430000000  0.5881940000000  0.5130660000000 1.0
C      1  0.5637240000000  0.5513760000000  0.5316690000000 1.0
C      1  0.5710640000000  0.5096450000000  0.5327540000000 1.0
C      1  0.5482950000000  0.5732990000000  0.4844140000000 1.0
C      1  0.4082350000000  0.4681550000000  0.4842970000000 1.0
C      1  0.5381500000000  0.5805200000000  0.5401330000000 1.0
C      1  0.5158430000000  0.4974180000000  0.3950670000000 1.0
C      1  0.4349930000000  0.4472470000000  0.5741550000000 1.0
C      1  0.5488980000000  0.5627060000000  0.4518870000000 1.0
C      1  0.5583330000000  0.5098840000000  0.4288000000000 1.0
C      1  0.4621430000000  0.5181810000000  0.4892200000000 1.0
C      1  0.4954290000000  0.5267550000000  0.4130170000000 1.0
C      1  0.4275270000000  0.4442930000000  0.4752680000000 1.0
C      1  0.4602650000000  0.5076950000000  0.5194810000000 1.0
C      1  0.5226210000000  0.5513430000000  0.4797820000000 1.0
C      1  0.5978280000000  0.4830810000000  0.4523700000000 1.0
C      1  0.5314510000000  0.5119280000000  0.5484420000000 1.0
C      1  0.4405740000000  0.4689010000000  0.4048360000000 1.0
C      1  0.5199700000000  0.5082020000000  0.4811540000000 1.0
C      1  0.5682990000000  0.4321410000000  0.4693480000000 1.0
C      1  0.5038460000000  0.4685500000000  0.5380130000000 1.0
C      1  0.5112240000000  0.5016650000000  0.5973760000000 1.0
C      1  0.4581160000000  0.4559840000000  0.4215130000000 1.0
C      1  0.5103700000000  0.6025290000000  0.5085090000000 1.0
C      1  0.4022650000000  0.5128820000000  0.4892460000000 1.0
C      1  0.4370190000000  0.4327200000000  0.5039610000000 1.0
C      1  0.4161160000000  0.4835320000000  0.5125870000000 1.0
C      1  0.4051090000000  0.5154840000000  0.5195590000000 1.0
C      1  0.5315500000000  0.4183210000000  0.4628410000000 1.0
C      1  0.5700620000000  0.4812950000000  0.4341570000000 1.0
C      1  0.5477250000000  0.4889370000000  0.4747840000000 1.0
C      1  0.5181270000000  0.4558820000000  0.5816770000000 1.0
C      1  0.5258520000000  0.4465350000000  0.5329410000000 1.0
C      1  0.4710680000000  0.5607730000000  0.5591540000000 1.0
C      1  0.4959720000000  0.4053670000000  0.4998930000000 1.0
C      1  0.4727430000000  0.4801370000000  0.5830930000000 1.0
C      1  0.4225260000000  0.5376520000000  0.5613980000000 1.0
C      1  0.4468700000000  0.4825360000000  0.5381410000000 1.0
C      1  0.4161560000000  0.5289320000000  0.4452760000000 1.0
C      1  0.4377520000000  0.4955000000000  0.4114770000000 1.0
C      1  0.5627710000000  0.5049330000000  0.5618570000000 1.0
C      1  0.5930080000000  0.5219570000000  0.5219600000000 1.0
C      1  0.5018290000000  0.5706050000000  0.5203760000000 1.0
C      1  0.4778740000000  0.5410130000000  0.5070170000000 1.0
C      1  0.5408220000000  0.5028030000000  0.5951050000000 1.0
C      1  0.5324530000000  0.4788260000000  0.5102960000000 1.0
C      1  0.5206460000000  0.4709120000000  0.4671830000000 1.0
C      1  0.4956100000000  0.5229980000000  0.5873330000000 1.0
C      1  0.4406010000000  0.5404890000000  0.4642670000000 1.0
C      1  0.5048320000000  0.5510290000000  0.5401310000000 1.0
C      1  0.5722110000000  0.4368860000000  0.5158670000000 1.0
C      1  0.4556060000000  0.4292480000000  0.5728390000000 1.0
C      1  0.5540150000000  0.4591400000000  0.5454730000000 1.0
C      1  0.5859170000000  0.4522720000000  0.4564990000000 1.0
C      1  0.4688430000000  0.5340140000000  0.5378550000000 1.0
C      1  0.4790640000000  0.4362530000000  0.5592670000000 1.0
C      1  0.4987410000000  0.5705120000000  0.4882240000000 1.0
C      1  0.4010090000000  0.4907280000000  0.4633900000000 1.0
C      1  0.5692580000000  0.5652230000000  0.5088420000000 1.0
C      1  0.5525750000000  0.5313280000000  0.5787330000000 1.0
C      1  0.4849190000000  0.4519510000000  0.4844900000000 1.0
C      1  0.5310270000000  0.4805010000000  0.5530480000000 1.0
C      1  0.5039800000000  0.5367780000000  0.5634780000000 1.0
C      1  0.4178920000000  0.5647370000000  0.5042630000000 1.0
C      1  0.4762350000000  0.4796910000000  0.5115030000000 1.0
C      1  0.4428880000000  0.4961180000000  0.5883180000000 1.0
C      1  0.5098380000000  0.4793030000000  0.4393330000000 1.0
C      1  0.5978840000000  0.4714330000000  0.5030390000000 1.0
C      1  0.4144480000000  0.5433300000000  0.5295690000000 1.0
C      1  0.5913490000000  0.4560170000000  0.5261500000000 1.0
C      1  0.5203810000000  0.4175250000000  0.5430620000000 1.0
C      1  0.4572230000000  0.4278080000000  0.4686810000000 1.0
C      1  0.5213870000000  0.3996410000000  0.4820020000000 1.0
C      1  0.5004950000000  0.5154290000000  0.5085390000000 1.0
C      1  0.6084980000000  0.4911910000000  0.4827840000000 1.0
C      1  0.5469930000000  0.4602750000000  0.4320560000000 1.0
C      1  0.5488930000000  0.5562620000000  0.5622090000000 1.0
C      1  0.3929880000000  0.5298250000000  0.4623850000000 1.0
C      1  0.5036240000000  0.4759340000000  0.4963580000000 1.0
C      1  0.4174790000000  0.5075150000000  0.5698260000000 1.0
C      1  0.4467480000000  0.4544880000000  0.5200660000000 1.0
C      1  0.4878750000000  0.4648430000000  0.4173550000000 1.0
C      1  0.5983810000000  0.5188960000000  0.4911560000000 1.0
C      1  0.4090370000000  0.4933160000000  0.5443850000000 1.0
C      1  0.4370190000000  0.4731410000000  0.5666090000000 1.0
C      1  0.5030460000000  0.4375450000000  0.4281390000000 1.0
C      1  0.5013930000000  0.5303930000000  0.4632180000000 1.0
C      1  0.4872250000000  0.4497720000000  0.4539590000000 1.0
C      1  0.5238440000000  0.5367500000000  0.5082380000000 1.0
C      1  0.5927580000000  0.4644580000000  0.5533070000000 1.0
C      1  0.4498120000000  0.5560040000000  0.4304910000000 1.0
C      1  0.4913810000000  0.6102030000000  0.4887510000000 1.0
C      1  0.4643320000000  0.5690900000000  0.5064590000000 1.0
C      1  0.4788630000000  0.4795990000000  0.4645540000000 1.0
C      1  0.5052760000000  0.5114640000000  0.4382510000000 1.0
C      1  0.4391280000000  0.4804890000000  0.4628180000000 1.0
C      1  0.4699140000000  0.5870020000000  0.4808980000000 1.0
C      1  0.5449080000000  0.5286420000000  0.4720070000000 1.0
C      1  0.4329680000000  0.5107890000000  0.4764050000000 1.0
C      1  0.5774560000000  0.4777370000000  0.5714850000000 1.0
C      1  0.4408290000000  0.5719420000000  0.5209650000000 1.0
C      1  0.4233010000000  0.4988700000000  0.4387210000000 1.0
C      1  0.4761200000000  0.4237180000000  0.4941740000000 1.0
C      1  0.5649180000000  0.5195670000000  0.4936520000000 1.0
C      1  0.5776690000000  0.4183720000000  0.4937620000000 1.0
C      1  0.4411030000000  0.5608650000000  0.5481730000000 1.0
C      1  0.4740950000000  0.5450020000000  0.4595400000000 1.0
C      1  0.4455700000000  0.4787800000000  0.4962200000000 1.0
C      1  0.5396920000000  0.4465900000000  0.4763700000000 1.0
C      1  0.4991900000000  0.4761920000000  0.5920570000000 1.0
C      1  0.5079320000000  0.5884010000000  0.4474300000000 1.0
C      1  0.4678760000000  0.5191370000000  0.5902110000000 1.0
C      1  0.4659100000000  0.5103890000000  0.4071320000000 1.0
C      1  0.4477300000000  0.4532150000000  0.4492810000000 1.0
C      1  0.4624930000000  0.5244620000000  0.4353260000000 1.0
C      1  0.5210100000000  0.5755790000000  0.5670880000000 1.0
C      1  0.5278110000000  0.5719650000000  0.4348980000000 1.0
C      1  0.5397970000000  0.5343680000000  0.5301830000000 1.0
C      1  0.5180330000000  0.3987960000000  0.5216830000000 1.0
C      1  0.5072970000000  0.4338140000000  0.5659620000000 1.0
C      1  0.4757700000000  0.4552690000000  0.5354730000000 1.0
C      1  0.5572750000000  0.5282290000000  0.6106030000000 1.0
C      1  0.5747780000000  0.4694980000000  0.4818260000000 1.0
C      1  0.4708560000000  0.5046970000000  0.4618430000000 1.0
C      1  0.5467320000000  0.4743290000000  0.5817490000000 1.0
C      1  0.5761760000000  0.5052110000000  0.4651150000000 1.0
C      1  0.5511260000000  0.4997620000000  0.5137090000000 1.0
C      1  0.5002720000000  0.5014360000000  0.5387680000000 1.0
C      1  0.5412380000000  0.3874660000000  0.5029640000000 1.0
C      1  0.4523020000000  0.5257800000000  0.5633930000000 1.0
C      1  0.4712120000000  0.4981610000000  0.5563410000000 1.0
C      1  0.4924140000000  0.5744750000000  0.5699580000000 1.0
C      1  0.5687530000000  0.3916880000000  0.4985840000000 1.0
C      1  0.4760960000000  0.4210100000000  0.4411420000000 1.0
C      1  0.4491420000000  0.5783750000000  0.4563470000000 1.0
C      1  0.5344580000000  0.4893990000000  0.4188280000000 1.0
C      1  0.5145350000000  0.5549530000000  0.4153500000000 1.0
C      1  0.4805630000000  0.5563230000000  0.4168800000000 1.0
C      1  0.5318080000000  0.4373790000000  0.4382640000000 1.0
END
