TITL C-2782236-320-857 -0.00410568833438283 125000 -350.138922060507 0 0 65 (C1) n - 1
REM
REM in /home/nfs/bkarasulu/CARBON/AIRSS/Generating-Clusters/REBO/Higher-Symm/SD-CG/HFTN-CG
REM
REM
REM
REM
REM
REM ./C.cell (12c818d87b63d06a65506943cc24bca4)
REM
REM compiler GCC version 9.2.1 20190827 (Red Hat 9.2.1-1)
REM options -cpp -mtune=generic -march=x86-64 -g -O0 -fpre-include=/usr/include/finclude/math-vector-fortran.h
REM seed -1611535045 1433408688 -840752360 -541521943 -1288852849 178268615 1724834578 -199567835 2031720163 1792046758 1233063742 1312050545 788999705 1278023166 -2057283601 1879167020 -765998384 -758137013 461168469 -655662441 1713026695 1926733426 -375756959 1517118272 978836875 -1656697054 378096905 -1361838346 589989170 -1063922525 28512639 1521109442 1583807780
REM
CELL 1.54180   50.00000   50.00000   50.00000   90.00000   90.00000   90.00000
LATT -1
SFAC C  
C      1  0.5908280000000  0.5236050000000  0.4848670000000 1.0
C      1  0.5293520000000  0.4724160000000  0.5720260000000 1.0
C      1  0.4920530000000  0.5731880000000  0.5391270000000 1.0
C      1  0.4316300000000  0.5228750000000  0.5099350000000 1.0
C      1  0.4299780000000  0.4750990000000  0.4862300000000 1.0
C      1  0.5669010000000  0.4885700000000  0.5248540000000 1.0
C      1  0.4779000000000  0.4784790000000  0.4207290000000 1.0
C      1  0.4684390000000  0.5197880000000  0.5689600000000 1.0
C      1  0.5225380000000  0.5112990000000  0.4288040000000 1.0
C      1  0.5236780000000  0.5815250000000  0.4761830000000 1.0
C      1  0.5272040000000  0.4463320000000  0.5286100000000 1.0
C      1  0.4903630000000  0.4055120000000  0.4823280000000 1.0
C      1  0.4335650000000  0.5326320000000  0.4847050000000 1.0
C      1  0.5284900000000  0.4874620000000  0.4400440000000 1.0
C      1  0.4988920000000  0.4423130000000  0.5293520000000 1.0
C      1  0.5815530000000  0.5308330000000  0.5093140000000 1.0
C      1  0.5564620000000  0.4755320000000  0.4993290000000 1.0
C      1  0.4339330000000  0.4653240000000  0.5111180000000 1.0
C      1  0.4610660000000  0.4930790000000  0.5702160000000 1.0
C      1  0.4715480000000  0.5048250000000  0.4183200000000 1.0
C      1  0.5379570000000  0.4987940000000  0.5650560000000 1.0
C      1  0.5128060000000  0.4203130000000  0.4775800000000 1.0
C      1  0.5162760000000  0.5586200000000  0.5371590000000 1.0
C      1  0.5031000000000  0.5610300000000  0.4753620000000 1.0
C      1  0.5285760000000  0.5075960000000  0.4745720000000 1.0
C      1  0.5041750000000  0.4882060000000  0.5318080000000 1.0
C      1  0.4849540000000  0.5237880000000  0.5064070000000 1.0
C      1  0.4593150000000  0.5121240000000  0.5224240000000 1.0
C      1  0.4576540000000  0.4852850000000  0.4695460000000 1.0
C      1  0.5344650000000  0.4990070000000  0.5229840000000 1.0
C      1  0.4790030000000  0.4679770000000  0.4519240000000 1.0
C      1  0.4848800000000  0.5240800000000  0.5394490000000 1.0
C      1  0.4985780000000  0.5219310000000  0.4656180000000 1.0
C      1  0.5189820000000  0.5362120000000  0.4894820000000 1.0
C      1  0.5001440000000  0.4716410000000  0.5023900000000 1.0
C      1  0.4620680000000  0.4529760000000  0.4772780000000 1.0
C      1  0.5540080000000  0.4932000000000  0.4766740000000 1.0
C      1  0.4781380000000  0.4744600000000  0.5489790000000 1.0
C      1  0.4828840000000  0.5521710000000  0.4956200000000 1.0
C      1  0.4508140000000  0.4819530000000  0.5333310000000 1.0
C      1  0.4487200000000  0.5158870000000  0.4609340000000 1.0
C      1  0.5548270000000  0.5265430000000  0.5244030000000 1.0
C      1  0.5117570000000  0.4634070000000  0.4540020000000 1.0
C      1  0.5135600000000  0.5128110000000  0.5538310000000 1.0
C      1  0.4740300000000  0.5238780000000  0.4454470000000 1.0
C      1  0.5346230000000  0.5473540000000  0.5147340000000 1.0
C      1  0.5168100000000  0.4512070000000  0.4805080000000 1.0
C      1  0.4770820000000  0.4481390000000  0.5050510000000 1.0
C      1  0.4759040000000  0.5711210000000  0.5156860000000 1.0
C      1  0.5775790000000  0.5063030000000  0.4681090000000 1.0
C      1  0.5051790000000  0.4628360000000  0.5630670000000 1.0
C      1  0.5432770000000  0.5727090000000  0.4956570000000 1.0
C      1  0.5368650000000  0.4561200000000  0.5037510000000 1.0
C      1  0.4697020000000  0.4181270000000  0.4952830000000 1.0
C      1  0.4220610000000  0.4997700000000  0.5273140000000 1.0
C      1  0.4203890000000  0.4983730000000  0.4692960000000 1.0
C      1  0.5612690000000  0.5063170000000  0.5511380000000 1.0
C      1  0.5034240000000  0.4629830000000  0.4209910000000 1.0
C      1  0.4959740000000  0.5271130000000  0.5774830000000 1.0
C      1  0.5019140000000  0.5290680000000  0.4265710000000 1.0
C      1  0.5433510000000  0.4420930000000  0.5500340000000 1.0
C      1  0.4848610000000  0.5876240000000  0.5609560000000 1.0
C      1  0.4409900000000  0.4326260000000  0.4700410000000 1.0
C      1  0.5244940000000  0.6041960000000  0.4615020000000 1.0
C      1  0.5005940000000  0.5008400000000  0.4922700000000 1.0
END
