TITL C-2782226-7400-1095 -0.00191430472800575 125000 -819.671952924351 0 0 142 (C1) n - 1
REM
REM in /home/nfs/bkarasulu/CARBON/AIRSS/Generating-Clusters/REBO/Higher-Symm/SD-CG/HFTN-CG
REM
REM
REM
REM
REM
REM ./C.cell (12c818d87b63d06a65506943cc24bca4)
REM
REM compiler GCC version 9.2.1 20190827 (Red Hat 9.2.1-1)
REM options -cpp -mtune=generic -march=x86-64 -g -O0 -fpre-include=/usr/include/finclude/math-vector-fortran.h
REM seed -713378765 104292333 441422808 1878867698 609538766 -223712308 -1450284800 657154220 937394512 918687499 -1422335521 1307092256 74519476 840168310 -1512375392 -1803281875 993645120 -62887653 -1786477793 -1662636826 1351681173 -145803137 -1028414501 -1642704492 430216621 -886089505 1033927650 211704513 757154312 -1758143282 1509779060 1838537985 -1520400608
REM
CELL 1.54180   50.00000   50.00000   50.00000   90.00000   90.00000   90.00000
LATT -1
SFAC C  
C      1  0.5061150000000  0.4668970000000  0.5164170000000 1.0
C      1  0.4724400000000  0.5057460000000  0.5218720000000 1.0
C      1  0.5220160000000  0.5151360000000  0.5166650000000 1.0
C      1  0.5015360000000  0.5228350000000  0.4831900000000 1.0
C      1  0.4744970000000  0.4867300000000  0.4823730000000 1.0
C      1  0.5285080000000  0.4826410000000  0.4839280000000 1.0
C      1  0.4294160000000  0.5594750000000  0.5187320000000 1.0
C      1  0.5844010000000  0.5504250000000  0.5242100000000 1.0
C      1  0.5007710000000  0.4003590000000  0.5294850000000 1.0
C      1  0.4225320000000  0.4423810000000  0.4820680000000 1.0
C      1  0.5869110000000  0.4477650000000  0.4674970000000 1.0
C      1  0.4927750000000  0.5952230000000  0.4759190000000 1.0
C      1  0.4668770000000  0.4635170000000  0.4601930000000 1.0
C      1  0.5016260000000  0.5452520000000  0.4588220000000 1.0
C      1  0.5502450000000  0.4855150000000  0.4605190000000 1.0
C      1  0.4647220000000  0.5307660000000  0.5442510000000 1.0
C      1  0.4885720000000  0.4557810000000  0.5387970000000 1.0
C      1  0.5393950000000  0.5264290000000  0.5417240000000 1.0
C      1  0.5663360000000  0.4405110000000  0.5360260000000 1.0
C      1  0.4182720000000  0.4753310000000  0.5382850000000 1.0
C      1  0.5169700000000  0.5818450000000  0.5401150000000 1.0
C      1  0.5588090000000  0.5582080000000  0.4617850000000 1.0
C      1  0.4179840000000  0.5317430000000  0.4585450000000 1.0
C      1  0.5167660000000  0.4132360000000  0.4613930000000 1.0
C      1  0.4550090000000  0.5422090000000  0.4159960000000 1.0
C      1  0.5536370000000  0.5164520000000  0.4254050000000 1.0
C      1  0.4833910000000  0.4421100000000  0.4238690000000 1.0
C      1  0.4560820000000  0.4578800000000  0.5770600000000 1.0
C      1  0.5564400000000  0.4834670000000  0.5733860000000 1.0
C      1  0.4834170000000  0.5556950000000  0.5772200000000 1.0
C      1  0.4807450000000  0.5808070000000  0.5635580000000 1.0
C      1  0.5794490000000  0.4701770000000  0.5589550000000 1.0
C      1  0.4341670000000  0.4462410000000  0.5602530000000 1.0
C      1  0.4836360000000  0.4163370000000  0.4395410000000 1.0
C      1  0.5752230000000  0.5268910000000  0.4419220000000 1.0
C      1  0.4342900000000  0.5561220000000  0.4317180000000 1.0
C      1  0.4610210000000  0.4174020000000  0.4920730000000 1.0
C      1  0.4488790000000  0.5782710000000  0.4893370000000 1.0
C      1  0.5924760000000  0.5106780000000  0.4920910000000 1.0
C      1  0.4597260000000  0.5859680000000  0.5101280000000 1.0
C      1  0.4461490000000  0.4257340000000  0.5097280000000 1.0
C      1  0.5938250000000  0.4928930000000  0.5091980000000 1.0
C      1  0.4944700000000  0.4469440000000  0.4834620000000 1.0
C      1  0.4650390000000  0.5385980000000  0.4743410000000 1.0
C      1  0.5504710000000  0.5175520000000  0.4843090000000 1.0
C      1  0.4834970000000  0.5499280000000  0.5148910000000 1.0
C      1  0.4581380000000  0.4675780000000  0.5160550000000 1.0
C      1  0.5540690000000  0.4836110000000  0.5145320000000 1.0
C      1  0.4347660000000  0.5398340000000  0.5723140000000 1.0
C      1  0.5676620000000  0.5312420000000  0.5693550000000 1.0
C      1  0.4910200000000  0.4247630000000  0.5693550000000 1.0
C      1  0.4366870000000  0.4588860000000  0.4346370000000 1.0
C      1  0.5675130000000  0.4696180000000  0.4281370000000 1.0
C      1  0.4887390000000  0.5715360000000  0.4315830000000 1.0
C      1  0.5261400000000  0.4300310000000  0.5232710000000 1.0
C      1  0.4353820000000  0.5201070000000  0.5196860000000 1.0
C      1  0.5459680000000  0.5583950000000  0.5187770000000 1.0
C      1  0.5242510000000  0.5715770000000  0.4817550000000 1.0
C      1  0.4287330000000  0.4867090000000  0.4756550000000 1.0
C      1  0.5489570000000  0.4447960000000  0.4766950000000 1.0
C      1  0.5842390000000  0.5358170000000  0.4737610000000 1.0
C      1  0.4848740000000  0.4087510000000  0.4727320000000 1.0
C      1  0.4335390000000  0.5613290000000  0.4653290000000 1.0
C      1  0.5876070000000  0.4654280000000  0.5261100000000 1.0
C      1  0.4845530000000  0.5909030000000  0.5312970000000 1.0
C      1  0.4274470000000  0.4444110000000  0.5268130000000 1.0
C      1  0.5070640000000  0.3988080000000  0.4971420000000 1.0
C      1  0.4220060000000  0.5480540000000  0.4944900000000 1.0
C      1  0.5818420000000  0.5613480000000  0.4941550000000 1.0
C      1  0.5062980000000  0.6008090000000  0.5067830000000 1.0
C      1  0.4071810000000  0.4611780000000  0.5045620000000 1.0
C      1  0.5832290000000  0.4431550000000  0.5001430000000 1.0
C      1  0.4143290000000  0.5159170000000  0.4861740000000 1.0
C      1  0.5558960000000  0.5805170000000  0.4873540000000 1.0
C      1  0.5352050000000  0.4154030000000  0.4872420000000 1.0
C      1  0.4139720000000  0.4939330000000  0.5119510000000 1.0
C      1  0.5570660000000  0.4243350000000  0.5099990000000 1.0
C      1  0.5371780000000  0.5906410000000  0.5141160000000 1.0
C      1  0.5651340000000  0.4700090000000  0.4934790000000 1.0
C      1  0.4449970000000  0.4622420000000  0.4935270000000 1.0
C      1  0.4947190000000  0.5705230000000  0.4987230000000 1.0
C      1  0.5602060000000  0.5301650000000  0.5053380000000 1.0
C      1  0.4597960000000  0.5386460000000  0.5032280000000 1.0
C      1  0.4980870000000  0.4298650000000  0.5038590000000 1.0
C      1  0.4074250000000  0.4637130000000  0.5682870000000 1.0
C      1  0.5038310000000  0.6020410000000  0.5641310000000 1.0
C      1  0.5771490000000  0.4386220000000  0.5680510000000 1.0
C      1  0.4058600000000  0.5399350000000  0.4278470000000 1.0
C      1  0.5113350000000  0.4026180000000  0.4296710000000 1.0
C      1  0.5844930000000  0.5571190000000  0.4402670000000 1.0
C      1  0.5130580000000  0.5827260000000  0.4515290000000 1.0
C      1  0.5595840000000  0.4419570000000  0.4463970000000 1.0
C      1  0.4251470000000  0.4833370000000  0.4452000000000 1.0
C      1  0.5199180000000  0.4175490000000  0.5527040000000 1.0
C      1  0.5619170000000  0.5583680000000  0.5491590000000 1.0
C      1  0.4269710000000  0.5214620000000  0.5527070000000 1.0
C      1  0.5787710000000  0.4753020000000  0.4565280000000 1.0
C      1  0.4433530000000  0.4421520000000  0.4591940000000 1.0
C      1  0.4780700000000  0.5673620000000  0.4627320000000 1.0
C      1  0.5733050000000  0.5218350000000  0.5390910000000 1.0
C      1  0.4490000000000  0.5542960000000  0.5381400000000 1.0
C      1  0.4830930000000  0.4243920000000  0.5395000000000 1.0
C      1  0.5057880000000  0.5147580000000  0.4443220000000 1.0
C      1  0.5195110000000  0.4872650000000  0.4457790000000 1.0
C      1  0.4731620000000  0.4895700000000  0.4430610000000 1.0
C      1  0.5086010000000  0.4833160000000  0.5522880000000 1.0
C      1  0.5107000000000  0.5130160000000  0.5549500000000 1.0
C      1  0.4717210000000  0.5074590000000  0.5614540000000 1.0
C      1  0.4694750000000  0.4807210000000  0.5446740000000 1.0
C      1  0.5017860000000  0.5364770000000  0.5320080000000 1.0
C      1  0.5332070000000  0.4794620000000  0.5307070000000 1.0
C      1  0.4687520000000  0.5138980000000  0.4621590000000 1.0
C      1  0.5057930000000  0.4662000000000  0.4687010000000 1.0
C      1  0.5301320000000  0.5189980000000  0.4675900000000 1.0
C      1  0.5056580000000  0.4676780000000  0.5793960000000 1.0
C      1  0.4662930000000  0.5083300000000  0.5916800000000 1.0
C      1  0.5235040000000  0.5196310000000  0.5841360000000 1.0
C      1  0.5033130000000  0.5296960000000  0.4151500000000 1.0
C      1  0.4652280000000  0.4919440000000  0.4141010000000 1.0
C      1  0.5211770000000  0.4748800000000  0.4174490000000 1.0
C      1  0.4837100000000  0.4495340000000  0.5810140000000 1.0
C      1  0.4610420000000  0.5382810000000  0.5845470000000 1.0
C      1  0.5513930000000  0.5113360000000  0.5821750000000 1.0
C      1  0.4826500000000  0.5497260000000  0.4150600000000 1.0
C      1  0.4610900000000  0.4610320000000  0.4179150000000 1.0
C      1  0.5486300000000  0.4883580000000  0.4184130000000 1.0
C      1  0.4228590000000  0.5106320000000  0.4319770000000 1.0
C      1  0.5320690000000  0.5550580000000  0.4465850000000 1.0
C      1  0.5323630000000  0.4288710000000  0.4353830000000 1.0
C      1  0.4240280000000  0.4934380000000  0.5649700000000 1.0
C      1  0.5437500000000  0.4367170000000  0.5613040000000 1.0
C      1  0.5283020000000  0.5564940000000  0.5541890000000 1.0
C      1  0.5323450000000  0.5353050000000  0.4228710000000 1.0
C      1  0.5117880000000  0.4485340000000  0.4190730000000 1.0
C      1  0.4474640000000  0.5146130000000  0.4132480000000 1.0
C      1  0.5350420000000  0.4638060000000  0.5750710000000 1.0
C      1  0.5103910000000  0.5460790000000  0.5772870000000 1.0
C      1  0.4479870000000  0.4848190000000  0.5840320000000 1.0
C      1  0.5299700000000  0.4532850000000  0.5007450000000 1.0
C      1  0.5232420000000  0.5431130000000  0.4986270000000 1.0
C      1  0.4499210000000  0.5014370000000  0.4965790000000 1.0
C      1  0.4985880000000  0.4952200000000  0.5023430000000 1.0
END
