TITL C-2782233-7966-878 -0.00447452119800298 125000 -362.009622015528 0 0 66 (C1) n - 1
REM
REM in /home/nfs/bkarasulu/CARBON/AIRSS/Generating-Clusters/REBO/Higher-Symm/SD-CG/HFTN-CG
REM
REM
REM
REM
REM
REM ./C.cell (12c818d87b63d06a65506943cc24bca4)
REM
REM compiler GCC version 9.2.1 20190827 (Red Hat 9.2.1-1)
REM options -cpp -mtune=generic -march=x86-64 -g -O0 -fpre-include=/usr/include/finclude/math-vector-fortran.h
REM seed 427816582 2116894048 -1767503508 1509763966 -244354123 -1630775229 1729006980 -1956638487 1448698892 88460102 -1262911276 521765446 1642035986 820497171 -306083375 1641263036 361543250 399319786 1675038348 1741511546 936275302 1194715451 -1254239678 -1950383846 829870685 -2043355444 -1348044201 383036478 98461646 10860572 -822619858 -220530407 2127224792
REM
CELL 1.54180   50.00000   50.00000   50.00000   90.00000   90.00000   90.00000
LATT -1
SFAC C  
C      1  0.4773850000000  0.4881940000000  0.4435440000000 1.0
C      1  0.4814700000000  0.5159750000000  0.4536400000000 1.0
C      1  0.5086560000000  0.5216440000000  0.4535270000000 1.0
C      1  0.5235720000000  0.4981680000000  0.4443100000000 1.0
C      1  0.5044490000000  0.4762890000000  0.4373030000000 1.0
C      1  0.4803080000000  0.4879770000000  0.5409010000000 1.0
C      1  0.4833280000000  0.5179710000000  0.5430280000000 1.0
C      1  0.5095950000000  0.5241990000000  0.5553560000000 1.0
C      1  0.5233270000000  0.4981260000000  0.5652840000000 1.0
C      1  0.5041300000000  0.4774340000000  0.5560830000000 1.0
C      1  0.5590780000000  0.5345340000000  0.4842260000000 1.0
C      1  0.5474760000000  0.4570650000000  0.4853640000000 1.0
C      1  0.4733650000000  0.4361100000000  0.4866500000000 1.0
C      1  0.4301930000000  0.5045340000000  0.4842120000000 1.0
C      1  0.4835970000000  0.5657340000000  0.4865330000000 1.0
C      1  0.5564620000000  0.5327330000000  0.5181670000000 1.0
C      1  0.5511410000000  0.4566770000000  0.5187770000000 1.0
C      1  0.4732980000000  0.4375940000000  0.5199900000000 1.0
C      1  0.4345640000000  0.5029560000000  0.5165130000000 1.0
C      1  0.4829720000000  0.5672340000000  0.5195200000000 1.0
C      1  0.5244890000000  0.4380990000000  0.5263770000000 1.0
C      1  0.4537060000000  0.4634330000000  0.5241460000000 1.0
C      1  0.4444900000000  0.5332230000000  0.5266300000000 1.0
C      1  0.5151620000000  0.5591780000000  0.5229680000000 1.0
C      1  0.5574930000000  0.5009710000000  0.5240020000000 1.0
C      1  0.5168590000000  0.4491550000000  0.4806550000000 1.0
C      1  0.4487930000000  0.4552830000000  0.4757160000000 1.0
C      1  0.4407560000000  0.5363790000000  0.4793320000000 1.0
C      1  0.5163750000000  0.5635650000000  0.4795800000000 1.0
C      1  0.5664520000000  0.5028580000000  0.4764810000000 1.0
C      1  0.4869550000000  0.5568470000000  0.5509070000000 1.0
C      1  0.5436720000000  0.5282350000000  0.5494420000000 1.0
C      1  0.5414220000000  0.4654470000000  0.5498400000000 1.0
C      1  0.4782570000000  0.4483720000000  0.5514110000000 1.0
C      1  0.4455750000000  0.5059170000000  0.5483000000000 1.0
C      1  0.4871120000000  0.5551690000000  0.4544080000000 1.0
C      1  0.5477190000000  0.5285750000000  0.4526250000000 1.0
C      1  0.5408870000000  0.4638430000000  0.4526600000000 1.0
C      1  0.4773480000000  0.4504680000000  0.4560590000000 1.0
C      1  0.4432240000000  0.5053740000000  0.4542940000000 1.0
C      1  0.5123870000000  0.4469420000000  0.5560480000000 1.0
C      1  0.4552900000000  0.4739140000000  0.5554620000000 1.0
C      1  0.4605690000000  0.5358800000000  0.5562230000000 1.0
C      1  0.5210920000000  0.5538880000000  0.5539040000000 1.0
C      1  0.5547670000000  0.4962540000000  0.5575650000000 1.0
C      1  0.5106980000000  0.4469920000000  0.4478970000000 1.0
C      1  0.4511130000000  0.4724020000000  0.4483800000000 1.0
C      1  0.4581650000000  0.5367470000000  0.4510980000000 1.0
C      1  0.5210690000000  0.5503930000000  0.4485420000000 1.0
C      1  0.5549700000000  0.4948950000000  0.4458620000000 1.0
C      1  0.5118000000000  0.4689110000000  0.5230320000000 1.0
C      1  0.4770370000000  0.4826480000000  0.5097400000000 1.0
C      1  0.4799630000000  0.5224050000000  0.5119290000000 1.0
C      1  0.5095330000000  0.5303750000000  0.5106470000000 1.0
C      1  0.5263250000000  0.4979450000000  0.5303600000000 1.0
C      1  0.5025190000000  0.4769190000000  0.4722270000000 1.0
C      1  0.4725930000000  0.4866640000000  0.4785560000000 1.0
C      1  0.4677750000000  0.5180050000000  0.4850350000000 1.0
C      1  0.5194880000000  0.5298850000000  0.4824440000000 1.0
C      1  0.5330800000000  0.5016300000000  0.4778860000000 1.0
C      1  0.5642370000000  0.4821100000000  0.5002660000000 1.0
C      1  0.4386090000000  0.4745450000000  0.4978260000000 1.0
C      1  0.4564230000000  0.5532530000000  0.5034310000000 1.0
C      1  0.5408110000000  0.5574260000000  0.5016680000000 1.0
C      1  0.5025220000000  0.4347720000000  0.5038010000000 1.0
C      1  0.5079570000000  0.4962370000000  0.5007270000000 1.0
END
