TITL C-2782238-9940-663 0.00161473316854861 125000 -665.286214549153 0 0 110 (C1) n - 1
REM
REM in /home/nfs/bkarasulu/CARBON/AIRSS/Generating-Clusters/REBO/Higher-Symm/SD-CG/HFTN-CG
REM
REM
REM
REM
REM
REM ./C.cell (12c818d87b63d06a65506943cc24bca4)
REM
REM compiler GCC version 9.2.1 20190827 (Red Hat 9.2.1-1)
REM options -cpp -mtune=generic -march=x86-64 -g -O0 -fpre-include=/usr/include/finclude/math-vector-fortran.h
REM seed -1083641940 -1261739621 -1124208214 1605550517 998227830 1923540118 785700604 -2023927761 -278282916 1917234527 1687279564 -1547563709 300607973 1119070088 1864647198 -1156299476 -1292690430 -1819881202 1615131394 1466355643 -857097935 1807698246 -1140995866 -296431505 1497922651 306296667 -1108092889 -596132387 1704910597 1841626057 -1387603540 -1190566078 191300620
REM
CELL 1.54180   50.00000   50.00000   50.00000   90.00000   90.00000   90.00000
LATT -1
SFAC C  
C      1  0.4471990000000  0.5146880000000  0.4218120000000 1.0
C      1  0.5544290000000  0.4856340000000  0.4270230000000 1.0
C      1  0.4465510000000  0.5099000000000  0.5762730000000 1.0
C      1  0.5577240000000  0.4802400000000  0.5824570000000 1.0
C      1  0.4538350000000  0.5004670000000  0.4672010000000 1.0
C      1  0.5497610000000  0.5138780000000  0.4731910000000 1.0
C      1  0.4475800000000  0.4865560000000  0.5253400000000 1.0
C      1  0.5472960000000  0.5088650000000  0.5367570000000 1.0
C      1  0.4772300000000  0.5710160000000  0.5321630000000 1.0
C      1  0.5114560000000  0.4321270000000  0.5281470000000 1.0
C      1  0.4813250000000  0.5709370000000  0.4818860000000 1.0
C      1  0.5111240000000  0.4315740000000  0.4794760000000 1.0
C      1  0.4770810000000  0.5178010000000  0.5518970000000 1.0
C      1  0.5217540000000  0.4818350000000  0.5513400000000 1.0
C      1  0.4965710000000  0.5409510000000  0.4539980000000 1.0
C      1  0.5119760000000  0.4640020000000  0.4538130000000 1.0
C      1  0.4374620000000  0.4510040000000  0.4480960000000 1.0
C      1  0.5721470000000  0.5523740000000  0.4337130000000 1.0
C      1  0.4367790000000  0.4447970000000  0.5563270000000 1.0
C      1  0.5495500000000  0.5493450000000  0.5405260000000 1.0
C      1  0.4707280000000  0.5563200000000  0.4462360000000 1.0
C      1  0.5355450000000  0.4451890000000  0.4457570000000 1.0
C      1  0.4665110000000  0.5437610000000  0.5592990000000 1.0
C      1  0.5305130000000  0.4545820000000  0.5552000000000 1.0
C      1  0.4116000000000  0.4636970000000  0.5656700000000 1.0
C      1  0.5679850000000  0.5270670000000  0.5583090000000 1.0
C      1  0.4125140000000  0.4674250000000  0.4367650000000 1.0
C      1  0.5876130000000  0.5235680000000  0.4276310000000 1.0
C      1  0.4228900000000  0.5202790000000  0.4383100000000 1.0
C      1  0.5788250000000  0.4709940000000  0.4393720000000 1.0
C      1  0.4206430000000  0.5155580000000  0.5648940000000 1.0
C      1  0.5804350000000  0.4772180000000  0.5641500000000 1.0
C      1  0.5157490000000  0.5576130000000  0.5599210000000 1.0
C      1  0.4858680000000  0.4388470000000  0.5644250000000 1.0
C      1  0.5201340000000  0.5532640000000  0.4358330000000 1.0
C      1  0.4877500000000  0.4487860000000  0.4390200000000 1.0
C      1  0.5389230000000  0.4281360000000  0.4886150000000 1.0
C      1  0.4525830000000  0.5699970000000  0.4901250000000 1.0
C      1  0.5392960000000  0.4285230000000  0.5174990000000 1.0
C      1  0.4503870000000  0.5693460000000  0.5187350000000 1.0
C      1  0.4789260000000  0.5477390000000  0.3975000000000 1.0
C      1  0.5236290000000  0.4552380000000  0.3992830000000 1.0
C      1  0.4790440000000  0.5460990000000  0.5971500000000 1.0
C      1  0.5246790000000  0.4441210000000  0.5994350000000 1.0
C      1  0.4149140000000  0.5271450000000  0.4880720000000 1.0
C      1  0.5822760000000  0.4755970000000  0.4870270000000 1.0
C      1  0.4124370000000  0.5258040000000  0.5155230000000 1.0
C      1  0.5815920000000  0.4774860000000  0.5146320000000 1.0
C      1  0.4657940000000  0.4364240000000  0.4604880000000 1.0
C      1  0.5468840000000  0.5639440000000  0.4539540000000 1.0
C      1  0.4640380000000  0.4296300000000  0.5419510000000 1.0
C      1  0.5262680000000  0.5680920000000  0.5295570000000 1.0
C      1  0.5001130000000  0.5231610000000  0.4787930000000 1.0
C      1  0.5029790000000  0.4833750000000  0.4767400000000 1.0
C      1  0.4977070000000  0.5224560000000  0.5290850000000 1.0
C      1  0.5001450000000  0.4827780000000  0.5287610000000 1.0
C      1  0.4164220000000  0.4979290000000  0.5293230000000 1.0
C      1  0.5791330000000  0.5066810000000  0.5258340000000 1.0
C      1  0.4229920000000  0.5003400000000  0.4729780000000 1.0
C      1  0.5807960000000  0.5024430000000  0.4718080000000 1.0
C      1  0.4254150000000  0.5384670000000  0.4613340000000 1.0
C      1  0.5768030000000  0.4569540000000  0.4653830000000 1.0
C      1  0.4210380000000  0.5351930000000  0.5430550000000 1.0
C      1  0.5757880000000  0.4614000000000  0.5388270000000 1.0
C      1  0.5002310000000  0.5522230000000  0.5222560000000 1.0
C      1  0.4975220000000  0.4547490000000  0.5176480000000 1.0
C      1  0.4978580000000  0.5518670000000  0.4922160000000 1.0
C      1  0.4977930000000  0.4544930000000  0.4898070000000 1.0
C      1  0.4154810000000  0.4742910000000  0.4870590000000 1.0
C      1  0.5919210000000  0.5287220000000  0.4827970000000 1.0
C      1  0.4091970000000  0.4723850000000  0.5140830000000 1.0
C      1  0.5842810000000  0.5313620000000  0.5095650000000 1.0
C      1  0.4610990000000  0.5254290000000  0.5944360000000 1.0
C      1  0.5457920000000  0.4621860000000  0.6007090000000 1.0
C      1  0.4596170000000  0.5284350000000  0.4007810000000 1.0
C      1  0.5418860000000  0.4754560000000  0.4037030000000 1.0
C      1  0.4772070000000  0.5020820000000  0.4855610000000 1.0
C      1  0.5252250000000  0.5053900000000  0.4881820000000 1.0
C      1  0.4749040000000  0.5002490000000  0.5161920000000 1.0
C      1  0.5239310000000  0.5053950000000  0.5191410000000 1.0
C      1  0.4638090000000  0.4609030000000  0.5654680000000 1.0
C      1  0.5362470000000  0.5342870000000  0.5682110000000 1.0
C      1  0.4622300000000  0.4663060000000  0.4347240000000 1.0
C      1  0.5448080000000  0.5345340000000  0.4276060000000 1.0
C      1  0.5609400000000  0.5493960000000  0.5118860000000 1.0
C      1  0.4235420000000  0.4496850000000  0.5282200000000 1.0
C      1  0.5835700000000  0.5520650000000  0.4641950000000 1.0
C      1  0.4353740000000  0.4538500000000  0.4793320000000 1.0
C      1  0.5148670000000  0.4407940000000  0.4221350000000 1.0
C      1  0.4904050000000  0.5597570000000  0.4204270000000 1.0
C      1  0.5129360000000  0.4403270000000  0.5734430000000 1.0
C      1  0.4903330000000  0.5591780000000  0.5722580000000 1.0
C      1  0.4619910000000  0.4896480000000  0.5555860000000 1.0
C      1  0.5391590000000  0.5015220000000  0.5689900000000 1.0
C      1  0.4602060000000  0.4945220000000  0.4393170000000 1.0
C      1  0.5466250000000  0.5092160000000  0.4413080000000 1.0
C      1  0.5885580000000  0.5003270000000  0.4417250000000 1.0
C      1  0.4091810000000  0.4937320000000  0.4445020000000 1.0
C      1  0.5900730000000  0.5039280000000  0.5565820000000 1.0
C      1  0.4066380000000  0.4897310000000  0.5587030000000 1.0
C      1  0.5523670000000  0.4447350000000  0.5383130000000 1.0
C      1  0.4434540000000  0.5529320000000  0.5435020000000 1.0
C      1  0.5544340000000  0.4392320000000  0.4668710000000 1.0
C      1  0.4471380000000  0.5571410000000  0.4632750000000 1.0
C      1  0.4674240000000  0.4249800000000  0.5140030000000 1.0
C      1  0.5352850000000  0.5831440000000  0.5043420000000 1.0
C      1  0.4675130000000  0.4285490000000  0.4866600000000 1.0
C      1  0.5408320000000  0.5818390000000  0.4804170000000 1.0
C      1  0.5553250000000  0.5446230000000  0.4808040000000 1.0
C      1  0.4456560000000  0.4577480000000  0.5072980000000 1.0
END
