TITL C-2782235-7892-1022 -0.000560160628757697 125000 -69.9484217572557 0 0 14 (D2d) n - 1
REM
REM in /home/nfs/bkarasulu/CARBON/AIRSS/Generating-Clusters/REBO/Higher-Symm/SD-CG/HFTN-CG
REM
REM
REM
REM
REM
REM ./C.cell (12c818d87b63d06a65506943cc24bca4)
REM
REM compiler GCC version 9.2.1 20190827 (Red Hat 9.2.1-1)
REM options -cpp -mtune=generic -march=x86-64 -g -O0 -fpre-include=/usr/include/finclude/math-vector-fortran.h
REM seed 2018868764 -1944467678 -1266363624 -538669375 -731310367 2136034515 -423807363 2016824213 840285166 2099189314 -411689186 834003716 -1783968785 -1464803220 -467763366 421437949 -1223874012 -786164045 -1248989800 602032307 652289980 -1930092591 931575725 -886112263 -1809152128 -252735082 1122752276 1919368478 -1876085569 -669578176 1263977869 -2049000957 -1297683684
REM
CELL 1.54180   50.00000   50.00000   50.00000   90.00000   90.00000   90.00000
LATT -1
SFAC C  
C      1  0.4820990000000  0.4804630000000  0.5195970000000 1.0
C      1  0.4794440000000  0.5202760000000  0.4822880000000 1.0
C      1  0.5168100000000  0.4805160000000  0.4796490000000 1.0
C      1  0.5168170000000  0.4804950000000  0.5195900000000 1.0
C      1  0.5193860000000  0.5203120000000  0.4822810000000 1.0
C      1  0.4794510000000  0.5202580000000  0.5170060000000 1.0
C      1  0.5193920000000  0.5202940000000  0.5169990000000 1.0
C      1  0.4820910000000  0.4804840000000  0.4796550000000 1.0
C      1  0.4994740000000  0.4590240000000  0.4996110000000 1.0
C      1  0.4615000000000  0.4971180000000  0.4996380000000 1.0
C      1  0.4993990000000  0.5417500000000  0.4996550000000 1.0
C      1  0.5373780000000  0.4971870000000  0.4996240000000 1.0
C      1  0.4994260000000  0.5036420000000  0.4616960000000 1.0
C      1  0.4994400000000  0.5036020000000  0.5375740000000 1.0
END
