TITL C-2782238-9940-1374 -0.000472006965099679 125000 -629.22663062103 0 0 106 (C1) n - 1
REM
REM in /home/nfs/bkarasulu/CARBON/AIRSS/Generating-Clusters/REBO/Higher-Symm/SD-CG/HFTN-CG
REM
REM
REM
REM
REM
REM ./C.cell (12c818d87b63d06a65506943cc24bca4)
REM
REM compiler GCC version 9.2.1 20190827 (Red Hat 9.2.1-1)
REM options -cpp -mtune=generic -march=x86-64 -g -O0 -fpre-include=/usr/include/finclude/math-vector-fortran.h
REM seed 1669503145 -464414809 2060121916 -235874081 910573774 2832848 1862447971 -846287411 1553532616 -290317595 1185659897 -762009924 134725939 468301370 -1606061496 419602279 70385242 -1332229586 1640645528 -2006182815 1479625738 -1166455206 1920277708 36702773 431973344 -1487862024 -441514177 -346671789 -1125473068 1022607940 -1716371761 541475839 -656684774
REM
CELL 1.54180   50.00000   50.00000   50.00000   90.00000   90.00000   90.00000
LATT -1
SFAC C  
C      1  0.4760390000000  0.4129940000000  0.4808400000000 1.0
C      1  0.4706160000000  0.4407220000000  0.5578790000000 1.0
C      1  0.4674970000000  0.5590080000000  0.5730130000000 1.0
C      1  0.4712800000000  0.5881960000000  0.4741230000000 1.0
C      1  0.4683160000000  0.4972680000000  0.4078480000000 1.0
C      1  0.5010880000000  0.5588570000000  0.5785550000000 1.0
C      1  0.5047620000000  0.5903520000000  0.4817140000000 1.0
C      1  0.5004100000000  0.5072800000000  0.4036880000000 1.0
C      1  0.5036040000000  0.4146370000000  0.4610590000000 1.0
C      1  0.4960220000000  0.4443300000000  0.5776640000000 1.0
C      1  0.5317740000000  0.5740040000000  0.4687650000000 1.0
C      1  0.5316740000000  0.5149300000000  0.4147700000000 1.0
C      1  0.5278320000000  0.4158250000000  0.4833650000000 1.0
C      1  0.5247790000000  0.4540990000000  0.5629360000000 1.0
C      1  0.5225460000000  0.5376240000000  0.5651310000000 1.0
C      1  0.5176120000000  0.4726170000000  0.4393910000000 1.0
C      1  0.5146170000000  0.4020560000000  0.5086530000000 1.0
C      1  0.5064770000000  0.4881880000000  0.5962640000000 1.0
C      1  0.5088130000000  0.5863480000000  0.5600990000000 1.0
C      1  0.5056860000000  0.5682110000000  0.4235060000000 1.0
C      1  0.4937730000000  0.5788680000000  0.4513850000000 1.0
C      1  0.4940000000000  0.4784070000000  0.4191070000000 1.0
C      1  0.4862870000000  0.4044690000000  0.5087670000000 1.0
C      1  0.4845710000000  0.4675720000000  0.5946560000000 1.0
C      1  0.4797870000000  0.5820540000000  0.5540710000000 1.0
C      1  0.5866450000000  0.4894690000000  0.4715190000000 1.0
C      1  0.5869420000000  0.4680410000000  0.4914970000000 1.0
C      1  0.5894630000000  0.4808300000000  0.5180040000000 1.0
C      1  0.5846670000000  0.5109270000000  0.5141370000000 1.0
C      1  0.5834630000000  0.5163870000000  0.4859060000000 1.0
C      1  0.4797700000000  0.5506170000000  0.4382300000000 1.0
C      1  0.4824360000000  0.4541480000000  0.4366770000000 1.0
C      1  0.4776790000000  0.4228020000000  0.5324000000000 1.0
C      1  0.4777810000000  0.4992410000000  0.5822310000000 1.0
C      1  0.4768430000000  0.5762790000000  0.5257330000000 1.0
C      1  0.4584000000000  0.4963180000000  0.5274180000000 1.0
C      1  0.4644680000000  0.5234710000000  0.5098530000000 1.0
C      1  0.4646630000000  0.5136860000000  0.4777280000000 1.0
C      1  0.4657810000000  0.4832200000000  0.4772310000000 1.0
C      1  0.4601800000000  0.4712910000000  0.5074760000000 1.0
C      1  0.5226720000000  0.5853280000000  0.5341140000000 1.0
C      1  0.5314450000000  0.5485890000000  0.4148800000000 1.0
C      1  0.5321750000000  0.4462410000000  0.4315900000000 1.0
C      1  0.5274490000000  0.4110440000000  0.5325600000000 1.0
C      1  0.5273800000000  0.5078540000000  0.5964830000000 1.0
C      1  0.4354920000000  0.5500890000000  0.5001480000000 1.0
C      1  0.4345170000000  0.5154160000000  0.4519780000000 1.0
C      1  0.4350680000000  0.4582160000000  0.4727650000000 1.0
C      1  0.4307150000000  0.4601240000000  0.5318880000000 1.0
C      1  0.4329860000000  0.5171050000000  0.5498360000000 1.0
C      1  0.4502070000000  0.4941280000000  0.4355990000000 1.0
C      1  0.4530640000000  0.4372790000000  0.4866940000000 1.0
C      1  0.4498850000000  0.4656230000000  0.5550760000000 1.0
C      1  0.4481960000000  0.5431120000000  0.5516020000000 1.0
C      1  0.4497780000000  0.5619100000000  0.4764070000000 1.0
C      1  0.4217170000000  0.5254520000000  0.5000710000000 1.0
C      1  0.4220000000000  0.5074160000000  0.4764900000000 1.0
C      1  0.4218170000000  0.4794960000000  0.4865610000000 1.0
C      1  0.4199890000000  0.4807560000000  0.5161160000000 1.0
C      1  0.4206200000000  0.5091010000000  0.5248910000000 1.0
C      1  0.4829910000000  0.4452550000000  0.4755600000000 1.0
C      1  0.4837270000000  0.4710520000000  0.5506010000000 1.0
C      1  0.4820450000000  0.5375350000000  0.5506470000000 1.0
C      1  0.4824580000000  0.5574430000000  0.4831480000000 1.0
C      1  0.4793330000000  0.5107570000000  0.4373120000000 1.0
C      1  0.4575920000000  0.5390630000000  0.4556340000000 1.0
C      1  0.4567790000000  0.4673370000000  0.4502800000000 1.0
C      1  0.4527360000000  0.4401750000000  0.5182070000000 1.0
C      1  0.4552010000000  0.4966500000000  0.5618090000000 1.0
C      1  0.4567580000000  0.5529630000000  0.5229300000000 1.0
C      1  0.5518960000000  0.4673010000000  0.4196700000000 1.0
C      1  0.5546110000000  0.4171790000000  0.5250150000000 1.0
C      1  0.5502430000000  0.4961930000000  0.5845510000000 1.0
C      1  0.5460720000000  0.5690090000000  0.5346890000000 1.0
C      1  0.5559150000000  0.5599070000000  0.4294900000000 1.0
C      1  0.5158390000000  0.4722720000000  0.5382300000000 1.0
C      1  0.5117460000000  0.5269870000000  0.5370900000000 1.0
C      1  0.5149830000000  0.5519130000000  0.4831100000000 1.0
C      1  0.5122210000000  0.5121700000000  0.4415390000000 1.0
C      1  0.5161750000000  0.4473150000000  0.4802250000000 1.0
C      1  0.4943540000000  0.5300040000000  0.4982150000000 1.0
C      1  0.4933770000000  0.5238890000000  0.4646690000000 1.0
C      1  0.4951010000000  0.4724520000000  0.4883580000000 1.0
C      1  0.4910810000000  0.4752760000000  0.5188700000000 1.0
C      1  0.4862730000000  0.5072980000000  0.5391680000000 1.0
C      1  0.5631830000000  0.4864190000000  0.5371750000000 1.0
C      1  0.5616680000000  0.5199930000000  0.5337430000000 1.0
C      1  0.5601730000000  0.5331890000000  0.4709230000000 1.0
C      1  0.5632800000000  0.5038120000000  0.4539470000000 1.0
C      1  0.5649000000000  0.4498940000000  0.4894550000000 1.0
C      1  0.5381960000000  0.4790930000000  0.5209810000000 1.0
C      1  0.5334160000000  0.5202070000000  0.5191690000000 1.0
C      1  0.5349000000000  0.5292290000000  0.4879910000000 1.0
C      1  0.5325280000000  0.4926820000000  0.4562850000000 1.0
C      1  0.5389360000000  0.4656530000000  0.4904190000000 1.0
C      1  0.5020160000000  0.5846300000000  0.5126760000000 1.0
C      1  0.4988510000000  0.5371990000000  0.4133520000000 1.0
C      1  0.5039340000000  0.4351050000000  0.4411420000000 1.0
C      1  0.5072610000000  0.4277220000000  0.5495520000000 1.0
C      1  0.4994290000000  0.5256040000000  0.5862200000000 1.0
C      1  0.5546030000000  0.4948720000000  0.4232820000000 1.0
C      1  0.5568180000000  0.4233600000000  0.4964190000000 1.0
C      1  0.5500790000000  0.4768320000000  0.5646000000000 1.0
C      1  0.5476620000000  0.5446610000000  0.5473820000000 1.0
C      1  0.5546870000000  0.5603910000000  0.4569420000000 1.0
C      1  0.5309890000000  0.4974470000000  0.4941610000000 1.0
END
