TITL C-2782235-7892-374 0.00018242321311585 125000 -551.870737165201 0 0 96 (C1) n - 1
REM
REM in /home/nfs/bkarasulu/CARBON/AIRSS/Generating-Clusters/REBO/Higher-Symm/SD-CG/HFTN-CG
REM
REM
REM
REM
REM
REM ./C.cell (12c818d87b63d06a65506943cc24bca4)
REM
REM compiler GCC version 9.2.1 20190827 (Red Hat 9.2.1-1)
REM options -cpp -mtune=generic -march=x86-64 -g -O0 -fpre-include=/usr/include/finclude/math-vector-fortran.h
REM seed 342214900 2020721977 738753661 -1058725186 990686540 -592878724 -617046278 1961782860 1807451567 -540302340 353087647 415442991 -1448356527 -1501072790 -654765928 1769417460 -2136681921 -161984122 -208941885 -1135306670 1081381513 352054953 849653355 -2036897010 -356571141 828311388 -546289480 1258229478 1795333399 1662631390 -1580875489 345862528 1998224171
REM
CELL 1.54180   50.00000   50.00000   50.00000   90.00000   90.00000   90.00000
LATT -1
SFAC C  
C      1  0.4794990000000  0.4616590000000  0.4183870000000 1.0
C      1  0.5269090000000  0.4576090000000  0.5425230000000 1.0
C      1  0.4887200000000  0.4215790000000  0.5412740000000 1.0
C      1  0.5038930000000  0.4963440000000  0.5028620000000 1.0
C      1  0.4541870000000  0.5661460000000  0.5398800000000 1.0
C      1  0.4160990000000  0.4476780000000  0.4588460000000 1.0
C      1  0.5868590000000  0.4702860000000  0.5290230000000 1.0
C      1  0.5189780000000  0.4327450000000  0.4191860000000 1.0
C      1  0.4766950000000  0.4276240000000  0.5105250000000 1.0
C      1  0.5455000000000  0.5680540000000  0.4898080000000 1.0
C      1  0.4551350000000  0.4915770000000  0.5774120000000 1.0
C      1  0.5638410000000  0.4689130000000  0.4572880000000 1.0
C      1  0.4428250000000  0.4917990000000  0.4288560000000 1.0
C      1  0.4534020000000  0.4915380000000  0.4761510000000 1.0
C      1  0.5053270000000  0.5170620000000  0.5248090000000 1.0
C      1  0.5245070000000  0.4520860000000  0.4912520000000 1.0
C      1  0.5195530000000  0.5437040000000  0.5293550000000 1.0
C      1  0.5654600000000  0.4644500000000  0.4090170000000 1.0
C      1  0.5451720000000  0.5877650000000  0.5175950000000 1.0
C      1  0.5659540000000  0.4808930000000  0.5534900000000 1.0
C      1  0.5625790000000  0.5430780000000  0.5019650000000 1.0
C      1  0.4626710000000  0.5536060000000  0.4610130000000 1.0
C      1  0.5064510000000  0.5749410000000  0.4539310000000 1.0
C      1  0.4383120000000  0.4615180000000  0.4683480000000 1.0
C      1  0.5178620000000  0.4271250000000  0.5426110000000 1.0
C      1  0.4610720000000  0.5829410000000  0.5137980000000 1.0
C      1  0.5612940000000  0.4523420000000  0.4346270000000 1.0
C      1  0.4639670000000  0.5327120000000  0.4424000000000 1.0
C      1  0.4893630000000  0.3959460000000  0.5106880000000 1.0
C      1  0.4394360000000  0.5827280000000  0.4952800000000 1.0
C      1  0.5498080000000  0.4992300000000  0.4790290000000 1.0
C      1  0.5156280000000  0.4698510000000  0.5149290000000 1.0
C      1  0.4671400000000  0.4911870000000  0.5516980000000 1.0
C      1  0.4871360000000  0.5755290000000  0.4998550000000 1.0
C      1  0.5124890000000  0.5212780000000  0.5725600000000 1.0
C      1  0.5259010000000  0.5143540000000  0.4267140000000 1.0
C      1  0.4184210000000  0.5305260000000  0.5229350000000 1.0
C      1  0.5865320000000  0.5045000000000  0.5290960000000 1.0
C      1  0.5590220000000  0.4815530000000  0.5131800000000 1.0
C      1  0.4456000000000  0.5364810000000  0.5515180000000 1.0
C      1  0.5241800000000  0.5536020000000  0.4592600000000 1.0
C      1  0.4382450000000  0.5536500000000  0.4800120000000 1.0
C      1  0.5579970000000  0.5163940000000  0.4329240000000 1.0
C      1  0.5348680000000  0.4104920000000  0.5265450000000 1.0
C      1  0.5045620000000  0.5993550000000  0.5691880000000 1.0
C      1  0.4428790000000  0.5473910000000  0.5133120000000 1.0
C      1  0.4975250000000  0.5727940000000  0.5667810000000 1.0
C      1  0.5416870000000  0.5283240000000  0.5588600000000 1.0
C      1  0.4592930000000  0.4668370000000  0.4453610000000 1.0
C      1  0.5717890000000  0.5141990000000  0.5581910000000 1.0
C      1  0.4138090000000  0.5121850000000  0.5015920000000 1.0
C      1  0.4824050000000  0.5723590000000  0.4684560000000 1.0
C      1  0.4693030000000  0.4896700000000  0.4144050000000 1.0
C      1  0.4704890000000  0.5292720000000  0.5095530000000 1.0
C      1  0.5602130000000  0.4512650000000  0.5391840000000 1.0
C      1  0.5421930000000  0.4312020000000  0.4338010000000 1.0
C      1  0.5496670000000  0.5561720000000  0.5270500000000 1.0
C      1  0.4202530000000  0.4850080000000  0.5067830000000 1.0
C      1  0.5506560000000  0.4658320000000  0.4866770000000 1.0
C      1  0.4708110000000  0.5632470000000  0.5670860000000 1.0
C      1  0.5037160000000  0.4263510000000  0.4897550000000 1.0
C      1  0.5611540000000  0.4218730000000  0.5283180000000 1.0
C      1  0.5188280000000  0.4002990000000  0.5047340000000 1.0
C      1  0.4378810000000  0.4637980000000  0.4998680000000 1.0
C      1  0.5178450000000  0.4727760000000  0.5687720000000 1.0
C      1  0.5667720000000  0.5139100000000  0.5030640000000 1.0
C      1  0.5177090000000  0.4760510000000  0.3958020000000 1.0
C      1  0.5072520000000  0.4993610000000  0.4499220000000 1.0
C      1  0.5666510000000  0.4984200000000  0.4518200000000 1.0
C      1  0.4587720000000  0.4529500000000  0.5144630000000 1.0
C      1  0.5393060000000  0.5415860000000  0.4391530000000 1.0
C      1  0.5173070000000  0.5519400000000  0.5609110000000 1.0
C      1  0.5200000000000  0.5071810000000  0.4769490000000 1.0
C      1  0.4391360000000  0.5179410000000  0.4389710000000 1.0
C      1  0.4703440000000  0.4433890000000  0.5578510000000 1.0
C      1  0.4650790000000  0.5428560000000  0.5858440000000 1.0
C      1  0.5079320000000  0.4926450000000  0.5845480000000 1.0
C      1  0.4707400000000  0.5204200000000  0.6001530000000 1.0
C      1  0.4861420000000  0.5143190000000  0.4276820000000 1.0
C      1  0.5457470000000  0.4729910000000  0.3918460000000 1.0
C      1  0.4910000000000  0.4719360000000  0.4552700000000 1.0
C      1  0.4815150000000  0.4913340000000  0.4794650000000 1.0
C      1  0.4719370000000  0.4142210000000  0.5699430000000 1.0
C      1  0.5137640000000  0.5366970000000  0.4800210000000 1.0
C      1  0.5471870000000  0.5035600000000  0.5363170000000 1.0
C      1  0.5170970000000  0.5702600000000  0.5089340000000 1.0
C      1  0.5037960000000  0.4538180000000  0.4079070000000 1.0
C      1  0.4857860000000  0.4972860000000  0.6024040000000 1.0
C      1  0.4911690000000  0.5429740000000  0.4958120000000 1.0
C      1  0.4592980000000  0.5171700000000  0.5350740000000 1.0
C      1  0.5079570000000  0.5013440000000  0.4045690000000 1.0
C      1  0.5051840000000  0.4480630000000  0.4648420000000 1.0
C      1  0.4949350000000  0.5076270000000  0.5499310000000 1.0
C      1  0.4640710000000  0.4639480000000  0.5401910000000 1.0
C      1  0.4157370000000  0.5314730000000  0.5530120000000 1.0
C      1  0.4192310000000  0.5270480000000  0.4771530000000 1.0
END
