TITL C-2782234-8014-768 -0.000260768491153902 125000 -521.344835936551 0 0 88 (C1) n - 1
REM
REM in /home/nfs/bkarasulu/CARBON/AIRSS/Generating-Clusters/REBO/Higher-Symm/SD-CG/HFTN-CG
REM
REM
REM
REM
REM
REM ./C.cell (12c818d87b63d06a65506943cc24bca4)
REM
REM compiler GCC version 9.2.1 20190827 (Red Hat 9.2.1-1)
REM options -cpp -mtune=generic -march=x86-64 -g -O0 -fpre-include=/usr/include/finclude/math-vector-fortran.h
REM seed -198763266 -987780205 791132135 -2028815663 1042230934 -1320359531 823031231 1958458405 966589647 349293478 -1030401694 -13765447 -560622394 -565570699 -1299744992 -1388772765 -1340441954 -1843101306 -1233679822 -1070866850 -1778944891 768358494 -1193073418 1331715664 1278892911 -1234513049 488677487 93670073 131644071 1834492172 1964834704 -2115094774 1452310298
REM
CELL 1.54180   50.00000   50.00000   50.00000   90.00000   90.00000   90.00000
LATT -1
SFAC C  
C      1  0.5167720000000  0.4966100000000  0.4504330000000 1.0
C      1  0.5598140000000  0.5011530000000  0.4980120000000 1.0
C      1  0.5233020000000  0.4969850000000  0.5511910000000 1.0
C      1  0.4449920000000  0.5045570000000  0.5314110000000 1.0
C      1  0.4488340000000  0.5108450000000  0.4611260000000 1.0
C      1  0.4772660000000  0.4672410000000  0.4651990000000 1.0
C      1  0.5389360000000  0.4442310000000  0.4679730000000 1.0
C      1  0.5530330000000  0.4456120000000  0.5130930000000 1.0
C      1  0.4866540000000  0.4522730000000  0.5456490000000 1.0
C      1  0.4571140000000  0.4522780000000  0.5047420000000 1.0
C      1  0.4539580000000  0.5656110000000  0.5309130000000 1.0
C      1  0.4565920000000  0.5688060000000  0.4679040000000 1.0
C      1  0.5148840000000  0.5598480000000  0.4520660000000 1.0
C      1  0.5508480000000  0.5610560000000  0.5024740000000 1.0
C      1  0.5131580000000  0.5607900000000  0.5515350000000 1.0
C      1  0.5003180000000  0.5334080000000  0.4789590000000 1.0
C      1  0.5199540000000  0.5322610000000  0.4988120000000 1.0
C      1  0.5065280000000  0.5332120000000  0.5233460000000 1.0
C      1  0.4793340000000  0.5361990000000  0.5184630000000 1.0
C      1  0.4752310000000  0.5374520000000  0.4908580000000 1.0
C      1  0.4621550000000  0.4819040000000  0.4127910000000 1.0
C      1  0.5690340000000  0.4849200000000  0.4399050000000 1.0
C      1  0.5820670000000  0.4877630000000  0.5460880000000 1.0
C      1  0.4751520000000  0.4881790000000  0.5837520000000 1.0
C      1  0.4012340000000  0.4815100000000  0.5050360000000 1.0
C      1  0.4279750000000  0.4935910000000  0.4512560000000 1.0
C      1  0.5218730000000  0.4874850000000  0.4229430000000 1.0
C      1  0.5896860000000  0.4974450000000  0.4982980000000 1.0
C      1  0.5245890000000  0.4869770000000  0.5824010000000 1.0
C      1  0.4225690000000  0.4946890000000  0.5490360000000 1.0
C      1  0.5457490000000  0.4779230000000  0.5092430000000 1.0
C      1  0.5032140000000  0.4797910000000  0.5339170000000 1.0
C      1  0.4533250000000  0.4850970000000  0.5129340000000 1.0
C      1  0.4736990000000  0.4983360000000  0.4611140000000 1.0
C      1  0.5255800000000  0.4767960000000  0.4739250000000 1.0
C      1  0.4355690000000  0.4840250000000  0.4243320000000 1.0
C      1  0.5503860000000  0.4858730000000  0.4184740000000 1.0
C      1  0.5986060000000  0.4957070000000  0.5256550000000 1.0
C      1  0.5007640000000  0.4873570000000  0.5953930000000 1.0
C      1  0.3996170000000  0.4880170000000  0.5328650000000 1.0
C      1  0.5597200000000  0.4658540000000  0.5372400000000 1.0
C      1  0.4743960000000  0.4812060000000  0.5519220000000 1.0
C      1  0.4297220000000  0.4679940000000  0.4973000000000 1.0
C      1  0.4838320000000  0.4791870000000  0.4366050000000 1.0
C      1  0.5570620000000  0.4704990000000  0.4665080000000 1.0
C      1  0.5053050000000  0.4336390000000  0.5618370000000 1.0
C      1  0.4691560000000  0.4364710000000  0.5265220000000 1.0
C      1  0.4708900000000  0.4457100000000  0.4793600000000 1.0
C      1  0.5230900000000  0.4273900000000  0.4485720000000 1.0
C      1  0.5464780000000  0.4287460000000  0.4924960000000 1.0
C      1  0.4549480000000  0.5316820000000  0.5360100000000 1.0
C      1  0.4489840000000  0.5367170000000  0.4743600000000 1.0
C      1  0.5073840000000  0.5244940000000  0.4513480000000 1.0
C      1  0.5501230000000  0.5282320000000  0.4942420000000 1.0
C      1  0.5217120000000  0.5259500000000  0.5481430000000 1.0
C      1  0.4459320000000  0.4890320000000  0.5681090000000 1.0
C      1  0.4125710000000  0.4825840000000  0.4729570000000 1.0
C      1  0.4957270000000  0.4830260000000  0.4067870000000 1.0
C      1  0.5847390000000  0.4879990000000  0.4697880000000 1.0
C      1  0.5522580000000  0.4848350000000  0.5626010000000 1.0
C      1  0.4266740000000  0.5775760000000  0.5234400000000 1.0
C      1  0.4583840000000  0.5747270000000  0.4378480000000 1.0
C      1  0.5415870000000  0.5682240000000  0.4403130000000 1.0
C      1  0.5693290000000  0.5691860000000  0.5255040000000 1.0
C      1  0.4966580000000  0.5677340000000  0.5759830000000 1.0
C      1  0.4788780000000  0.4112310000000  0.5196970000000 1.0
C      1  0.4780950000000  0.4208600000000  0.4687680000000 1.0
C      1  0.4992670000000  0.4150630000000  0.4525110000000 1.0
C      1  0.5333900000000  0.4057640000000  0.4992990000000 1.0
C      1  0.5167990000000  0.4137780000000  0.5510290000000 1.0
C      1  0.4266380000000  0.5608010000000  0.4794520000000 1.0
C      1  0.4953880000000  0.5459430000000  0.4296640000000 1.0
C      1  0.5665500000000  0.5502960000000  0.4755210000000 1.0
C      1  0.5427210000000  0.5486600000000  0.5585410000000 1.0
C      1  0.4542810000000  0.5527080000000  0.5615960000000 1.0
C      1  0.4792390000000  0.5769580000000  0.4862580000000 1.0
C      1  0.5066390000000  0.5728690000000  0.4781390000000 1.0
C      1  0.5227840000000  0.5720440000000  0.5020750000000 1.0
C      1  0.5052730000000  0.5731130000000  0.5250360000000 1.0
C      1  0.4781120000000  0.5760060000000  0.5152820000000 1.0
C      1  0.5655520000000  0.5602790000000  0.5509320000000 1.0
C      1  0.4706800000000  0.5614930000000  0.5807320000000 1.0
C      1  0.4141040000000  0.5723980000000  0.4999080000000 1.0
C      1  0.4740970000000  0.5598810000000  0.4212030000000 1.0
C      1  0.5654690000000  0.5610450000000  0.4511860000000 1.0
C      1  0.5104080000000  0.4393520000000  0.5061310000000 1.0
C      1  0.5149100000000  0.4686040000000  0.5052890000000 1.0
C      1  0.5104660000000  0.4086820000000  0.5209440000000 1.0
END
