TITL C-2782240-8521-525 -0.00352206195311899 125000 -853.34012312002 0 0 146 (C1) n - 1
REM
REM in /home/nfs/bkarasulu/CARBON/AIRSS/Generating-Clusters/REBO/Higher-Symm/SD-CG/HFTN-CG
REM
REM
REM
REM
REM
REM ./C.cell (12c818d87b63d06a65506943cc24bca4)
REM
REM compiler GCC version 9.2.1 20190827 (Red Hat 9.2.1-1)
REM options -cpp -mtune=generic -march=x86-64 -g -O0 -fpre-include=/usr/include/finclude/math-vector-fortran.h
REM seed -1423129729 -2021328382 2066082944 61856125 125310099 864879827 154295881 903624328 -1420919057 974179101 1369189880 547347949 -2060100069 379305444 1355838493 -1853528943 2021737814 -1697827694 -707368727 -2108999680 843585894 -612114462 -53073688 1252609377 1979729135 -1651356993 85846873 -1288626831 1210842784 1194700731 -568508897 1745858350 -1559044891
REM
CELL 1.54180   50.00000   50.00000   50.00000   90.00000   90.00000   90.00000
LATT -1
SFAC C  
C      1  0.5359420000000  0.4797340000000  0.4106680000000 1.0
C      1  0.4580760000000  0.5169780000000  0.5919020000000 1.0
C      1  0.5571090000000  0.4983520000000  0.4078920000000 1.0
C      1  0.4363670000000  0.4992400000000  0.5905010000000 1.0
C      1  0.5732270000000  0.5417200000000  0.5336950000000 1.0
C      1  0.4203850000000  0.4682100000000  0.4647510000000 1.0
C      1  0.4393540000000  0.4793710000000  0.5724840000000 1.0
C      1  0.5541830000000  0.5199400000000  0.4239970000000 1.0
C      1  0.4729220000000  0.5197820000000  0.4665420000000 1.0
C      1  0.5285470000000  0.4801870000000  0.5360780000000 1.0
C      1  0.5273460000000  0.5810300000000  0.5459610000000 1.0
C      1  0.4802610000000  0.4166140000000  0.4542310000000 1.0
C      1  0.5130580000000  0.5661680000000  0.5736780000000 1.0
C      1  0.4825120000000  0.4383370000000  0.4280170000000 1.0
C      1  0.4021260000000  0.4604280000000  0.4899500000000 1.0
C      1  0.5972060000000  0.5384350000000  0.5097000000000 1.0
C      1  0.4854410000000  0.5583410000000  0.4139510000000 1.0
C      1  0.5116140000000  0.4442240000000  0.5850180000000 1.0
C      1  0.4862880000000  0.4693190000000  0.4149260000000 1.0
C      1  0.5085110000000  0.5372660000000  0.5915810000000 1.0
C      1  0.5115080000000  0.4697570000000  0.5980810000000 1.0
C      1  0.4809770000000  0.5293720000000  0.4050070000000 1.0
C      1  0.4217160000000  0.4399910000000  0.5358730000000 1.0
C      1  0.5793850000000  0.5553920000000  0.4586100000000 1.0
C      1  0.5254870000000  0.4470430000000  0.4721120000000 1.0
C      1  0.4841650000000  0.5507660000000  0.5240730000000 1.0
C      1  0.4695780000000  0.4803090000000  0.4859490000000 1.0
C      1  0.5315110000000  0.5163480000000  0.5069590000000 1.0
C      1  0.4045880000000  0.5240560000000  0.4382950000000 1.0
C      1  0.6098020000000  0.5188010000000  0.5974870000000 1.0
C      1  0.5769610000000  0.4629180000000  0.5414170000000 1.0
C      1  0.4182460000000  0.5379490000000  0.4587330000000 1.0
C      1  0.5956700000000  0.5261710000000  0.4563410000000 1.0
C      1  0.4072390000000  0.4690210000000  0.5429230000000 1.0
C      1  0.4429030000000  0.5551770000000  0.5138520000000 1.0
C      1  0.5618490000000  0.4464560000000  0.4887570000000 1.0
C      1  0.4886330000000  0.5971510000000  0.5145640000000 1.0
C      1  0.5170300000000  0.4002760000000  0.4859020000000 1.0
C      1  0.5609440000000  0.4282920000000  0.4643010000000 1.0
C      1  0.4439330000000  0.5637620000000  0.5449170000000 1.0
C      1  0.4408740000000  0.4550610000000  0.4963640000000 1.0
C      1  0.5603720000000  0.5413740000000  0.4959170000000 1.0
C      1  0.5521510000000  0.4852360000000  0.4638340000000 1.0
C      1  0.4517460000000  0.5083550000000  0.5393990000000 1.0
C      1  0.5081960000000  0.4329780000000  0.4469180000000 1.0
C      1  0.4916660000000  0.5639780000000  0.5513170000000 1.0
C      1  0.5510950000000  0.5689860000000  0.4496690000000 1.0
C      1  0.4488940000000  0.4263630000000  0.5459270000000 1.0
C      1  0.4925720000000  0.4255640000000  0.5705310000000 1.0
C      1  0.5059810000000  0.5753520000000  0.4273340000000 1.0
C      1  0.4599120000000  0.4720040000000  0.5179210000000 1.0
C      1  0.5426820000000  0.5226610000000  0.4752650000000 1.0
C      1  0.4390070000000  0.5215200000000  0.4716050000000 1.0
C      1  0.5614030000000  0.4845630000000  0.5408580000000 1.0
C      1  0.4475600000000  0.5762220000000  0.4801980000000 1.0
C      1  0.5519560000000  0.4229400000000  0.5195540000000 1.0
C      1  0.5627700000000  0.5266660000000  0.4515270000000 1.0
C      1  0.4412750000000  0.4674080000000  0.5419600000000 1.0
C      1  0.6077480000000  0.5163290000000  0.4858380000000 1.0
C      1  0.3950520000000  0.4824040000000  0.5151090000000 1.0
C      1  0.5079280000000  0.4135420000000  0.5489180000000 1.0
C      1  0.4940460000000  0.5888500000000  0.4500650000000 1.0
C      1  0.5048460000000  0.5167580000000  0.4428420000000 1.0
C      1  0.4928480000000  0.4773970000000  0.5536300000000 1.0
C      1  0.5483330000000  0.4387390000000  0.5689320000000 1.0
C      1  0.4494510000000  0.5700720000000  0.4367990000000 1.0
C      1  0.5451140000000  0.4646510000000  0.5773360000000 1.0
C      1  0.4442360000000  0.5443330000000  0.4290760000000 1.0
C      1  0.4974330000000  0.4739870000000  0.4990050000000 1.0
C      1  0.5008910000000  0.5241060000000  0.4994590000000 1.0
C      1  0.4348190000000  0.5897010000000  0.5321970000000 1.0
C      1  0.5642440000000  0.4021440000000  0.4729040000000 1.0
C      1  0.5888220000000  0.4607490000000  0.4964980000000 1.0
C      1  0.4220750000000  0.5331770000000  0.5062460000000 1.0
C      1  0.4998110000000  0.4915930000000  0.5238370000000 1.0
C      1  0.5016330000000  0.5045420000000  0.4738020000000 1.0
C      1  0.4802930000000  0.5178820000000  0.5240570000000 1.0
C      1  0.5213200000000  0.4788410000000  0.4771240000000 1.0
C      1  0.4552250000000  0.4581480000000  0.4235650000000 1.0
C      1  0.5393510000000  0.5457980000000  0.5798510000000 1.0
C      1  0.5313410000000  0.5531310000000  0.4859460000000 1.0
C      1  0.4699750000000  0.4418710000000  0.5060860000000 1.0
C      1  0.5605820000000  0.5808990000000  0.5009580000000 1.0
C      1  0.4425960000000  0.4155550000000  0.4937910000000 1.0
C      1  0.5075390000000  0.5831290000000  0.4747700000000 1.0
C      1  0.4947260000000  0.4157980000000  0.5234410000000 1.0
C      1  0.4220930000000  0.5643240000000  0.4653340000000 1.0
C      1  0.5754250000000  0.4369920000000  0.5336920000000 1.0
C      1  0.4022350000000  0.5153520000000  0.5203980000000 1.0
C      1  0.6027400000000  0.4828130000000  0.4825570000000 1.0
C      1  0.5846470000000  0.4950240000000  0.4612020000000 1.0
C      1  0.4187590000000  0.5002080000000  0.5419090000000 1.0
C      1  0.4396900000000  0.5079020000000  0.5090040000000 1.0
C      1  0.5646970000000  0.4857980000000  0.4944320000000 1.0
C      1  0.4360830000000  0.5950630000000  0.5052550000000 1.0
C      1  0.5614040000000  0.3975400000000  0.5001730000000 1.0
C      1  0.4287890000000  0.4776610000000  0.4330840000000 1.0
C      1  0.5662320000000  0.5315830000000  0.5654040000000 1.0
C      1  0.4624240000000  0.4127110000000  0.5204930000000 1.0
C      1  0.5398330000000  0.5836510000000  0.4760790000000 1.0
C      1  0.5305290000000  0.5614400000000  0.4307650000000 1.0
C      1  0.4669580000000  0.4371470000000  0.5655780000000 1.0
C      1  0.4654590000000  0.5903790000000  0.4463430000000 1.0
C      1  0.5361090000000  0.4173970000000  0.5558570000000 1.0
C      1  0.5449440000000  0.4641950000000  0.5108310000000 1.0
C      1  0.4582920000000  0.5391920000000  0.4905860000000 1.0
C      1  0.4168400000000  0.4334490000000  0.5045620000000 1.0
C      1  0.5852080000000  0.5633380000000  0.4896910000000 1.0
C      1  0.4875140000000  0.4864680000000  0.5921780000000 1.0
C      1  0.5057400000000  0.5156270000000  0.4029900000000 1.0
C      1  0.4653830000000  0.5527570000000  0.5591790000000 1.0
C      1  0.5403240000000  0.4391090000000  0.4426770000000 1.0
C      1  0.5082580000000  0.5980890000000  0.5295940000000 1.0
C      1  0.4974770000000  0.3960510000000  0.4707850000000 1.0
C      1  0.4441340000000  0.4914960000000  0.4672200000000 1.0
C      1  0.5552370000000  0.5148850000000  0.5309610000000 1.0
C      1  0.5357010000000  0.5486040000000  0.5462610000000 1.0
C      1  0.4494120000000  0.4532450000000  0.4568530000000 1.0
C      1  0.5393270000000  0.5114300000000  0.5600530000000 1.0
C      1  0.4567010000000  0.4958160000000  0.4360130000000 1.0
C      1  0.4076240000000  0.4999030000000  0.4256740000000 1.0
C      1  0.5898030000000  0.5246690000000  0.5827610000000 1.0
C      1  0.4254640000000  0.4836890000000  0.5014560000000 1.0
C      1  0.5772000000000  0.5123290000000  0.4982120000000 1.0
C      1  0.4825780000000  0.5421730000000  0.4428050000000 1.0
C      1  0.5148180000000  0.4541430000000  0.5536550000000 1.0
C      1  0.4699650000000  0.5740890000000  0.5060240000000 1.0
C      1  0.5326770000000  0.4239820000000  0.4919840000000 1.0
C      1  0.5249030000000  0.4418700000000  0.5263820000000 1.0
C      1  0.4752430000000  0.5593550000000  0.4694590000000 1.0
C      1  0.5240860000000  0.4914780000000  0.5768320000000 1.0
C      1  0.4578260000000  0.5208820000000  0.4198140000000 1.0
C      1  0.5098770000000  0.4875730000000  0.4014250000000 1.0
C      1  0.4893500000000  0.5173220000000  0.5971850000000 1.0
C      1  0.4696570000000  0.5223830000000  0.5627570000000 1.0
C      1  0.5349800000000  0.4704820000000  0.4405980000000 1.0
C      1  0.5011050000000  0.4435030000000  0.5060350000000 1.0
C      1  0.5000230000000  0.5538770000000  0.4894210000000 1.0
C      1  0.4681310000000  0.4676700000000  0.5714920000000 1.0
C      1  0.5270920000000  0.5319110000000  0.4225440000000 1.0
C      1  0.4551790000000  0.4254250000000  0.4688840000000 1.0
C      1  0.5545090000000  0.5696540000000  0.5285310000000 1.0
C      1  0.4996180000000  0.5091150000000  0.5595660000000 1.0
C      1  0.5046660000000  0.4827840000000  0.4405930000000 1.0
C      1  0.4765640000000  0.4740140000000  0.4532540000000 1.0
C      1  0.5174780000000  0.5249490000000  0.5368070000000 1.0
END
