TITL C-2782235-7892-489 -0.00210849951929955 125000 -763.093866442318 0 0 138 (C1) n - 1
REM
REM in /home/nfs/bkarasulu/CARBON/AIRSS/Generating-Clusters/REBO/Higher-Symm/SD-CG/HFTN-CG
REM
REM
REM
REM
REM
REM ./C.cell (12c818d87b63d06a65506943cc24bca4)
REM
REM compiler GCC version 9.2.1 20190827 (Red Hat 9.2.1-1)
REM options -cpp -mtune=generic -march=x86-64 -g -O0 -fpre-include=/usr/include/finclude/math-vector-fortran.h
REM seed -624344791 1098943141 -1419639535 -1655016885 -133738938 -2105003669 -1207261699 430235820 437903257 756167628 1930744907 667207349 -528014845 269210455 1214314306 -938297720 1288177693 1833206057 1516658709 1182082724 -31804372 812202913 1678477611 156768786 -42083972 1104701847 700626921 -163879447 -1649806079 1975019333 225805053 357188928 -1147994695
REM
CELL 1.54180   50.00000   50.00000   50.00000   90.00000   90.00000   90.00000
LATT -1
SFAC C  
C      1  0.5471860000000  0.5118200000000  0.5094190000000 1.0
C      1  0.5192580000000  0.5133180000000  0.4583030000000 1.0
C      1  0.4625860000000  0.5168770000000  0.4712050000000 1.0
C      1  0.4565700000000  0.5142360000000  0.5211930000000 1.0
C      1  0.5058320000000  0.5148880000000  0.5432100000000 1.0
C      1  0.5521270000000  0.4802240000000  0.5016660000000 1.0
C      1  0.5230530000000  0.4796710000000  0.4548040000000 1.0
C      1  0.4656860000000  0.4829570000000  0.4691820000000 1.0
C      1  0.4601960000000  0.4805760000000  0.5197440000000 1.0
C      1  0.5123890000000  0.4814710000000  0.5464980000000 1.0
C      1  0.5573280000000  0.5145020000000  0.4462130000000 1.0
C      1  0.4647420000000  0.5160150000000  0.4313500000000 1.0
C      1  0.4137850000000  0.5155220000000  0.5199970000000 1.0
C      1  0.4839890000000  0.5148900000000  0.5763440000000 1.0
C      1  0.5914640000000  0.5115280000000  0.5348050000000 1.0
C      1  0.5581550000000  0.4833900000000  0.4362050000000 1.0
C      1  0.4642150000000  0.4837410000000  0.4292510000000 1.0
C      1  0.4158620000000  0.4821090000000  0.5172730000000 1.0
C      1  0.4836610000000  0.4819770000000  0.5799940000000 1.0
C      1  0.5765940000000  0.4818420000000  0.5348080000000 1.0
C      1  0.4767750000000  0.4108320000000  0.5132800000000 1.0
C      1  0.5075210000000  0.4142540000000  0.5272740000000 1.0
C      1  0.5306160000000  0.4166620000000  0.5024990000000 1.0
C      1  0.5139990000000  0.4162570000000  0.4727360000000 1.0
C      1  0.4807340000000  0.4136070000000  0.4796250000000 1.0
C      1  0.4761850000000  0.5866790000000  0.5152660000000 1.0
C      1  0.5077090000000  0.5875390000000  0.5281540000000 1.0
C      1  0.5287500000000  0.5900480000000  0.5014650000000 1.0
C      1  0.5113200000000  0.5919380000000  0.4721480000000 1.0
C      1  0.4786930000000  0.5893500000000  0.4814040000000 1.0
C      1  0.4333360000000  0.4777480000000  0.4351810000000 1.0
C      1  0.4211540000000  0.4737270000000  0.5480360000000 1.0
C      1  0.5138370000000  0.4770370000000  0.5912050000000 1.0
C      1  0.5950590000000  0.4897560000000  0.5086910000000 1.0
C      1  0.5367490000000  0.4802570000000  0.4136230000000 1.0
C      1  0.4353380000000  0.5083360000000  0.4407160000000 1.0
C      1  0.4213920000000  0.5067370000000  0.5481650000000 1.0
C      1  0.5145360000000  0.5065950000000  0.5819580000000 1.0
C      1  0.5988550000000  0.5232760000000  0.5047960000000 1.0
C      1  0.5352620000000  0.5121500000000  0.4218420000000 1.0
C      1  0.5856040000000  0.4674390000000  0.4426130000000 1.0
C      1  0.4738090000000  0.4685530000000  0.4028500000000 1.0
C      1  0.3979330000000  0.4672500000000  0.4950710000000 1.0
C      1  0.4571070000000  0.4687870000000  0.5906820000000 1.0
C      1  0.5788890000000  0.4671410000000  0.5645690000000 1.0
C      1  0.5851320000000  0.5300270000000  0.4461450000000 1.0
C      1  0.4699140000000  0.5314110000000  0.4041500000000 1.0
C      1  0.4007070000000  0.5331220000000  0.4963010000000 1.0
C      1  0.4661230000000  0.5316220000000  0.5965090000000 1.0
C      1  0.5762760000000  0.5298770000000  0.5549870000000 1.0
C      1  0.5458410000000  0.5173760000000  0.4771550000000 1.0
C      1  0.4893110000000  0.5208140000000  0.4516210000000 1.0
C      1  0.4365750000000  0.5157370000000  0.4931110000000 1.0
C      1  0.4737210000000  0.5209350000000  0.5463610000000 1.0
C      1  0.5369100000000  0.5116670000000  0.5379480000000 1.0
C      1  0.5536850000000  0.4790630000000  0.4695620000000 1.0
C      1  0.4909560000000  0.4801430000000  0.4491850000000 1.0
C      1  0.4398570000000  0.4819820000000  0.4916760000000 1.0
C      1  0.4790100000000  0.4814760000000  0.5467520000000 1.0
C      1  0.5463190000000  0.4828020000000  0.5479930000000 1.0
C      1  0.5226590000000  0.4413220000000  0.4187240000000 1.0
C      1  0.4336090000000  0.4431530000000  0.4639510000000 1.0
C      1  0.4445430000000  0.4414020000000  0.5473740000000 1.0
C      1  0.5234960000000  0.4387560000000  0.5752580000000 1.0
C      1  0.5772470000000  0.4361330000000  0.4976890000000 1.0
C      1  0.5236630000000  0.5598570000000  0.4257900000000 1.0
C      1  0.4311980000000  0.5590860000000  0.4562060000000 1.0
C      1  0.4357950000000  0.5625510000000  0.5447230000000 1.0
C      1  0.5279570000000  0.5589700000000  0.5700850000000 1.0
C      1  0.5702960000000  0.5549630000000  0.4909610000000 1.0
C      1  0.5774510000000  0.5116410000000  0.4806270000000 1.0
C      1  0.5033240000000  0.5185710000000  0.4212180000000 1.0
C      1  0.4166600000000  0.5146830000000  0.4651750000000 1.0
C      1  0.4450590000000  0.5221570000000  0.5644590000000 1.0
C      1  0.5431400000000  0.5148890000000  0.5714220000000 1.0
C      1  0.5859120000000  0.4790570000000  0.4805750000000 1.0
C      1  0.5045750000000  0.4870800000000  0.4197070000000 1.0
C      1  0.4192820000000  0.4804840000000  0.4642190000000 1.0
C      1  0.4499330000000  0.4895760000000  0.5573060000000 1.0
C      1  0.5460200000000  0.4821280000000  0.5813120000000 1.0
C      1  0.5254600000000  0.4528140000000  0.4866010000000 1.0
C      1  0.4947230000000  0.4509540000000  0.4759990000000 1.0
C      1  0.4758570000000  0.4480790000000  0.4990560000000 1.0
C      1  0.4881620000000  0.4492090000000  0.5256350000000 1.0
C      1  0.5198700000000  0.4515360000000  0.5199890000000 1.0
C      1  0.5160160000000  0.5532420000000  0.4790680000000 1.0
C      1  0.4837090000000  0.5499230000000  0.4783470000000 1.0
C      1  0.4714410000000  0.5480990000000  0.5064750000000 1.0
C      1  0.4918130000000  0.5510900000000  0.5273350000000 1.0
C      1  0.5190750000000  0.5528520000000  0.5118640000000 1.0
C      1  0.5026830000000  0.4519450000000  0.5593320000000 1.0
C      1  0.5600810000000  0.4536610000000  0.5150360000000 1.0
C      1  0.5352720000000  0.4514330000000  0.4421260000000 1.0
C      1  0.4581940000000  0.4536940000000  0.4548920000000 1.0
C      1  0.4433950000000  0.4535390000000  0.5217590000000 1.0
C      1  0.5029580000000  0.5451380000000  0.5584720000000 1.0
C      1  0.5583540000000  0.5416460000000  0.5123520000000 1.0
C      1  0.5316630000000  0.5444520000000  0.4515330000000 1.0
C      1  0.4596770000000  0.5471710000000  0.4558130000000 1.0
C      1  0.4418070000000  0.5449790000000  0.5197790000000 1.0
C      1  0.5916670000000  0.4487850000000  0.4801740000000 1.0
C      1  0.5050960000000  0.4573300000000  0.4056540000000 1.0
C      1  0.4018820000000  0.4525990000000  0.4655170000000 1.0
C      1  0.4331110000000  0.4569610000000  0.5732040000000 1.0
C      1  0.5431060000000  0.4503410000000  0.5863720000000 1.0
C      1  0.5961720000000  0.5399650000000  0.4758100000000 1.0
C      1  0.5097170000000  0.5464510000000  0.4094290000000 1.0
C      1  0.4107380000000  0.5444810000000  0.4590140000000 1.0
C      1  0.4369290000000  0.5510190000000  0.5672030000000 1.0
C      1  0.5469500000000  0.5443210000000  0.5779980000000 1.0
C      1  0.4744690000000  0.4456170000000  0.4283750000000 1.0
C      1  0.4245910000000  0.4455510000000  0.4968520000000 1.0
C      1  0.4708160000000  0.4460690000000  0.5685480000000 1.0
C      1  0.5628240000000  0.4464950000000  0.5473540000000 1.0
C      1  0.5642820000000  0.4453110000000  0.4512440000000 1.0
C      1  0.4755870000000  0.5543400000000  0.4284570000000 1.0
C      1  0.4231780000000  0.5547700000000  0.4955570000000 1.0
C      1  0.4760160000000  0.5551270000000  0.5739710000000 1.0
C      1  0.5613720000000  0.5500770000000  0.5411700000000 1.0
C      1  0.5621290000000  0.5520830000000  0.4590020000000 1.0
C      1  0.4513470000000  0.5742640000000  0.4949310000000 1.0
C      1  0.4814720000000  0.5764940000000  0.5476060000000 1.0
C      1  0.5383050000000  0.5718830000000  0.5289280000000 1.0
C      1  0.5416520000000  0.5758810000000  0.4733140000000 1.0
C      1  0.4897170000000  0.5730580000000  0.4533880000000 1.0
C      1  0.4525090000000  0.4261140000000  0.4946260000000 1.0
C      1  0.4796700000000  0.4229850000000  0.5450050000000 1.0
C      1  0.5376490000000  0.4292140000000  0.5338190000000 1.0
C      1  0.5449540000000  0.4308120000000  0.4747220000000 1.0
C      1  0.4907510000000  0.4307400000000  0.4518600000000 1.0
C      1  0.5781050000000  0.4997300000000  0.5704000000000 1.0
C      1  0.4720820000000  0.5017820000000  0.3947110000000 1.0
C      1  0.3920380000000  0.5006530000000  0.4907980000000 1.0
C      1  0.4556040000000  0.5014230000000  0.6007350000000 1.0
C      1  0.5947450000000  0.4974640000000  0.4426320000000 1.0
C      1  0.5059730000000  0.4753130000000  0.5012670000000 1.0
C      1  0.5092990000000  0.5235850000000  0.5043870000000 1.0
C      1  0.4999080000000  0.5016640000000  0.5019530000000 1.0
END
