TITL C-2782225-7408-945 0.0460453693119075 125000 -461.41048553408 0 0 80 (C1) n - 1
REM
REM in /home/nfs/bkarasulu/CARBON/AIRSS/Generating-Clusters/REBO/Higher-Symm/SD-CG/HFTN-CG
REM
REM
REM
REM
REM
REM ./C.cell (12c818d87b63d06a65506943cc24bca4)
REM
REM compiler GCC version 9.2.1 20190827 (Red Hat 9.2.1-1)
REM options -cpp -mtune=generic -march=x86-64 -g -O0 -fpre-include=/usr/include/finclude/math-vector-fortran.h
REM seed -640036143 958688619 -235623756 583608421 -2037080114 1789424937 -742292974 -524074226 1741010121 -951781582 -903949173 490930401 -984890011 1098423559 -1803926988 -1569923155 197481505 -1456112207 1174900733 -450783625 2049704716 1921166155 -421751206 -1680824697 -1321433253 -1151015126 1200956307 1932511663 -465640473 1462767538 -804113119 -1130077187 -2012632539
REM
CELL 1.54180   50.00000   50.00000   50.00000   90.00000   90.00000   90.00000
LATT -1
SFAC C  
C      1  0.4849160000000  0.4856880000000  0.4813390000000 1.0
C      1  0.5152150000000  0.5186480000000  0.4881620000000 1.0
C      1  0.4844500000000  0.4813450000000  0.5122230000000 1.0
C      1  0.5149240000000  0.5143770000000  0.5189390000000 1.0
C      1  0.5712900000000  0.5108700000000  0.4705900000000 1.0
C      1  0.4333730000000  0.4936320000000  0.4738460000000 1.0
C      1  0.5665640000000  0.5048960000000  0.5274040000000 1.0
C      1  0.4287680000000  0.4909370000000  0.5309790000000 1.0
C      1  0.5081810000000  0.4682850000000  0.4683110000000 1.0
C      1  0.4924260000000  0.5369080000000  0.4737120000000 1.0
C      1  0.5072160000000  0.4630760000000  0.5267940000000 1.0
C      1  0.4919530000000  0.5322380000000  0.5317590000000 1.0
C      1  0.4833330000000  0.4307630000000  0.4865470000000 1.0
C      1  0.5177980000000  0.5705040000000  0.4867920000000 1.0
C      1  0.4787570000000  0.4291610000000  0.5171690000000 1.0
C      1  0.5184740000000  0.5684280000000  0.5180240000000 1.0
C      1  0.4631850000000  0.4476030000000  0.4671920000000 1.0
C      1  0.5392990000000  0.5557920000000  0.4666830000000 1.0
C      1  0.4592270000000  0.4455070000000  0.5373980000000 1.0
C      1  0.5375600000000  0.5506480000000  0.5367880000000 1.0
C      1  0.4970980000000  0.5152470000000  0.5938940000000 1.0
C      1  0.5059990000000  0.4898160000000  0.5954300000000 1.0
C      1  0.4948650000000  0.5100720000000  0.3999930000000 1.0
C      1  0.5059030000000  0.4853850000000  0.4002430000000 1.0
C      1  0.4737540000000  0.5573040000000  0.5567860000000 1.0
C      1  0.5227700000000  0.4453720000000  0.5591130000000 1.0
C      1  0.4776270000000  0.5521610000000  0.4387940000000 1.0
C      1  0.5256490000000  0.4455630000000  0.4406260000000 1.0
C      1  0.4564430000000  0.5296680000000  0.5666560000000 1.0
C      1  0.5444110000000  0.4700490000000  0.5681030000000 1.0
C      1  0.4571880000000  0.5260150000000  0.4313280000000 1.0
C      1  0.5433260000000  0.4736310000000  0.4328150000000 1.0
C      1  0.4506040000000  0.4756960000000  0.5525190000000 1.0
C      1  0.5492560000000  0.5216580000000  0.5515360000000 1.0
C      1  0.4494310000000  0.4746070000000  0.4505790000000 1.0
C      1  0.5498670000000  0.5273840000000  0.4496610000000 1.0
C      1  0.4870790000000  0.5757350000000  0.4816080000000 1.0
C      1  0.5138440000000  0.4255390000000  0.4842160000000 1.0
C      1  0.4879930000000  0.5744310000000  0.5128150000000 1.0
C      1  0.5102460000000  0.4248840000000  0.5153190000000 1.0
C      1  0.5573420000000  0.5369000000000  0.4875590000000 1.0
C      1  0.4446830000000  0.4652270000000  0.4888180000000 1.0
C      1  0.5554280000000  0.5341130000000  0.5142770000000 1.0
C      1  0.4420050000000  0.4636370000000  0.5155680000000 1.0
C      1  0.5331430000000  0.4720970000000  0.4806500000000 1.0
C      1  0.4667660000000  0.5336120000000  0.4861790000000 1.0
C      1  0.5328180000000  0.4664520000000  0.5134510000000 1.0
C      1  0.4668870000000  0.5286150000000  0.5191660000000 1.0
C      1  0.4437920000000  0.5038610000000  0.4368430000000 1.0
C      1  0.5544500000000  0.4972620000000  0.4371490000000 1.0
C      1  0.4448900000000  0.5058130000000  0.5642310000000 1.0
C      1  0.5577220000000  0.4928130000000  0.5641760000000 1.0
C      1  0.4251930000000  0.5208300000000  0.5178990000000 1.0
C      1  0.5729390000000  0.4758620000000  0.5124160000000 1.0
C      1  0.4265070000000  0.5234720000000  0.4874330000000 1.0
C      1  0.5749590000000  0.4802300000000  0.4821640000000 1.0
C      1  0.5413490000000  0.5014580000000  0.4788110000000 1.0
C      1  0.4606450000000  0.5031740000000  0.4890410000000 1.0
C      1  0.5392370000000  0.4969350000000  0.5112720000000 1.0
C      1  0.4586500000000  0.4993670000000  0.5214120000000 1.0
C      1  0.4668810000000  0.5669120000000  0.4642050000000 1.0
C      1  0.5350570000000  0.4342440000000  0.4682350000000 1.0
C      1  0.4656780000000  0.5672450000000  0.5288890000000 1.0
C      1  0.5317610000000  0.4316870000000  0.5328860000000 1.0
C      1  0.5074300000000  0.5534630000000  0.5533810000000 1.0
C      1  0.4908520000000  0.4456350000000  0.5511950000000 1.0
C      1  0.5086310000000  0.5561060000000  0.4508000000000 1.0
C      1  0.4927650000000  0.4449120000000  0.4496120000000 1.0
C      1  0.4411400000000  0.5530150000000  0.4788390000000 1.0
C      1  0.5581660000000  0.4506880000000  0.4852410000000 1.0
C      1  0.4419800000000  0.5501150000000  0.5128060000000 1.0
C      1  0.5580960000000  0.4458760000000  0.5189930000000 1.0
C      1  0.4835760000000  0.5355690000000  0.5812840000000 1.0
C      1  0.5180010000000  0.4675760000000  0.5845560000000 1.0
C      1  0.4818550000000  0.5306960000000  0.4127370000000 1.0
C      1  0.5197490000000  0.4658020000000  0.4138250000000 1.0
C      1  0.5184390000000  0.5240970000000  0.4552030000000 1.0
C      1  0.4818740000000  0.4772240000000  0.4486970000000 1.0
C      1  0.5166960000000  0.5206880000000  0.5521240000000 1.0
C      1  0.4817110000000  0.4771980000000  0.5452940000000 1.0
END
