TITL C-2782235-7892-971 0.00658546171365175 125000 -729.688272724112 0 0 116 (C1) n - 1
REM
REM in /home/nfs/bkarasulu/CARBON/AIRSS/Generating-Clusters/REBO/Higher-Symm/SD-CG/HFTN-CG
REM
REM
REM
REM
REM
REM ./C.cell (12c818d87b63d06a65506943cc24bca4)
REM
REM compiler GCC version 9.2.1 20190827 (Red Hat 9.2.1-1)
REM options -cpp -mtune=generic -march=x86-64 -g -O0 -fpre-include=/usr/include/finclude/math-vector-fortran.h
REM seed 424336820 766686953 -1021415538 -1388490782 -733939105 137112851 -710838460 -757438848 -1646221653 1802661025 920469002 -490089854 -846979920 -47692279 1228699653 1969326693 -1268917606 881470133 -1184873115 -1155793445 2134845102 347072992 -1840066975 -1206902215 -1383326905 -1671356332 814549947 1008258646 -1550789122 1827372524 -95722192 699900016 -194858965
REM
CELL 1.54180   50.00000   50.00000   50.00000   90.00000   90.00000   90.00000
LATT -1
SFAC C  
C      1  0.4700840000000  0.5905640000000  0.5449060000000 1.0
C      1  0.4500400000000  0.5900220000000  0.4954590000000 1.0
C      1  0.4844640000000  0.5814500000000  0.4543130000000 1.0
C      1  0.5373780000000  0.5822620000000  0.4608940000000 1.0
C      1  0.5566080000000  0.5813090000000  0.5106890000000 1.0
C      1  0.5228180000000  0.5829490000000  0.5515950000000 1.0
C      1  0.5378250000000  0.4174040000000  0.5388170000000 1.0
C      1  0.5577780000000  0.4188820000000  0.4892850000000 1.0
C      1  0.5250230000000  0.4158170000000  0.4476270000000 1.0
C      1  0.4722150000000  0.4079010000000  0.4531030000000 1.0
C      1  0.4515640000000  0.4110140000000  0.5025320000000 1.0
C      1  0.4845750000000  0.4188750000000  0.5437290000000 1.0
C      1  0.5149250000000  0.5972660000000  0.5286970000000 1.0
C      1  0.4869290000000  0.6003510000000  0.5245980000000 1.0
C      1  0.4763310000000  0.5997650000000  0.4982040000000 1.0
C      1  0.4940630000000  0.5961900000000  0.4762520000000 1.0
C      1  0.5222160000000  0.5958070000000  0.4802720000000 1.0
C      1  0.5327490000000  0.5957610000000  0.5066520000000 1.0
C      1  0.4948020000000  0.4037460000000  0.5224100000000 1.0
C      1  0.5230490000000  0.4038910000000  0.5191320000000 1.0
C      1  0.5341090000000  0.4039670000000  0.4929630000000 1.0
C      1  0.5167350000000  0.4018390000000  0.4705920000000 1.0
C      1  0.4886250000000  0.3988710000000  0.4740660000000 1.0
C      1  0.4775100000000  0.4004050000000  0.5001790000000 1.0
C      1  0.4342820000000  0.5668640000000  0.4951400000000 1.0
C      1  0.4774960000000  0.5564610000000  0.4435710000000 1.0
C      1  0.5429990000000  0.5563500000000  0.4520170000000 1.0
C      1  0.5681970000000  0.5558070000000  0.5121690000000 1.0
C      1  0.5255210000000  0.5567580000000  0.5609550000000 1.0
C      1  0.4613210000000  0.5663960000000  0.5559640000000 1.0
C      1  0.5694950000000  0.4443830000000  0.4880200000000 1.0
C      1  0.5269140000000  0.4424090000000  0.4392700000000 1.0
C      1  0.4611930000000  0.4312770000000  0.4422660000000 1.0
C      1  0.4337270000000  0.4327050000000  0.5022960000000 1.0
C      1  0.4774610000000  0.4443240000000  0.5531000000000 1.0
C      1  0.5429860000000  0.4434530000000  0.5475570000000 1.0
C      1  0.5724610000000  0.5099950000000  0.5272100000000 1.0
C      1  0.5090280000000  0.5090540000000  0.5716650000000 1.0
C      1  0.4428710000000  0.5223820000000  0.5573070000000 1.0
C      1  0.4256180000000  0.5237020000000  0.4819620000000 1.0
C      1  0.4904290000000  0.5118250000000  0.4250340000000 1.0
C      1  0.5596000000000  0.5105610000000  0.4549550000000 1.0
C      1  0.4119320000000  0.4714120000000  0.5228810000000 1.0
C      1  0.4894650000000  0.4865830000000  0.5762500000000 1.0
C      1  0.5586890000000  0.4895610000000  0.5444920000000 1.0
C      1  0.5733320000000  0.4903940000000  0.4727520000000 1.0
C      1  0.5104980000000  0.4895030000000  0.4291940000000 1.0
C      1  0.4313250000000  0.4702830000000  0.4402530000000 1.0
C      1  0.5031820000000  0.5419150000000  0.5708560000000 1.0
C      1  0.4403500000000  0.5495640000000  0.5442840000000 1.0
C      1  0.4333800000000  0.5499540000000  0.4708890000000 1.0
C      1  0.4981330000000  0.5387520000000  0.4325800000000 1.0
C      1  0.5618710000000  0.5391430000000  0.4647640000000 1.0
C      1  0.5647310000000  0.5384280000000  0.5346070000000 1.0
C      1  0.4977050000000  0.4605620000000  0.5666340000000 1.0
C      1  0.5618200000000  0.4608970000000  0.5350780000000 1.0
C      1  0.5661570000000  0.4617360000000  0.4655270000000 1.0
C      1  0.5042350000000  0.4571890000000  0.4301650000000 1.0
C      1  0.4362050000000  0.4424570000000  0.4523730000000 1.0
C      1  0.4324410000000  0.4511620000000  0.5251100000000 1.0
C      1  0.4042910000000  0.5328510000000  0.5144650000000 1.0
C      1  0.4435990000000  0.5250040000000  0.4299400000000 1.0
C      1  0.5418520000000  0.5271180000000  0.4132260000000 1.0
C      1  0.6022620000000  0.5251980000000  0.4926000000000 1.0
C      1  0.5495500000000  0.5210320000000  0.5805870000000 1.0
C      1  0.4612340000000  0.5394180000000  0.5968630000000 1.0
C      1  0.6026500000000  0.4754840000000  0.5087900000000 1.0
C      1  0.5500560000000  0.4785630000000  0.4196030000000 1.0
C      1  0.4627450000000  0.4637950000000  0.4054840000000 1.0
C      1  0.3994470000000  0.4602580000000  0.4793130000000 1.0
C      1  0.4432590000000  0.4754370000000  0.5659540000000 1.0
C      1  0.5412770000000  0.4725730000000  0.5862550000000 1.0
C      1  0.5316120000000  0.5174800000000  0.4983540000000 1.0
C      1  0.5219730000000  0.5225370000000  0.5234930000000 1.0
C      1  0.4816950000000  0.5315090000000  0.5311060000000 1.0
C      1  0.4696050000000  0.5344360000000  0.5061190000000 1.0
C      1  0.4708630000000  0.4914790000000  0.4658790000000 1.0
C      1  0.5144790000000  0.5086270000000  0.4780400000000 1.0
C      1  0.4456900000000  0.4910750000000  0.5111690000000 1.0
C      1  0.4676160000000  0.4875710000000  0.5293060000000 1.0
C      1  0.5181040000000  0.4824600000000  0.5224870000000 1.0
C      1  0.5368220000000  0.4780820000000  0.5018870000000 1.0
C      1  0.5288420000000  0.4714210000000  0.4760830000000 1.0
C      1  0.4374420000000  0.4726380000000  0.4917480000000 1.0
C      1  0.5560400000000  0.5055250000000  0.4249680000000 1.0
C      1  0.6017530000000  0.5059590000000  0.5190540000000 1.0
C      1  0.5251690000000  0.5229740000000  0.5982520000000 1.0
C      1  0.4412280000000  0.5234620000000  0.5860130000000 1.0
C      1  0.4006160000000  0.5100010000000  0.4943500000000 1.0
C      1  0.4629090000000  0.5078280000000  0.4204580000000 1.0
C      1  0.4389450000000  0.4751420000000  0.4135520000000 1.0
C      1  0.3991490000000  0.4812920000000  0.4990770000000 1.0
C      1  0.4618530000000  0.4897620000000  0.5802520000000 1.0
C      1  0.5556260000000  0.4941890000000  0.5746370000000 1.0
C      1  0.6019410000000  0.4947340000000  0.4826850000000 1.0
C      1  0.5256110000000  0.4756880000000  0.4019310000000 1.0
C      1  0.4252650000000  0.5521710000000  0.5193700000000 1.0
C      1  0.4499830000000  0.5470830000000  0.4470720000000 1.0
C      1  0.5267140000000  0.5442150000000  0.4308280000000 1.0
C      1  0.5792650000000  0.5430260000000  0.4879190000000 1.0
C      1  0.5498810000000  0.5409410000000  0.5591260000000 1.0
C      1  0.4773740000000  0.5528260000000  0.5770750000000 1.0
C      1  0.5799050000000  0.4571570000000  0.5125530000000 1.0
C      1  0.5510510000000  0.4587390000000  0.4411370000000 1.0
C      1  0.4776070000000  0.4485710000000  0.4247170000000 1.0
C      1  0.4202660000000  0.4398860000000  0.4768550000000 1.0
C      1  0.4507040000000  0.4548440000000  0.5473950000000 1.0
C      1  0.5263130000000  0.4554280000000  0.5685140000000 1.0
C      1  0.4475150000000  0.5172750000000  0.4994810000000 1.0
C      1  0.5590580000000  0.5009750000000  0.5001080000000 1.0
C      1  0.5268450000000  0.5012850000000  0.5478130000000 1.0
C      1  0.4683530000000  0.5109270000000  0.5469490000000 1.0
C      1  0.5289600000000  0.4960700000000  0.4528150000000 1.0
C      1  0.4455550000000  0.4791020000000  0.4653240000000 1.0
C      1  0.4915900000000  0.4846910000000  0.5132380000000 1.0
C      1  0.4905380000000  0.4953700000000  0.4857720000000 1.0
END
