TITL C-2782231-7322-425 -0.000852089910403847 125000 -810.820417360977 0 0 137 (C1) n - 1
REM
REM in /home/nfs/bkarasulu/CARBON/AIRSS/Generating-Clusters/REBO/Higher-Symm/SD-CG/HFTN-CG
REM
REM
REM
REM
REM
REM ./C.cell (12c818d87b63d06a65506943cc24bca4)
REM
REM compiler GCC version 9.2.1 20190827 (Red Hat 9.2.1-1)
REM options -cpp -mtune=generic -march=x86-64 -g -O0 -fpre-include=/usr/include/finclude/math-vector-fortran.h
REM seed 2080719601 1720676481 1397495445 248046923 1311315316 -2014976098 789079945 -1414278446 414260727 142023204 1920036605 -210901065 1522849254 -156312214 484431081 1335562696 -1118444429 -1854782900 1959043770 1640441712 2141996200 -647812057 -808443951 -1435646322 -2075779506 227387408 1932123906 696942130 1984930368 1120703073 90914964 -507378578 -776578938
REM
CELL 1.54180   50.00000   50.00000   50.00000   90.00000   90.00000   90.00000
LATT -1
SFAC C  
C      1  0.4396440000000  0.4780700000000  0.5488390000000 1.0
C      1  0.5598250000000  0.5223610000000  0.5392820000000 1.0
C      1  0.4919930000000  0.4899090000000  0.5205890000000 1.0
C      1  0.5085470000000  0.5123920000000  0.5159380000000 1.0
C      1  0.4467610000000  0.4958180000000  0.5863040000000 1.0
C      1  0.5493370000000  0.5009780000000  0.5856890000000 1.0
C      1  0.5567760000000  0.4833540000000  0.5314600000000 1.0
C      1  0.4443750000000  0.5123190000000  0.5292530000000 1.0
C      1  0.4780500000000  0.4754830000000  0.5595340000000 1.0
C      1  0.5269440000000  0.5267280000000  0.5611100000000 1.0
C      1  0.4813220000000  0.4757400000000  0.4166230000000 1.0
C      1  0.5268260000000  0.5386780000000  0.4007070000000 1.0
C      1  0.5505030000000  0.5442730000000  0.5149530000000 1.0
C      1  0.4678190000000  0.4632590000000  0.5037850000000 1.0
C      1  0.5595430000000  0.4765200000000  0.4540610000000 1.0
C      1  0.4404800000000  0.5222650000000  0.4417140000000 1.0
C      1  0.5990500000000  0.4760480000000  0.4911510000000 1.0
C      1  0.4185720000000  0.5230200000000  0.4861360000000 1.0
C      1  0.5510510000000  0.4313770000000  0.5213840000000 1.0
C      1  0.4433030000000  0.5661930000000  0.5288240000000 1.0
C      1  0.4886670000000  0.5015910000000  0.5584710000000 1.0
C      1  0.5168200000000  0.5010610000000  0.5532880000000 1.0
C      1  0.5746260000000  0.5296290000000  0.4525610000000 1.0
C      1  0.4171700000000  0.4682370000000  0.4449730000000 1.0
C      1  0.4934910000000  0.5891640000000  0.5288780000000 1.0
C      1  0.5003410000000  0.4055810000000  0.5309490000000 1.0
C      1  0.4678950000000  0.5223990000000  0.5881250000000 1.0
C      1  0.5303350000000  0.4738570000000  0.5790960000000 1.0
C      1  0.5165230000000  0.3988440000000  0.5080280000000 1.0
C      1  0.4819950000000  0.5808780000000  0.5056550000000 1.0
C      1  0.6019160000000  0.4971640000000  0.5104500000000 1.0
C      1  0.4043080000000  0.5061590000000  0.5048410000000 1.0
C      1  0.4927890000000  0.4526140000000  0.5454240000000 1.0
C      1  0.5086210000000  0.5498610000000  0.5541120000000 1.0
C      1  0.4794500000000  0.5327330000000  0.5578550000000 1.0
C      1  0.5223970000000  0.4691770000000  0.5460010000000 1.0
C      1  0.4712970000000  0.5586020000000  0.4345340000000 1.0
C      1  0.5228930000000  0.4353950000000  0.4516690000000 1.0
C      1  0.5850230000000  0.5769890000000  0.5013270000000 1.0
C      1  0.4117840000000  0.4351380000000  0.5070000000000 1.0
C      1  0.6022990000000  0.5255600000000  0.4958450000000 1.0
C      1  0.3954020000000  0.4804660000000  0.4891020000000 1.0
C      1  0.4926800000000  0.5126380000000  0.4265780000000 1.0
C      1  0.5194900000000  0.4958470000000  0.4263020000000 1.0
C      1  0.4420080000000  0.5668700000000  0.4697120000000 1.0
C      1  0.5503720000000  0.4244050000000  0.4677220000000 1.0
C      1  0.5677600000000  0.5502630000000  0.4290020000000 1.0
C      1  0.4413810000000  0.4450260000000  0.4452370000000 1.0
C      1  0.4447250000000  0.4595390000000  0.4822400000000 1.0
C      1  0.5533030000000  0.5462460000000  0.4820310000000 1.0
C      1  0.5795560000000  0.4834100000000  0.4716730000000 1.0
C      1  0.4148840000000  0.5137210000000  0.4587550000000 1.0
C      1  0.5440890000000  0.4132240000000  0.4992770000000 1.0
C      1  0.4506740000000  0.5760340000000  0.5014840000000 1.0
C      1  0.4384420000000  0.5313490000000  0.5735070000000 1.0
C      1  0.5590760000000  0.4710280000000  0.5616930000000 1.0
C      1  0.4630300000000  0.4810820000000  0.4669480000000 1.0
C      1  0.5367670000000  0.5236770000000  0.4689420000000 1.0
C      1  0.4609170000000  0.5008120000000  0.4276240000000 1.0
C      1  0.5413320000000  0.5127510000000  0.4115160000000 1.0
C      1  0.5076920000000  0.5950770000000  0.4462050000000 1.0
C      1  0.4880860000000  0.3979910000000  0.4462430000000 1.0
C      1  0.4241690000000  0.5040670000000  0.5625650000000 1.0
C      1  0.5714510000000  0.5030340000000  0.5626420000000 1.0
C      1  0.4954310000000  0.5309770000000  0.4998430000000 1.0
C      1  0.5023210000000  0.4656090000000  0.5056060000000 1.0
C      1  0.4683360000000  0.5341030000000  0.5058120000000 1.0
C      1  0.5292820000000  0.4719700000000  0.4883320000000 1.0
C      1  0.4533570000000  0.4287630000000  0.4727470000000 1.0
C      1  0.5425990000000  0.5742310000000  0.4714180000000 1.0
C      1  0.5067320000000  0.4701470000000  0.5983710000000 1.0
C      1  0.4913430000000  0.5191480000000  0.6077800000000 1.0
C      1  0.4605040000000  0.5748420000000  0.5569650000000 1.0
C      1  0.5380360000000  0.4233840000000  0.5515520000000 1.0
C      1  0.5012470000000  0.4848700000000  0.3926800000000 1.0
C      1  0.5080570000000  0.5122220000000  0.3894900000000 1.0
C      1  0.5320100000000  0.3967700000000  0.4717070000000 1.0
C      1  0.4624140000000  0.5910120000000  0.4727360000000 1.0
C      1  0.4891010000000  0.4407230000000  0.4899150000000 1.0
C      1  0.5085820000000  0.5384000000000  0.4714940000000 1.0
C      1  0.5827710000000  0.5508120000000  0.4924560000000 1.0
C      1  0.4164030000000  0.4580420000000  0.4929520000000 1.0
C      1  0.5082800000000  0.5575650000000  0.4197260000000 1.0
C      1  0.4855260000000  0.4690620000000  0.4499220000000 1.0
C      1  0.5143050000000  0.5360320000000  0.6064100000000 1.0
C      1  0.4833840000000  0.4544820000000  0.5930970000000 1.0
C      1  0.4434670000000  0.4745090000000  0.4282820000000 1.0
C      1  0.5660120000000  0.5189240000000  0.4235490000000 1.0
C      1  0.5623300000000  0.5884500000000  0.5156410000000 1.0
C      1  0.4323750000000  0.4208780000000  0.5202480000000 1.0
C      1  0.5474320000000  0.4999070000000  0.4886700000000 1.0
C      1  0.4480480000000  0.5250750000000  0.4894640000000 1.0
C      1  0.6287280000000  0.5328720000000  0.4896870000000 1.0
C      1  0.3687050000000  0.4729140000000  0.4928630000000 1.0
C      1  0.4862240000000  0.5317620000000  0.3987430000000 1.0
C      1  0.5198470000000  0.4672030000000  0.4109080000000 1.0
C      1  0.4351160000000  0.5564730000000  0.5608180000000 1.0
C      1  0.5636690000000  0.4422110000000  0.5513230000000 1.0
C      1  0.5567600000000  0.4489260000000  0.4450180000000 1.0
C      1  0.4467780000000  0.5520210000000  0.4463710000000 1.0
C      1  0.4040170000000  0.4876000000000  0.4594620000000 1.0
C      1  0.5766580000000  0.5141940000000  0.4776230000000 1.0
C      1  0.4145480000000  0.5074350000000  0.5304700000000 1.0
C      1  0.5875740000000  0.4943780000000  0.5339700000000 1.0
C      1  0.5075880000000  0.4556490000000  0.4674690000000 1.0
C      1  0.4956470000000  0.5396880000000  0.4447360000000 1.0
C      1  0.5646500000000  0.5831100000000  0.5446410000000 1.0
C      1  0.4343140000000  0.4251340000000  0.5485390000000 1.0
C      1  0.4587920000000  0.4199660000000  0.5052190000000 1.0
C      1  0.5340030000000  0.5725380000000  0.5051240000000 1.0
C      1  0.5049430000000  0.5675320000000  0.4872180000000 1.0
C      1  0.4891000000000  0.4100770000000  0.4928800000000 1.0
C      1  0.5132900000000  0.4307010000000  0.5592040000000 1.0
C      1  0.4859840000000  0.5716850000000  0.5640380000000 1.0
C      1  0.5037540000000  0.3952700000000  0.4694710000000 1.0
C      1  0.4899760000000  0.5885140000000  0.4673460000000 1.0
C      1  0.4705630000000  0.4185900000000  0.4456460000000 1.0
C      1  0.5326130000000  0.5813870000000  0.4459410000000 1.0
C      1  0.4826230000000  0.4268860000000  0.5285140000000 1.0
C      1  0.5161720000000  0.5741180000000  0.5342220000000 1.0
C      1  0.5353390000000  0.5268840000000  0.5893880000000 1.0
C      1  0.4599750000000  0.4706060000000  0.5824410000000 1.0
C      1  0.5623430000000  0.5549660000000  0.5448000000000 1.0
C      1  0.4358420000000  0.4523700000000  0.5554730000000 1.0
C      1  0.4605590000000  0.4861620000000  0.5253680000000 1.0
C      1  0.5383220000000  0.5066320000000  0.5181450000000 1.0
C      1  0.5397630000000  0.4605910000000  0.5180230000000 1.0
C      1  0.4601340000000  0.5379800000000  0.5359070000000 1.0
C      1  0.4715740000000  0.4464440000000  0.4294020000000 1.0
C      1  0.5410210000000  0.5626920000000  0.4213810000000 1.0
C      1  0.4561340000000  0.5083410000000  0.4665750000000 1.0
C      1  0.5400810000000  0.4969740000000  0.4496280000000 1.0
C      1  0.5322580000000  0.4460960000000  0.4228950000000 1.0
C      1  0.4782070000000  0.5600240000000  0.4050190000000 1.0
C      1  0.4360500000000  0.4047900000000  0.5664250000000 1.0
C      1  0.5686080000000  0.6007360000000  0.5645970000000 1.0
C      1  0.4993880000000  0.4926950000000  0.6139730000000 1.0
END
