TITL C-2782230-7391-321 0.000913965635923264 125000 -637.314668921361 0 0 110 (C1) n - 1
REM
REM in /home/nfs/bkarasulu/CARBON/AIRSS/Generating-Clusters/REBO/Higher-Symm/SD-CG/HFTN-CG
REM
REM
REM
REM
REM
REM ./C.cell (12c818d87b63d06a65506943cc24bca4)
REM
REM compiler GCC version 9.2.1 20190827 (Red Hat 9.2.1-1)
REM options -cpp -mtune=generic -march=x86-64 -g -O0 -fpre-include=/usr/include/finclude/math-vector-fortran.h
REM seed -503100051 -1749617538 1030796424 1305250706 469019556 -378380420 1206270498 1195879687 -460943682 -1029532107 1584974538 1403422977 1448117 1941238453 -101263843 321493521 -852461790 536691046 547545171 -8898026 1387913731 -255692290 1102095441 -29835937 -92099383 -637979653 -1512271277 -834249224 -2009231373 -724702603 -799635526 -225282938 -1299599259
REM
CELL 1.54180   50.00000   50.00000   50.00000   90.00000   90.00000   90.00000
LATT -1
SFAC C  
C      1  0.4972590000000  0.5335250000000  0.4717620000000 1.0
C      1  0.5717880000000  0.5361200000000  0.5480790000000 1.0
C      1  0.4769330000000  0.5009570000000  0.5080570000000 1.0
C      1  0.4869450000000  0.4984790000000  0.5486520000000 1.0
C      1  0.5252730000000  0.4623640000000  0.5769290000000 1.0
C      1  0.4527650000000  0.5754350000000  0.4765220000000 1.0
C      1  0.4974660000000  0.4562670000000  0.4915830000000 1.0
C      1  0.4556110000000  0.4796110000000  0.4287120000000 1.0
C      1  0.5493790000000  0.5640090000000  0.5146490000000 1.0
C      1  0.4207120000000  0.5427830000000  0.4668260000000 1.0
C      1  0.5612880000000  0.4407550000000  0.4664810000000 1.0
C      1  0.5215320000000  0.5598770000000  0.4387170000000 1.0
C      1  0.4894170000000  0.5284030000000  0.5793030000000 1.0
C      1  0.4453070000000  0.5617700000000  0.5465900000000 1.0
C      1  0.5701900000000  0.5441300000000  0.4989300000000 1.0
C      1  0.5380760000000  0.4438860000000  0.5589400000000 1.0
C      1  0.4314640000000  0.4563940000000  0.4706510000000 1.0
C      1  0.4256890000000  0.4621850000000  0.5521010000000 1.0
C      1  0.4688950000000  0.4505740000000  0.4999770000000 1.0
C      1  0.5801400000000  0.5241130000000  0.5232020000000 1.0
C      1  0.5173450000000  0.5587260000000  0.5083910000000 1.0
C      1  0.5352430000000  0.5620720000000  0.5645590000000 1.0
C      1  0.4498230000000  0.4507210000000  0.4456810000000 1.0
C      1  0.5671860000000  0.5573580000000  0.4703600000000 1.0
C      1  0.5446980000000  0.5250550000000  0.4637350000000 1.0
C      1  0.5218600000000  0.5385470000000  0.5807670000000 1.0
C      1  0.4496890000000  0.5064780000000  0.4907800000000 1.0
C      1  0.5410380000000  0.4869070000000  0.4173120000000 1.0
C      1  0.4377730000000  0.4374730000000  0.5378550000000 1.0
C      1  0.4358370000000  0.5375000000000  0.5351570000000 1.0
C      1  0.4094050000000  0.5231030000000  0.5088460000000 1.0
C      1  0.4463140000000  0.4341300000000  0.5090840000000 1.0
C      1  0.5184230000000  0.4308290000000  0.5426440000000 1.0
C      1  0.4413780000000  0.5598700000000  0.4552350000000 1.0
C      1  0.5356050000000  0.5070870000000  0.5426370000000 1.0
C      1  0.5075550000000  0.4863520000000  0.4448140000000 1.0
C      1  0.4667900000000  0.4275020000000  0.5427980000000 1.0
C      1  0.5797930000000  0.4526540000000  0.4924720000000 1.0
C      1  0.4859090000000  0.4306870000000  0.5658720000000 1.0
C      1  0.5442890000000  0.4740590000000  0.4799680000000 1.0
C      1  0.5698220000000  0.5242080000000  0.5738680000000 1.0
C      1  0.5311130000000  0.4388850000000  0.4538560000000 1.0
C      1  0.4513410000000  0.5010160000000  0.5307500000000 1.0
C      1  0.4102270000000  0.5010520000000  0.4888240000000 1.0
C      1  0.4892700000000  0.5750460000000  0.5194530000000 1.0
C      1  0.5446080000000  0.5155560000000  0.5845260000000 1.0
C      1  0.4819040000000  0.5262150000000  0.4189950000000 1.0
C      1  0.5525310000000  0.4982870000000  0.4990400000000 1.0
C      1  0.5026360000000  0.5918590000000  0.4930510000000 1.0
C      1  0.5519150000000  0.4802300000000  0.5503060000000 1.0
C      1  0.5312920000000  0.4510820000000  0.4971350000000 1.0
C      1  0.4185340000000  0.5491270000000  0.4964410000000 1.0
C      1  0.5425120000000  0.5713300000000  0.4629910000000 1.0
C      1  0.4333410000000  0.5010210000000  0.4416880000000 1.0
C      1  0.4973030000000  0.4108600000000  0.4983220000000 1.0
C      1  0.4561950000000  0.5767850000000  0.5247300000000 1.0
C      1  0.5439460000000  0.5361860000000  0.4319070000000 1.0
C      1  0.4539650000000  0.4656120000000  0.5610510000000 1.0
C      1  0.4751810000000  0.4695520000000  0.5344960000000 1.0
C      1  0.5883730000000  0.4823720000000  0.4915010000000 1.0
C      1  0.5418190000000  0.4744460000000  0.5197790000000 1.0
C      1  0.4966850000000  0.4562940000000  0.5779590000000 1.0
C      1  0.4136590000000  0.5170360000000  0.5380090000000 1.0
C      1  0.5869480000000  0.4965560000000  0.5192720000000 1.0
C      1  0.4612490000000  0.5164380000000  0.4432300000000 1.0
C      1  0.4978870000000  0.4952070000000  0.4826390000000 1.0
C      1  0.4388470000000  0.5716880000000  0.5014250000000 1.0
C      1  0.4457460000000  0.5078220000000  0.5599810000000 1.0
C      1  0.5062620000000  0.4081230000000  0.5591640000000 1.0
C      1  0.5763460000000  0.5367650000000  0.4527030000000 1.0
C      1  0.4926070000000  0.5574360000000  0.4518790000000 1.0
C      1  0.5237900000000  0.5093610000000  0.5125120000000 1.0
C      1  0.4785970000000  0.4438090000000  0.4351350000000 1.0
C      1  0.5261460000000  0.4977810000000  0.4689960000000 1.0
C      1  0.4945310000000  0.5219020000000  0.5249130000000 1.0
C      1  0.4520320000000  0.5321310000000  0.5100190000000 1.0
C      1  0.5538170000000  0.5584050000000  0.5443930000000 1.0
C      1  0.4150290000000  0.5144950000000  0.4627200000000 1.0
C      1  0.4482610000000  0.4737220000000  0.5135810000000 1.0
C      1  0.5276370000000  0.4213930000000  0.4960720000000 1.0
C      1  0.5793230000000  0.4489730000000  0.5215940000000 1.0
C      1  0.4796110000000  0.5461380000000  0.5062580000000 1.0
C      1  0.5000380000000  0.4492980000000  0.5306390000000 1.0
C      1  0.5763100000000  0.5136750000000  0.4847650000000 1.0
C      1  0.4636580000000  0.5485810000000  0.4371580000000 1.0
C      1  0.5133600000000  0.4137660000000  0.4684550000000 1.0
C      1  0.5388310000000  0.4887720000000  0.5789210000000 1.0
C      1  0.4479990000000  0.4845020000000  0.4671680000000 1.0
C      1  0.4848790000000  0.4937250000000  0.4205360000000 1.0
C      1  0.5224050000000  0.5325410000000  0.4883910000000 1.0
C      1  0.5783270000000  0.4740600000000  0.5360990000000 1.0
C      1  0.4640640000000  0.5212440000000  0.5758830000000 1.0
C      1  0.4740010000000  0.5143440000000  0.4705120000000 1.0
C      1  0.4188480000000  0.4910240000000  0.5529390000000 1.0
C      1  0.5607080000000  0.5068380000000  0.4319950000000 1.0
C      1  0.5087420000000  0.5383940000000  0.4151420000000 1.0
C      1  0.4823700000000  0.5691950000000  0.4807840000000 1.0
C      1  0.5130150000000  0.5142220000000  0.5600920000000 1.0
C      1  0.5680010000000  0.4706930000000  0.4593340000000 1.0
C      1  0.4798550000000  0.4152710000000  0.5197090000000 1.0
C      1  0.5089080000000  0.4783000000000  0.5150550000000 1.0
C      1  0.4995980000000  0.4502280000000  0.4599380000000 1.0
C      1  0.5333610000000  0.5821560000000  0.4902860000000 1.0
C      1  0.5298410000000  0.5156320000000  0.4089940000000 1.0
C      1  0.4221570000000  0.4745310000000  0.4955470000000 1.0
C      1  0.5279690000000  0.4648670000000  0.4334210000000 1.0
C      1  0.4777060000000  0.4773330000000  0.4562010000000 1.0
C      1  0.5747000000000  0.4975360000000  0.4545800000000 1.0
C      1  0.4869040000000  0.4603990000000  0.4135090000000 1.0
C      1  0.4785260000000  0.4779280000000  0.5731480000000 1.0
END
