TITL C-2782230-7391-56 -0.001018505036133 125000 -749.287929073376 0 0 126 (C2) n - 1
REM
REM in /home/nfs/bkarasulu/CARBON/AIRSS/Generating-Clusters/REBO/Higher-Symm/SD-CG/HFTN-CG
REM
REM
REM
REM
REM
REM ./C.cell (12c818d87b63d06a65506943cc24bca4)
REM
REM compiler GCC version 9.2.1 20190827 (Red Hat 9.2.1-1)
REM options -cpp -mtune=generic -march=x86-64 -g -O0 -fpre-include=/usr/include/finclude/math-vector-fortran.h
REM seed -322410171 379026236 -35547203 -1964381644 791146141 1854080580 -1044989479 -2040253003 1788215260 -440599469 -1770179458 -1898828361 -1859378127 1908142023 -2034394834 -1458309307 1245195212 2091322155 1012579207 -1322631335 -1228839838 -49886656 1271034845 -1743610611 1271803411 413801075 -2043391063 1437486447 -1608246376 791695558 306492138 -1243901120 -1184678075
REM
CELL 1.54180   50.00000   50.00000   50.00000   90.00000   90.00000   90.00000
LATT -1
SFAC C  
C      1  0.4278140000000  0.4827450000000  0.5418120000000 1.0
C      1  0.4277900000000  0.5172500000000  0.4582270000000 1.0
C      1  0.4336390000000  0.5154310000000  0.5496180000000 1.0
C      1  0.4336140000000  0.4845650000000  0.4504170000000 1.0
C      1  0.5578200000000  0.5615720000000  0.4696140000000 1.0
C      1  0.5578410000000  0.4384320000000  0.5303550000000 1.0
C      1  0.5577110000000  0.4369280000000  0.4691560000000 1.0
C      1  0.5577230000000  0.5630760000000  0.5308130000000 1.0
C      1  0.4558660000000  0.4065090000000  0.5122590000000 1.0
C      1  0.4558530000000  0.5934880000000  0.4877640000000 1.0
C      1  0.4550340000000  0.5934100000000  0.5127730000000 1.0
C      1  0.4550340000000  0.4065870000000  0.4872510000000 1.0
C      1  0.5297860000000  0.4825830000000  0.4837600000000 1.0
C      1  0.5297930000000  0.5174190000000  0.5162240000000 1.0
C      1  0.5301700000000  0.5165990000000  0.4822000000000 1.0
C      1  0.5301810000000  0.4834030000000  0.5177840000000 1.0
C      1  0.4978060000000  0.5153440000000  0.5900220000000 1.0
C      1  0.4977590000000  0.4846560000000  0.4099790000000 1.0
C      1  0.4991910000000  0.4870810000000  0.5879400000000 1.0
C      1  0.4991420000000  0.5129190000000  0.4120600000000 1.0
C      1  0.5282370000000  0.3989360000000  0.4765250000000 1.0
C      1  0.5282430000000  0.6010660000000  0.5234600000000 1.0
C      1  0.5283890000000  0.5998550000000  0.4757680000000 1.0
C      1  0.5284090000000  0.4001470000000  0.5242170000000 1.0
C      1  0.5231160000000  0.5210750000000  0.4494440000000 1.0
C      1  0.5231450000000  0.4789270000000  0.5505430000000 1.0
C      1  0.5257120000000  0.4767910000000  0.4519300000000 1.0
C      1  0.5257370000000  0.5232110000000  0.5480560000000 1.0
C      1  0.4824350000000  0.5633920000000  0.4258350000000 1.0
C      1  0.4824790000000  0.4366070000000  0.5741750000000 1.0
C      1  0.4850370000000  0.4364810000000  0.4254470000000 1.0
C      1  0.4850730000000  0.5635180000000  0.5745610000000 1.0
C      1  0.4981810000000  0.5280880000000  0.4797830000000 1.0
C      1  0.4981940000000  0.4719120000000  0.5202180000000 1.0
C      1  0.4983590000000  0.4701790000000  0.4803180000000 1.0
C      1  0.4983670000000  0.5298200000000  0.5196830000000 1.0
C      1  0.5574650000000  0.5368490000000  0.5166580000000 1.0
C      1  0.5574580000000  0.4631540000000  0.4833110000000 1.0
C      1  0.5590030000000  0.4654020000000  0.5161890000000 1.0
C      1  0.5589920000000  0.5346010000000  0.4837790000000 1.0
C      1  0.5106730000000  0.4561970000000  0.4212610000000 1.0
C      1  0.5107120000000  0.5438040000000  0.5787330000000 1.0
C      1  0.5079940000000  0.5442080000000  0.4207330000000 1.0
C      1  0.5080400000000  0.4557920000000  0.5792620000000 1.0
C      1  0.5768450000000  0.4872920000000  0.5547840000000 1.0
C      1  0.5768150000000  0.5127140000000  0.4451750000000 1.0
C      1  0.5784730000000  0.5176680000000  0.5445200000000 1.0
C      1  0.5784500000000  0.4823370000000  0.4554380000000 1.0
C      1  0.5129230000000  0.5882710000000  0.5429500000000 1.0
C      1  0.5129060000000  0.4117300000000  0.4570430000000 1.0
C      1  0.5131550000000  0.4129520000000  0.5437120000000 1.0
C      1  0.5131250000000  0.5870490000000  0.4562800000000 1.0
C      1  0.4983430000000  0.5596980000000  0.4832500000000 1.0
C      1  0.4983560000000  0.4403020000000  0.5167510000000 1.0
C      1  0.4981760000000  0.4385640000000  0.4827760000000 1.0
C      1  0.4981810000000  0.5614360000000  0.5172250000000 1.0
C      1  0.5432150000000  0.5455690000000  0.5756950000000 1.0
C      1  0.5431780000000  0.4544340000000  0.4242820000000 1.0
C      1  0.5404150000000  0.4539460000000  0.5760490000000 1.0
C      1  0.5403720000000  0.5460570000000  0.4239290000000 1.0
C      1  0.4522690000000  0.4547600000000  0.4693540000000 1.0
C      1  0.4522820000000  0.5452370000000  0.5306710000000 1.0
C      1  0.4529400000000  0.5449890000000  0.4719890000000 1.0
C      1  0.4529580000000  0.4550080000000  0.5280360000000 1.0
C      1  0.4675820000000  0.4824770000000  0.4820180000000 1.0
C      1  0.4675900000000  0.5175210000000  0.5180000000000 1.0
C      1  0.4675160000000  0.5165710000000  0.4839550000000 1.0
C      1  0.4675260000000  0.4834270000000  0.5160630000000 1.0
C      1  0.5509890000000  0.4161950000000  0.5144790000000 1.0
C      1  0.5509760000000  0.5838090000000  0.4854930000000 1.0
C      1  0.5511220000000  0.5850220000000  0.5145800000000 1.0
C      1  0.5511200000000  0.4149810000000  0.4853920000000 1.0
C      1  0.4654240000000  0.5150860000000  0.5626000000000 1.0
C      1  0.4653920000000  0.4849120000000  0.4374180000000 1.0
C      1  0.4581350000000  0.4847880000000  0.5559970000000 1.0
C      1  0.4581040000000  0.5152090000000  0.4440260000000 1.0
C      1  0.4261770000000  0.4578900000000  0.4847530000000 1.0
C      1  0.4261820000000  0.5421050000000  0.5152870000000 1.0
C      1  0.4254590000000  0.5461820000000  0.4855480000000 1.0
C      1  0.4254700000000  0.4538130000000  0.5144920000000 1.0
C      1  0.5524020000000  0.4372160000000  0.5581080000000 1.0
C      1  0.5523660000000  0.5627870000000  0.4418640000000 1.0
C      1  0.5539870000000  0.5645910000000  0.5589350000000 1.0
C      1  0.5539600000000  0.4354130000000  0.4410360000000 1.0
C      1  0.4607190000000  0.4500680000000  0.4184230000000 1.0
C      1  0.4607590000000  0.5499300000000  0.5815980000000 1.0
C      1  0.4547530000000  0.5507200000000  0.4221140000000 1.0
C      1  0.4547990000000  0.4492770000000  0.5779100000000 1.0
C      1  0.4118240000000  0.4836820000000  0.5115560000000 1.0
C      1  0.4118170000000  0.5163120000000  0.4884920000000 1.0
C      1  0.4127610000000  0.5143000000000  0.5227220000000 1.0
C      1  0.4127500000000  0.4856940000000  0.4773250000000 1.0
C      1  0.4857350000000  0.4195340000000  0.4477190000000 1.0
C      1  0.4857580000000  0.5804650000000  0.5522890000000 1.0
C      1  0.4853320000000  0.5801300000000  0.4481430000000 1.0
C      1  0.4853650000000  0.4198690000000  0.5518650000000 1.0
C      1  0.4682670000000  0.4763200000000  0.4056460000000 1.0
C      1  0.4683160000000  0.5236780000000  0.5943710000000 1.0
C      1  0.4727600000000  0.5258330000000  0.4165790000000 1.0
C      1  0.4728070000000  0.4741650000000  0.5834360000000 1.0
C      1  0.4935990000000  0.5181150000000  0.5496720000000 1.0
C      1  0.4935740000000  0.4818850000000  0.4503320000000 1.0
C      1  0.4899360000000  0.4865400000000  0.5490380000000 1.0
C      1  0.4899090000000  0.5134600000000  0.4509670000000 1.0
C      1  0.5153480000000  0.5544890000000  0.5461850000000 1.0
C      1  0.5153270000000  0.4455120000000  0.4538070000000 1.0
C      1  0.5144410000000  0.4466450000000  0.5465230000000 1.0
C      1  0.5144130000000  0.5533560000000  0.4534700000000 1.0
C      1  0.4354440000000  0.5473090000000  0.4437490000000 1.0
C      1  0.4354780000000  0.4526870000000  0.5562860000000 1.0
C      1  0.4411530000000  0.4535380000000  0.4389120000000 1.0
C      1  0.4411830000000  0.5464580000000  0.5611200000000 1.0
C      1  0.5831010000000  0.5167490000000  0.5108190000000 1.0
C      1  0.5830960000000  0.4832570000000  0.4891370000000 1.0
C      1  0.5835600000000  0.4848600000000  0.5228110000000 1.0
C      1  0.5835470000000  0.5151450000000  0.4771440000000 1.0
C      1  0.4696220000000  0.5707100000000  0.4731200000000 1.0
C      1  0.4696410000000  0.4292880000000  0.5268960000000 1.0
C      1  0.4687660000000  0.4290100000000  0.4721720000000 1.0
C      1  0.4687770000000  0.5709880000000  0.5278450000000 1.0
C      1  0.5487770000000  0.5157190000000  0.4296080000000 1.0
C      1  0.5488160000000  0.4842840000000  0.5703660000000 1.0
C      1  0.5517180000000  0.4836240000000  0.4350650000000 1.0
C      1  0.5517520000000  0.5163790000000  0.5649080000000 1.0
C      1  0.5178930000000  0.3861950000000  0.5007490000000 1.0
C      1  0.5178850000000  0.6138070000000  0.4992420000000 1.0
END
