TITL C-2782238-9940-108 -0.0510093952694272 125000 -761.828075476736 0 0 129 (C1) n - 1
REM
REM in /home/nfs/bkarasulu/CARBON/AIRSS/Generating-Clusters/REBO/Higher-Symm/SD-CG/HFTN-CG
REM
REM
REM
REM
REM
REM ./C.cell (12c818d87b63d06a65506943cc24bca4)
REM
REM compiler GCC version 9.2.1 20190827 (Red Hat 9.2.1-1)
REM options -cpp -mtune=generic -march=x86-64 -g -O0 -fpre-include=/usr/include/finclude/math-vector-fortran.h
REM seed 377697429 544431131 580136733 -1408329805 -872292479 -797000347 -1653665619 1803002493 -315766845 30661153 108846492 -1826460002 -1280547333 -1118151600 -1408748052 -459561983 -1908086273 188707445 1690726636 340275937 692748273 685063798 -86995504 1457738282 1043561749 1467586862 1418938909 -973811052 -167409488 941347191 2059024022 99419553 559360451
REM
CELL 1.54180   50.00000   50.00000   50.00000   90.00000   90.00000   90.00000
LATT -1
SFAC C  
C      1  0.3923420000000  0.4717610000000  0.5388740000000 1.0
C      1  0.4336790000000  0.5190080000000  0.5810290000000 1.0
C      1  0.5244080000000  0.5788300000000  0.5073500000000 1.0
C      1  0.5828480000000  0.4732510000000  0.4489570000000 1.0
C      1  0.4449760000000  0.5536890000000  0.4430970000000 1.0
C      1  0.4187400000000  0.5203040000000  0.4688240000000 1.0
C      1  0.5958100000000  0.4721920000000  0.4752990000000 1.0
C      1  0.5018320000000  0.5932720000000  0.5176470000000 1.0
C      1  0.5490520000000  0.4677240000000  0.5646960000000 1.0
C      1  0.5155660000000  0.4149000000000  0.4512820000000 1.0
C      1  0.4244790000000  0.5532900000000  0.5245640000000 1.0
C      1  0.4534510000000  0.5274700000000  0.5337150000000 1.0
C      1  0.5549790000000  0.5824160000000  0.5085950000000 1.0
C      1  0.5647190000000  0.4325870000000  0.4766620000000 1.0
C      1  0.5484030000000  0.5502030000000  0.4858710000000 1.0
C      1  0.4650770000000  0.5052260000000  0.5008470000000 1.0
C      1  0.4682730000000  0.4475540000000  0.5004850000000 1.0
C      1  0.5279480000000  0.4928140000000  0.4414210000000 1.0
C      1  0.5877230000000  0.5234470000000  0.5068300000000 1.0
C      1  0.4744840000000  0.4806610000000  0.4057330000000 1.0
C      1  0.4456550000000  0.4432830000000  0.4539770000000 1.0
C      1  0.4231190000000  0.4932480000000  0.4760390000000 1.0
C      1  0.5177580000000  0.5311850000000  0.5854140000000 1.0
C      1  0.5069100000000  0.5178180000000  0.4447780000000 1.0
C      1  0.5220290000000  0.4223850000000  0.5470880000000 1.0
C      1  0.5038090000000  0.5621710000000  0.4672550000000 1.0
C      1  0.5304300000000  0.4895960000000  0.5518770000000 1.0
C      1  0.4423310000000  0.4762970000000  0.4453500000000 1.0
C      1  0.5319720000000  0.4773580000000  0.4697260000000 1.0
C      1  0.4728320000000  0.5538240000000  0.4256140000000 1.0
C      1  0.4188090000000  0.4614730000000  0.4647010000000 1.0
C      1  0.4429180000000  0.4611700000000  0.5075150000000 1.0
C      1  0.4769270000000  0.5818970000000  0.4718380000000 1.0
C      1  0.5536890000000  0.4961860000000  0.4843760000000 1.0
C      1  0.4561330000000  0.5045670000000  0.4568700000000 1.0
C      1  0.5808370000000  0.4628470000000  0.5287620000000 1.0
C      1  0.4631300000000  0.5311820000000  0.4707280000000 1.0
C      1  0.5526190000000  0.5400730000000  0.4551820000000 1.0
C      1  0.4906510000000  0.5264340000000  0.4159470000000 1.0
C      1  0.5795840000000  0.4557330000000  0.4969630000000 1.0
C      1  0.4717790000000  0.4509240000000  0.4708580000000 1.0
C      1  0.4722050000000  0.4362980000000  0.4335200000000 1.0
C      1  0.4676280000000  0.4326860000000  0.5472190000000 1.0
C      1  0.5326460000000  0.4213730000000  0.4715120000000 1.0
C      1  0.5764440000000  0.5005290000000  0.4391480000000 1.0
C      1  0.5903140000000  0.4869950000000  0.5409850000000 1.0
C      1  0.4714820000000  0.4918270000000  0.5918850000000 1.0
C      1  0.4518710000000  0.5633880000000  0.4715900000000 1.0
C      1  0.4931330000000  0.5089690000000  0.5915970000000 1.0
C      1  0.4662440000000  0.5075060000000  0.4085540000000 1.0
C      1  0.5020740000000  0.4732770000000  0.5512470000000 1.0
C      1  0.4774530000000  0.5927320000000  0.5005140000000 1.0
C      1  0.4872230000000  0.5404570000000  0.4530840000000 1.0
C      1  0.5747910000000  0.5726340000000  0.4871350000000 1.0
C      1  0.5181650000000  0.5081100000000  0.4077540000000 1.0
C      1  0.4148680000000  0.5370850000000  0.4959180000000 1.0
C      1  0.5284460000000  0.5760610000000  0.5566170000000 1.0
C      1  0.4288480000000  0.5302460000000  0.4432350000000 1.0
C      1  0.5064220000000  0.5568450000000  0.5724460000000 1.0
C      1  0.5420170000000  0.4942560000000  0.6074440000000 1.0
C      1  0.4825350000000  0.5585180000000  0.5204850000000 1.0
C      1  0.4945070000000  0.4603860000000  0.5143000000000 1.0
C      1  0.5324800000000  0.4539150000000  0.4489310000000 1.0
C      1  0.5553120000000  0.5169370000000  0.5292340000000 1.0
C      1  0.4722630000000  0.4222020000000  0.5184710000000 1.0
C      1  0.5816140000000  0.5080720000000  0.4851350000000 1.0
C      1  0.5078400000000  0.5115050000000  0.5609080000000 1.0
C      1  0.5195170000000  0.4150530000000  0.5079420000000 1.0
C      1  0.4748190000000  0.5107480000000  0.5542940000000 1.0
C      1  0.4828310000000  0.5843730000000  0.5431950000000 1.0
C      1  0.4606220000000  0.4623850000000  0.4224060000000 1.0
C      1  0.5535430000000  0.4158640000000  0.5044760000000 1.0
C      1  0.4526530000000  0.4522170000000  0.5612320000000 1.0
C      1  0.5283010000000  0.5346390000000  0.5259140000000 1.0
C      1  0.4583660000000  0.5331370000000  0.5727760000000 1.0
C      1  0.4198370000000  0.5224160000000  0.5327820000000 1.0
C      1  0.4656180000000  0.5366900000000  0.5043020000000 1.0
C      1  0.4793360000000  0.4822530000000  0.4592810000000 1.0
C      1  0.4740870000000  0.5621720000000  0.5675480000000 1.0
C      1  0.5490560000000  0.5111050000000  0.4219500000000 1.0
C      1  0.5349750000000  0.5165930000000  0.4645060000000 1.0
C      1  0.5672220000000  0.5193860000000  0.5756280000000 1.0
C      1  0.4847600000000  0.5815610000000  0.4386780000000 1.0
C      1  0.5063820000000  0.4790300000000  0.4050750000000 1.0
C      1  0.5170560000000  0.4482370000000  0.4130010000000 1.0
C      1  0.4421420000000  0.4895370000000  0.4980440000000 1.0
C      1  0.4989100000000  0.4276780000000  0.4309890000000 1.0
C      1  0.5745950000000  0.5090590000000  0.5502770000000 1.0
C      1  0.5368690000000  0.4703450000000  0.5932340000000 1.0
C      1  0.5474610000000  0.5439100000000  0.4254500000000 1.0
C      1  0.5380220000000  0.4920920000000  0.5207990000000 1.0
C      1  0.5476570000000  0.5621350000000  0.5349600000000 1.0
C      1  0.4664070000000  0.4796070000000  0.5622910000000 1.0
C      1  0.3989120000000  0.4798060000000  0.5123810000000 1.0
C      1  0.4047840000000  0.4680320000000  0.5627260000000 1.0
C      1  0.4917850000000  0.3779680000000  0.5194080000000 1.0
C      1  0.4948220000000  0.4046060000000  0.5142800000000 1.0
C      1  0.4913550000000  0.4999610000000  0.4851390000000 1.0
C      1  0.5030710000000  0.4508010000000  0.4632620000000 1.0
C      1  0.4301750000000  0.4687120000000  0.5750550000000 1.0
C      1  0.5499940000000  0.4686540000000  0.5040150000000 1.0
C      1  0.5090470000000  0.5209390000000  0.5036630000000 1.0
C      1  0.5868410000000  0.5201320000000  0.4590740000000 1.0
C      1  0.5130750000000  0.4579360000000  0.5791420000000 1.0
C      1  0.4406490000000  0.4920070000000  0.5899910000000 1.0
C      1  0.5468950000000  0.4273670000000  0.5348140000000 1.0
C      1  0.4980750000000  0.4673640000000  0.4350770000000 1.0
C      1  0.5608560000000  0.4502090000000  0.5446480000000 1.0
C      1  0.5147140000000  0.4297950000000  0.5750120000000 1.0
C      1  0.4050650000000  0.5072020000000  0.5091130000000 1.0
C      1  0.5822010000000  0.5514940000000  0.4648440000000 1.0
C      1  0.5451470000000  0.5191860000000  0.5937280000000 1.0
C      1  0.5647250000000  0.5440120000000  0.5129700000000 1.0
C      1  0.4443850000000  0.5107400000000  0.4259810000000 1.0
C      1  0.4540240000000  0.5784960000000  0.5162790000000 1.0
C      1  0.4330500000000  0.5657990000000  0.4947430000000 1.0
C      1  0.5044770000000  0.4921380000000  0.5219230000000 1.0
C      1  0.5711240000000  0.4464430000000  0.4461400000000 1.0
C      1  0.5179160000000  0.5515680000000  0.4913680000000 1.0
C      1  0.5326220000000  0.4444860000000  0.4970560000000 1.0
C      1  0.5059760000000  0.4724310000000  0.4873740000000 1.0
C      1  0.5156550000000  0.5777840000000  0.4392330000000 1.0
C      1  0.4981590000000  0.4424780000000  0.5409060000000 1.0
C      1  0.5334690000000  0.5665290000000  0.4207150000000 1.0
C      1  0.5086260000000  0.5547270000000  0.5385460000000 1.0
C      1  0.4507330000000  0.5598220000000  0.5443210000000 1.0
C      1  0.5486140000000  0.4443020000000  0.4247400000000 1.0
C      1  0.4118110000000  0.5201830000000  0.5626250000000 1.0
C      1  0.4145900000000  0.4606090000000  0.4971790000000 1.0
END
