TITL C-2782234-8014-922 -0.00590156950232044 125000 -878.265171664947 0 0 152 (C1) n - 1
REM
REM in /home/nfs/bkarasulu/CARBON/AIRSS/Generating-Clusters/REBO/Higher-Symm/SD-CG/HFTN-CG
REM
REM
REM
REM
REM
REM ./C.cell (12c818d87b63d06a65506943cc24bca4)
REM
REM compiler GCC version 9.2.1 20190827 (Red Hat 9.2.1-1)
REM options -cpp -mtune=generic -march=x86-64 -g -O0 -fpre-include=/usr/include/finclude/math-vector-fortran.h
REM seed -1417049785 1558473402 203927875 -836865034 -1165663959 -158702918 859756508 91153165 -1502258294 -136490993 -1459784688 341809241 -1586078232 894941417 -1047652912 -819016871 1797160959 1462472483 -415606924 -1609109117 -1992022956 1457651758 -609217949 675664097 -2051093032 942038392 2102459278 -1836626288 -1697503069 -200509549 845026724 418507628 -1712285119
REM
CELL 1.54180   50.00000   50.00000   50.00000   90.00000   90.00000   90.00000
LATT -1
SFAC C  
C      1  0.5506940000000  0.4327630000000  0.4276870000000 1.0
C      1  0.4765530000000  0.5109820000000  0.4952390000000 1.0
C      1  0.4863360000000  0.4359580000000  0.4007250000000 1.0
C      1  0.5629730000000  0.5680660000000  0.4944740000000 1.0
C      1  0.4833530000000  0.4207540000000  0.4897510000000 1.0
C      1  0.4877250000000  0.5208540000000  0.4644090000000 1.0
C      1  0.4908880000000  0.4724300000000  0.4926670000000 1.0
C      1  0.4071390000000  0.5206700000000  0.5253340000000 1.0
C      1  0.5262610000000  0.5215950000000  0.5104680000000 1.0
C      1  0.4296050000000  0.4435110000000  0.5620560000000 1.0
C      1  0.5932000000000  0.5029240000000  0.5590910000000 1.0
C      1  0.4013120000000  0.5017370000000  0.4811150000000 1.0
C      1  0.5779290000000  0.5512190000000  0.5616680000000 1.0
C      1  0.4506660000000  0.5827570000000  0.4305320000000 1.0
C      1  0.4347690000000  0.4072280000000  0.4951450000000 1.0
C      1  0.4017960000000  0.5326270000000  0.4768770000000 1.0
C      1  0.4246780000000  0.4961900000000  0.5661210000000 1.0
C      1  0.6114830000000  0.5128490000000  0.5411610000000 1.0
C      1  0.4533870000000  0.4834620000000  0.5559770000000 1.0
C      1  0.4433050000000  0.4371580000000  0.5347140000000 1.0
C      1  0.4357900000000  0.5335650000000  0.4798970000000 1.0
C      1  0.5840680000000  0.4167820000000  0.5016310000000 1.0
C      1  0.4661780000000  0.4278400000000  0.5661400000000 1.0
C      1  0.5562500000000  0.5116120000000  0.5205730000000 1.0
C      1  0.5543600000000  0.5946570000000  0.5481160000000 1.0
C      1  0.4601920000000  0.4775150000000  0.5911500000000 1.0
C      1  0.5114010000000  0.5050170000000  0.4477380000000 1.0
C      1  0.5161470000000  0.4606140000000  0.5128800000000 1.0
C      1  0.5538490000000  0.5982260000000  0.4906270000000 1.0
C      1  0.5100340000000  0.4151710000000  0.5080230000000 1.0
C      1  0.4753630000000  0.4148120000000  0.5427430000000 1.0
C      1  0.5295840000000  0.6060670000000  0.5039640000000 1.0
C      1  0.4603430000000  0.4154450000000  0.5142150000000 1.0
C      1  0.4278250000000  0.5131470000000  0.4536050000000 1.0
C      1  0.5096290000000  0.5823830000000  0.5315890000000 1.0
C      1  0.4533740000000  0.5314180000000  0.5020180000000 1.0
C      1  0.5142100000000  0.5492360000000  0.5100930000000 1.0
C      1  0.4912660000000  0.5772810000000  0.4402390000000 1.0
C      1  0.5120870000000  0.4476150000000  0.4067600000000 1.0
C      1  0.5646350000000  0.4420800000000  0.4923320000000 1.0
C      1  0.5147700000000  0.4531120000000  0.4337470000000 1.0
C      1  0.5849070000000  0.5009510000000  0.4947850000000 1.0
C      1  0.5375750000000  0.5688370000000  0.5896770000000 1.0
C      1  0.5305290000000  0.5009150000000  0.5491400000000 1.0
C      1  0.5511420000000  0.4978090000000  0.4904570000000 1.0
C      1  0.5246950000000  0.4646030000000  0.5960820000000 1.0
C      1  0.4833350000000  0.5025530000000  0.5961820000000 1.0
C      1  0.5744620000000  0.5345730000000  0.5318270000000 1.0
C      1  0.4862100000000  0.4544000000000  0.4478460000000 1.0
C      1  0.4606420000000  0.4868010000000  0.4176940000000 1.0
C      1  0.4678500000000  0.5394380000000  0.5504110000000 1.0
C      1  0.5674800000000  0.4614300000000  0.5766330000000 1.0
C      1  0.4079350000000  0.5424740000000  0.5071650000000 1.0
C      1  0.5476480000000  0.5376060000000  0.4915510000000 1.0
C      1  0.4774560000000  0.5485590000000  0.4524210000000 1.0
C      1  0.4540900000000  0.5055400000000  0.5211750000000 1.0
C      1  0.5793340000000  0.4695520000000  0.4905080000000 1.0
C      1  0.5234010000000  0.4234480000000  0.5556870000000 1.0
C      1  0.5589200000000  0.5461000000000  0.4613130000000 1.0
C      1  0.5027210000000  0.4071760000000  0.4385370000000 1.0
C      1  0.4212780000000  0.4232750000000  0.5163390000000 1.0
C      1  0.5010940000000  0.5755420000000  0.4106750000000 1.0
C      1  0.4814740000000  0.5031700000000  0.4004350000000 1.0
C      1  0.4697440000000  0.5350540000000  0.4057590000000 1.0
C      1  0.4904300000000  0.4688190000000  0.5544450000000 1.0
C      1  0.5379600000000  0.5694640000000  0.5175920000000 1.0
C      1  0.4717390000000  0.4531870000000  0.5739250000000 1.0
C      1  0.5339790000000  0.5134320000000  0.4273320000000 1.0
C      1  0.5365820000000  0.4606310000000  0.4524890000000 1.0
C      1  0.5064840000000  0.5046330000000  0.5267330000000 1.0
C      1  0.5534500000000  0.4831700000000  0.5365460000000 1.0
C      1  0.4804940000000  0.4859360000000  0.5268620000000 1.0
C      1  0.4109780000000  0.4549490000000  0.4809260000000 1.0
C      1  0.5298590000000  0.4087700000000  0.4740150000000 1.0
C      1  0.5312590000000  0.4879520000000  0.4648600000000 1.0
C      1  0.5833510000000  0.4598910000000  0.5230700000000 1.0
C      1  0.5531560000000  0.4654610000000  0.5992800000000 1.0
C      1  0.4896830000000  0.4839130000000  0.4342210000000 1.0
C      1  0.5662570000000  0.5029400000000  0.4325630000000 1.0
C      1  0.4286880000000  0.4801240000000  0.4162310000000 1.0
C      1  0.4127410000000  0.4984190000000  0.4294380000000 1.0
C      1  0.4602680000000  0.5575990000000  0.5159270000000 1.0
C      1  0.4726990000000  0.4902970000000  0.4698230000000 1.0
C      1  0.5805510000000  0.4311570000000  0.5271720000000 1.0
C      1  0.5288890000000  0.4160950000000  0.4283930000000 1.0
C      1  0.4814650000000  0.4984090000000  0.5647430000000 1.0
C      1  0.4788280000000  0.5977760000000  0.5056190000000 1.0
C      1  0.4801440000000  0.4130520000000  0.4219950000000 1.0
C      1  0.5591940000000  0.5763300000000  0.5721420000000 1.0
C      1  0.4227630000000  0.4357490000000  0.4479540000000 1.0
C      1  0.4325700000000  0.4226960000000  0.4715980000000 1.0
C      1  0.5104470000000  0.5650610000000  0.4842550000000 1.0
C      1  0.4021600000000  0.4406730000000  0.5042020000000 1.0
C      1  0.4391090000000  0.4736590000000  0.5022480000000 1.0
C      1  0.4200250000000  0.4647540000000  0.5706860000000 1.0
C      1  0.4465500000000  0.5560570000000  0.4597710000000 1.0
C      1  0.4577560000000  0.5984480000000  0.4860690000000 1.0
C      1  0.5385140000000  0.5393870000000  0.5984300000000 1.0
C      1  0.5493070000000  0.4532930000000  0.5507300000000 1.0
C      1  0.4691540000000  0.5313960000000  0.5835440000000 1.0
C      1  0.4760990000000  0.4496090000000  0.4764550000000 1.0
C      1  0.5086160000000  0.4863130000000  0.6055490000000 1.0
C      1  0.4274110000000  0.5065350000000  0.5366320000000 1.0
C      1  0.5432920000000  0.5176650000000  0.5737500000000 1.0
C      1  0.5163250000000  0.5343830000000  0.5656360000000 1.0
C      1  0.4227780000000  0.4946400000000  0.4988090000000 1.0
C      1  0.5106280000000  0.5594120000000  0.5779900000000 1.0
C      1  0.4409680000000  0.4567650000000  0.4350990000000 1.0
C      1  0.5030750000000  0.4062960000000  0.4672820000000 1.0
C      1  0.5205830000000  0.4857610000000  0.4944220000000 1.0
C      1  0.4458900000000  0.5080980000000  0.5870620000000 1.0
C      1  0.4264960000000  0.5622650000000  0.5154580000000 1.0
C      1  0.5054670000000  0.5930160000000  0.4932570000000 1.0
C      1  0.5180770000000  0.4607550000000  0.5424350000000 1.0
C      1  0.4450200000000  0.4530690000000  0.4782870000000 1.0
C      1  0.4525470000000  0.4663350000000  0.5286740000000 1.0
C      1  0.4979240000000  0.5260910000000  0.4166570000000 1.0
C      1  0.5769070000000  0.5179080000000  0.4676080000000 1.0
C      1  0.5500970000000  0.5644600000000  0.4355210000000 1.0
C      1  0.4163090000000  0.5449920000000  0.4485990000000 1.0
C      1  0.5747870000000  0.4844470000000  0.4599170000000 1.0
C      1  0.4896510000000  0.5547490000000  0.5290400000000 1.0
C      1  0.5111060000000  0.4875670000000  0.4079510000000 1.0
C      1  0.4491380000000  0.4869020000000  0.4498740000000 1.0
C      1  0.5816900000000  0.4765140000000  0.5514540000000 1.0
C      1  0.4945010000000  0.5213310000000  0.5505350000000 1.0
C      1  0.3955100000000  0.4762320000000  0.4696700000000 1.0
C      1  0.4620270000000  0.5563980000000  0.4230130000000 1.0
C      1  0.5820400000000  0.5405520000000  0.4930270000000 1.0
C      1  0.5247430000000  0.5836540000000  0.4411110000000 1.0
C      1  0.5988910000000  0.5223190000000  0.5142040000000 1.0
C      1  0.5675620000000  0.5343870000000  0.4317850000000 1.0
C      1  0.5376740000000  0.4036460000000  0.5227470000000 1.0
C      1  0.4673190000000  0.5785460000000  0.5581670000000 1.0
C      1  0.5652640000000  0.5660620000000  0.5342260000000 1.0
C      1  0.5546520000000  0.4231630000000  0.5421900000000 1.0
C      1  0.5147840000000  0.5484120000000  0.4259330000000 1.0
C      1  0.5420160000000  0.4380340000000  0.4707070000000 1.0
C      1  0.4656910000000  0.4427570000000  0.4267170000000 1.0
C      1  0.5323210000000  0.6052110000000  0.5344110000000 1.0
C      1  0.4815100000000  0.5629860000000  0.5792660000000 1.0
C      1  0.5320770000000  0.4373100000000  0.5018900000000 1.0
C      1  0.4427490000000  0.5618420000000  0.5451410000000 1.0
C      1  0.5427200000000  0.5422430000000  0.4113730000000 1.0
C      1  0.5188970000000  0.5563150000000  0.4589630000000 1.0
C      1  0.4797210000000  0.5926690000000  0.5363690000000 1.0
C      1  0.5627760000000  0.4637850000000  0.4350290000000 1.0
C      1  0.5175910000000  0.4472650000000  0.5742980000000 1.0
C      1  0.5442990000000  0.4839520000000  0.4144700000000 1.0
C      1  0.4482960000000  0.5880330000000  0.4616040000000 1.0
C      1  0.5738310000000  0.5211840000000  0.5694520000000 1.0
C      1  0.5028490000000  0.4144470000000  0.5388640000000 1.0
END
