TITL C-2782238-9940-1137 -0.00286611176101154 125000 -1177.14872388473 0 0 197 (C1) n - 1
REM
REM in /home/nfs/bkarasulu/CARBON/AIRSS/Generating-Clusters/REBO/Higher-Symm/SD-CG/HFTN-CG
REM
REM
REM
REM
REM
REM ./C.cell (12c818d87b63d06a65506943cc24bca4)
REM
REM compiler GCC version 9.2.1 20190827 (Red Hat 9.2.1-1)
REM options -cpp -mtune=generic -march=x86-64 -g -O0 -fpre-include=/usr/include/finclude/math-vector-fortran.h
REM seed 11806409 -870231014 -243253338 -311878470 924019458 -1367113180 -1694940518 1421408753 879246511 282075785 -1791731338 -730583359 -1332337569 1877524855 1702731957 -1060207761 -128600847 851194619 -434449279 47552492 -1904430450 1484873881 376201258 521497599 1787225787 471113301 -1384830407 1156929300 939846749 1937381414 -674257801 -1547538091 -33446837
REM
CELL 1.54180   50.00000   50.00000   50.00000   90.00000   90.00000   90.00000
LATT -1
SFAC C  
C      1  0.5472130000000  0.5863720000000  0.5456500000000 1.0
C      1  0.4684720000000  0.5842300000000  0.5571680000000 1.0
C      1  0.4340550000000  0.5911540000000  0.4856670000000 1.0
C      1  0.4938420000000  0.5854890000000  0.4324410000000 1.0
C      1  0.5603930000000  0.5849110000000  0.4698140000000 1.0
C      1  0.4554030000000  0.4114390000000  0.5488310000000 1.0
C      1  0.5315960000000  0.4124820000000  0.5602870000000 1.0
C      1  0.5678170000000  0.4148830000000  0.4917840000000 1.0
C      1  0.5133880000000  0.4123850000000  0.4345770000000 1.0
C      1  0.4427410000000  0.4174120000000  0.4724690000000 1.0
C      1  0.4088160000000  0.5143320000000  0.5610140000000 1.0
C      1  0.4148030000000  0.5154860000000  0.4403700000000 1.0
C      1  0.5317240000000  0.5153540000000  0.3958170000000 1.0
C      1  0.6075770000000  0.5155730000000  0.4994420000000 1.0
C      1  0.5286400000000  0.5133100000000  0.6030300000000 1.0
C      1  0.5862310000000  0.4861020000000  0.5616650000000 1.0
C      1  0.5856920000000  0.4855760000000  0.4334590000000 1.0
C      1  0.4628810000000  0.4844400000000  0.3958020000000 1.0
C      1  0.3945460000000  0.4876300000000  0.5065640000000 1.0
C      1  0.4644810000000  0.4796270000000  0.5991780000000 1.0
C      1  0.4449680000000  0.5240710000000  0.4296990000000 1.0
C      1  0.5477670000000  0.5244310000000  0.4232260000000 1.0
C      1  0.5862180000000  0.5213330000000  0.5247250000000 1.0
C      1  0.5005230000000  0.5180070000000  0.5885220000000 1.0
C      1  0.4142330000000  0.5262920000000  0.5310410000000 1.0
C      1  0.5544720000000  0.4774940000000  0.4268160000000 1.0
C      1  0.4494070000000  0.4732820000000  0.4239780000000 1.0
C      1  0.4074710000000  0.4716020000000  0.5320360000000 1.0
C      1  0.4933250000000  0.4741600000000  0.5859850000000 1.0
C      1  0.5848530000000  0.4814730000000  0.5299550000000 1.0
C      1  0.5163100000000  0.4882200000000  0.5340300000000 1.0
C      1  0.4556840000000  0.4883840000000  0.5266710000000 1.0
C      1  0.4645030000000  0.4942080000000  0.4727570000000 1.0
C      1  0.5142730000000  0.4929030000000  0.4673150000000 1.0
C      1  0.5447570000000  0.4884710000000  0.4975070000000 1.0
C      1  0.4809070000000  0.5054170000000  0.5390620000000 1.0
C      1  0.5283060000000  0.5169390000000  0.5195790000000 1.0
C      1  0.5389560000000  0.5115310000000  0.4750750000000 1.0
C      1  0.4891770000000  0.5035370000000  0.4573590000000 1.0
C      1  0.4663360000000  0.5142430000000  0.4981720000000 1.0
C      1  0.5402140000000  0.4565560000000  0.5336960000000 1.0
C      1  0.4759990000000  0.4578180000000  0.5422680000000 1.0
C      1  0.4488460000000  0.4591640000000  0.5003170000000 1.0
C      1  0.4917650000000  0.4590910000000  0.4495790000000 1.0
C      1  0.5445650000000  0.4586780000000  0.4709950000000 1.0
C      1  0.4517040000000  0.5390780000000  0.5364620000000 1.0
C      1  0.5169260000000  0.5427290000000  0.5471940000000 1.0
C      1  0.5528050000000  0.5429780000000  0.4953200000000 1.0
C      1  0.5070060000000  0.5384920000000  0.4502970000000 1.0
C      1  0.4583740000000  0.5457920000000  0.4749930000000 1.0
C      1  0.5119050000000  0.4481930000000  0.5973290000000 1.0
C      1  0.4089120000000  0.4398340000000  0.5442770000000 1.0
C      1  0.4277590000000  0.4506030000000  0.4339190000000 1.0
C      1  0.5439140000000  0.4508410000000  0.4089870000000 1.0
C      1  0.5976900000000  0.4536120000000  0.5148350000000 1.0
C      1  0.4827210000000  0.5462360000000  0.5958940000000 1.0
C      1  0.5855820000000  0.5485680000000  0.5453200000000 1.0
C      1  0.5668310000000  0.5527360000000  0.4260340000000 1.0
C      1  0.4526440000000  0.5531600000000  0.4134230000000 1.0
C      1  0.4043690000000  0.5557950000000  0.5181190000000 1.0
C      1  0.5866630000000  0.4586060000000  0.4507640000000 1.0
C      1  0.5705880000000  0.4587050000000  0.5683360000000 1.0
C      1  0.4509790000000  0.4517370000000  0.5851160000000 1.0
C      1  0.4047740000000  0.4594580000000  0.4940230000000 1.0
C      1  0.4797510000000  0.4575530000000  0.4028500000000 1.0
C      1  0.4176490000000  0.5436440000000  0.4547400000000 1.0
C      1  0.4249070000000  0.5424830000000  0.5659460000000 1.0
C      1  0.5389050000000  0.5407880000000  0.5897670000000 1.0
C      1  0.5989690000000  0.5441090000000  0.4844470000000 1.0
C      1  0.5171360000000  0.5432340000000  0.4029280000000 1.0
C      1  0.4503450000000  0.5387300000000  0.5882540000000 1.0
C      1  0.4050940000000  0.5440850000000  0.4864410000000 1.0
C      1  0.4829170000000  0.5414450000000  0.4015220000000 1.0
C      1  0.5863080000000  0.5424500000000  0.4526350000000 1.0
C      1  0.5667200000000  0.5398070000000  0.5723070000000 1.0
C      1  0.5430480000000  0.4588530000000  0.5883450000000 1.0
C      1  0.5991330000000  0.4602750000000  0.4814700000000 1.0
C      1  0.5129920000000  0.4592300000000  0.3974870000000 1.0
C      1  0.4132100000000  0.4621060000000  0.4624280000000 1.0
C      1  0.4204940000000  0.4579900000000  0.5707700000000 1.0
C      1  0.4787920000000  0.3871730000000  0.5087590000000 1.0
C      1  0.4864350000000  0.3884190000000  0.4813180000000 1.0
C      1  0.5151630000000  0.3876630000000  0.4799910000000 1.0
C      1  0.5253740000000  0.3868950000000  0.5069200000000 1.0
C      1  0.5026660000000  0.3863450000000  0.5247640000000 1.0
C      1  0.5242910000000  0.6129500000000  0.5066980000000 1.0
C      1  0.5179370000000  0.6130240000000  0.4786770000000 1.0
C      1  0.4897650000000  0.6168660000000  0.4756100000000 1.0
C      1  0.4783170000000  0.6194670000000  0.5025390000000 1.0
C      1  0.4999710000000  0.6152020000000  0.5219970000000 1.0
C      1  0.5888490000000  0.5595670000000  0.5042630000000 1.0
C      1  0.5220390000000  0.5596550000000  0.5830000000000 1.0
C      1  0.4209440000000  0.5621730000000  0.5471070000000 1.0
C      1  0.4341160000000  0.5605060000000  0.4416870000000 1.0
C      1  0.5351780000000  0.5611210000000  0.4142800000000 1.0
C      1  0.4116320000000  0.4388730000000  0.5099060000000 1.0
C      1  0.4805110000000  0.4364000000000  0.5885940000000 1.0
C      1  0.5718850000000  0.4391280000000  0.5507000000000 1.0
C      1  0.5693390000000  0.4396470000000  0.4460260000000 1.0
C      1  0.4707630000000  0.4390170000000  0.4189230000000 1.0
C      1  0.4619240000000  0.4608500000000  0.4510810000000 1.0
C      1  0.5310410000000  0.4626540000000  0.4444710000000 1.0
C      1  0.5640710000000  0.4598870000000  0.5175010000000 1.0
C      1  0.5009620000000  0.4564490000000  0.5600340000000 1.0
C      1  0.4381440000000  0.4619250000000  0.5289760000000 1.0
C      1  0.5365600000000  0.5412030000000  0.4487810000000 1.0
C      1  0.4671920000000  0.5388030000000  0.4474660000000 1.0
C      1  0.4500550000000  0.5630800000000  0.5197460000000 1.0
C      1  0.4939930000000  0.5384570000000  0.5640770000000 1.0
C      1  0.5597080000000  0.5411130000000  0.5240660000000 1.0
C      1  0.5764660000000  0.5778910000000  0.5303230000000 1.0
C      1  0.4921410000000  0.5750500000000  0.5799400000000 1.0
C      1  0.4184570000000  0.5865680000000  0.5156310000000 1.0
C      1  0.4616450000000  0.5835640000000  0.4257510000000 1.0
C      1  0.5577890000000  0.5830230000000  0.4376230000000 1.0
C      1  0.4259720000000  0.4126840000000  0.5355400000000 1.0
C      1  0.5086890000000  0.4177390000000  0.5833700000000 1.0
C      1  0.5815290000000  0.4242520000000  0.5216150000000 1.0
C      1  0.5449380000000  0.4241970000000  0.4298930000000 1.0
C      1  0.4477890000000  0.4248630000000  0.4396380000000 1.0
C      1  0.5281850000000  0.5622830000000  0.5006190000000 1.0
C      1  0.5072280000000  0.5637550000000  0.5253730000000 1.0
C      1  0.4787950000000  0.5727420000000  0.5109860000000 1.0
C      1  0.4813140000000  0.5675070000000  0.4802680000000 1.0
C      1  0.5112220000000  0.5616140000000  0.4736530000000 1.0
C      1  0.4730280000000  0.4383130000000  0.5023580000000 1.0
C      1  0.4959680000000  0.4351820000000  0.5265760000000 1.0
C      1  0.5249400000000  0.4364870000000  0.5141810000000 1.0
C      1  0.5227900000000  0.4377150000000  0.4825110000000 1.0
C      1  0.4919070000000  0.4398370000000  0.4749920000000 1.0
C      1  0.4363070000000  0.4861880000000  0.4844290000000 1.0
C      1  0.5073030000000  0.4821320000000  0.4295450000000 1.0
C      1  0.5675780000000  0.4838050000000  0.4750890000000 1.0
C      1  0.5390500000000  0.4822770000000  0.5562570000000 1.0
C      1  0.4564730000000  0.4806590000000  0.5587470000000 1.0
C      1  0.5694270000000  0.5179760000000  0.4791930000000 1.0
C      1  0.4962930000000  0.5147350000000  0.4281170000000 1.0
C      1  0.4364540000000  0.5205850000000  0.4814670000000 1.0
C      1  0.4550160000000  0.5141040000000  0.5572860000000 1.0
C      1  0.5383570000000  0.5161840000000  0.5520950000000 1.0
C      1  0.4816930000000  0.4137690000000  0.4359140000000 1.0
C      1  0.5580330000000  0.4140180000000  0.4618780000000 1.0
C      1  0.5567840000000  0.4112160000000  0.5424910000000 1.0
C      1  0.4797120000000  0.4100420000000  0.5669720000000 1.0
C      1  0.4307080000000  0.4130830000000  0.5016160000000 1.0
C      1  0.5246260000000  0.5875680000000  0.4308550000000 1.0
C      1  0.4449530000000  0.5888290000000  0.4552130000000 1.0
C      1  0.4407970000000  0.5878680000000  0.5412820000000 1.0
C      1  0.5206410000000  0.5856290000000  0.5628180000000 1.0
C      1  0.5692870000000  0.5863950000000  0.4979850000000 1.0
C      1  0.4343270000000  0.5589270000000  0.4919820000000 1.0
C      1  0.4885700000000  0.5543540000000  0.4303170000000 1.0
C      1  0.5583920000000  0.5534490000000  0.4650510000000 1.0
C      1  0.5465990000000  0.5549480000000  0.5500670000000 1.0
C      1  0.4653410000000  0.5523370000000  0.5608810000000 1.0
C      1  0.5687910000000  0.4465490000000  0.4885480000000 1.0
C      1  0.5096950000000  0.4427300000000  0.4270510000000 1.0
C      1  0.4422050000000  0.4492600000000  0.4708300000000 1.0
C      1  0.4498540000000  0.4419240000000  0.5523630000000 1.0
C      1  0.5290520000000  0.4443180000000  0.5615590000000 1.0
C      1  0.5072040000000  0.5005260000000  0.6238090000000 1.0
C      1  0.3798450000000  0.5059460000000  0.5523690000000 1.0
C      1  0.4160660000000  0.5045880000000  0.4101530000000 1.0
C      1  0.5620970000000  0.5059960000000  0.3907920000000 1.0
C      1  0.6228660000000  0.5059130000000  0.5275970000000 1.0
C      1  0.4856500000000  0.4882310000000  0.6225470000000 1.0
C      1  0.6153800000000  0.4974840000000  0.5499780000000 1.0
C      1  0.5809620000000  0.4957840000000  0.4031790000000 1.0
C      1  0.4321500000000  0.4940760000000  0.3945580000000 1.0
C      1  0.3747250000000  0.4953910000000  0.5302690000000 1.0
C      1  0.4605980000000  0.4098800000000  0.5163810000000 1.0
C      1  0.4741260000000  0.4120420000000  0.4668610000000 1.0
C      1  0.5266780000000  0.4100110000000  0.4632760000000 1.0
C      1  0.5446880000000  0.4096690000000  0.5131320000000 1.0
C      1  0.5029620000000  0.4090920000000  0.5448920000000 1.0
C      1  0.5418710000000  0.5900090000000  0.5145260000000 1.0
C      1  0.5284270000000  0.5885240000000  0.4637530000000 1.0
C      1  0.4776920000000  0.5931110000000  0.4605790000000 1.0
C      1  0.4581880000000  0.5993220000000  0.5056920000000 1.0
C      1  0.4960180000000  0.5914650000000  0.5418010000000 1.0
C      1  0.5116920000000  0.4932480000000  0.3981850000000 1.0
C      1  0.6003090000000  0.4930430000000  0.4804840000000 1.0
C      1  0.5443600000000  0.4919600000000  0.5885340000000 1.0
C      1  0.4256380000000  0.4907810000000  0.5706810000000 1.0
C      1  0.4124210000000  0.4949100000000  0.4615510000000 1.0
C      1  0.4822970000000  0.5077840000000  0.3979060000000 1.0
C      1  0.4047970000000  0.5102140000000  0.4894220000000 1.0
C      1  0.4491910000000  0.5047360000000  0.5895730000000 1.0
C      1  0.5663920000000  0.5075750000000  0.5702250000000 1.0
C      1  0.5897460000000  0.5086820000000  0.4531550000000 1.0
C      1  0.5386680000000  0.5015730000000  0.4444330000000 1.0
C      1  0.4999840000000  0.4962990000000  0.5627780000000 1.0
C      1  0.4604540000000  0.4989990000000  0.4396510000000 1.0
C      1  0.5590890000000  0.5013790000000  0.5215150000000 1.0
C      1  0.4407760000000  0.5144700000000  0.5199950000000 1.0
C      1  0.4951580000000  0.5132780000000  0.5117580000000 1.0
C      1  0.5123990000000  0.4862610000000  0.5000970000000 1.0
END
