TITL C-2782240-8521-750 -0.000711403071310013 125000 -755.446695688024 0 0 131 (C1) n - 1
REM
REM in /home/nfs/bkarasulu/CARBON/AIRSS/Generating-Clusters/REBO/Higher-Symm/SD-CG/HFTN-CG
REM
REM
REM
REM
REM
REM ./C.cell (12c818d87b63d06a65506943cc24bca4)
REM
REM compiler GCC version 9.2.1 20190827 (Red Hat 9.2.1-1)
REM options -cpp -mtune=generic -march=x86-64 -g -O0 -fpre-include=/usr/include/finclude/math-vector-fortran.h
REM seed -338149449 907464586 1720279310 2000867178 -138503665 578595740 -1519190572 -2119175555 -1267473397 -723289400 1035738338 1950950913 1967964240 635906552 -466110664 -1898540680 977170425 1578142248 41099527 1910363035 950658810 1845504561 572621576 992198443 -845633662 1490228611 -1376588577 239862316 -541560042 -1755633483 -761890887 910863281 -804000461
REM
CELL 1.54180   50.00000   50.00000   50.00000   90.00000   90.00000   90.00000
LATT -1
SFAC C  
C      1  0.4839490000000  0.4635600000000  0.5877300000000 1.0
C      1  0.5178030000000  0.5418690000000  0.4498860000000 1.0
C      1  0.5513650000000  0.5743780000000  0.4710120000000 1.0
C      1  0.4933630000000  0.5434970000000  0.5740850000000 1.0
C      1  0.4090260000000  0.4924960000000  0.5125470000000 1.0
C      1  0.4585700000000  0.4846980000000  0.5164340000000 1.0
C      1  0.4943850000000  0.4467780000000  0.4968460000000 1.0
C      1  0.5308490000000  0.5108850000000  0.6112370000000 1.0
C      1  0.4559310000000  0.4542670000000  0.5614300000000 1.0
C      1  0.4661740000000  0.4731870000000  0.4883390000000 1.0
C      1  0.4529720000000  0.5144950000000  0.5128930000000 1.0
C      1  0.5226240000000  0.5661090000000  0.5502960000000 1.0
C      1  0.5169010000000  0.4650220000000  0.5968290000000 1.0
C      1  0.4728260000000  0.5839650000000  0.5036230000000 1.0
C      1  0.4773740000000  0.5646140000000  0.5563260000000 1.0
C      1  0.5331760000000  0.5191320000000  0.4325560000000 1.0
C      1  0.5578270000000  0.4793170000000  0.5501420000000 1.0
C      1  0.4797350000000  0.5300500000000  0.5270460000000 1.0
C      1  0.4896760000000  0.4539880000000  0.5553330000000 1.0
C      1  0.5668020000000  0.4536470000000  0.5073660000000 1.0
C      1  0.4789030000000  0.5026530000000  0.4193030000000 1.0
C      1  0.5278650000000  0.5072770000000  0.5253420000000 1.0
C      1  0.4554590000000  0.4423400000000  0.4888750000000 1.0
C      1  0.5697690000000  0.4791460000000  0.4335420000000 1.0
C      1  0.5687560000000  0.5260210000000  0.4490470000000 1.0
C      1  0.4711310000000  0.4619810000000  0.4341560000000 1.0
C      1  0.4622830000000  0.4824010000000  0.5491740000000 1.0
C      1  0.5021030000000  0.5212280000000  0.5983030000000 1.0
C      1  0.4418590000000  0.4257380000000  0.5380930000000 1.0
C      1  0.5257620000000  0.4399780000000  0.4284780000000 1.0
C      1  0.4321350000000  0.5536380000000  0.4843980000000 1.0
C      1  0.5529510000000  0.5563590000000  0.5581010000000 1.0
C      1  0.4552140000000  0.4812350000000  0.4496390000000 1.0
C      1  0.5031510000000  0.4851810000000  0.5032880000000 1.0
C      1  0.4585760000000  0.5526870000000  0.5026120000000 1.0
C      1  0.5955270000000  0.4999190000000  0.5132140000000 1.0
C      1  0.4904920000000  0.4155620000000  0.5661750000000 1.0
C      1  0.4055040000000  0.5084400000000  0.4524620000000 1.0
C      1  0.5046110000000  0.5724770000000  0.4567990000000 1.0
C      1  0.4276420000000  0.4554260000000  0.5432640000000 1.0
C      1  0.4804940000000  0.4589640000000  0.5228590000000 1.0
C      1  0.5021040000000  0.5908550000000  0.5019650000000 1.0
C      1  0.5196980000000  0.4575900000000  0.5154430000000 1.0
C      1  0.5246110000000  0.4914110000000  0.4407580000000 1.0
C      1  0.5834050000000  0.5170720000000  0.5322920000000 1.0
C      1  0.5466700000000  0.5414010000000  0.4635110000000 1.0
C      1  0.4989970000000  0.4211360000000  0.4383690000000 1.0
C      1  0.4224320000000  0.4891060000000  0.5437200000000 1.0
C      1  0.5394450000000  0.5526840000000  0.4183850000000 1.0
C      1  0.6037330000000  0.5136480000000  0.4860520000000 1.0
C      1  0.5135880000000  0.5008560000000  0.5545080000000 1.0
C      1  0.5452660000000  0.5429050000000  0.4952920000000 1.0
C      1  0.5243180000000  0.5643870000000  0.5016080000000 1.0
C      1  0.5136350000000  0.5408670000000  0.4052670000000 1.0
C      1  0.5435430000000  0.5740970000000  0.4409830000000 1.0
C      1  0.5053890000000  0.4149280000000  0.4712800000000 1.0
C      1  0.4531230000000  0.5585870000000  0.4293540000000 1.0
C      1  0.4047320000000  0.5415630000000  0.4914030000000 1.0
C      1  0.5373170000000  0.4789380000000  0.5309540000000 1.0
C      1  0.5747990000000  0.5272540000000  0.4881180000000 1.0
C      1  0.4141220000000  0.4619860000000  0.5157760000000 1.0
C      1  0.4703100000000  0.4332760000000  0.4353930000000 1.0
C      1  0.5498810000000  0.4489730000000  0.4824010000000 1.0
C      1  0.4787430000000  0.4963860000000  0.5939410000000 1.0
C      1  0.5080340000000  0.4076260000000  0.5460290000000 1.0
C      1  0.5038670000000  0.5300860000000  0.5029460000000 1.0
C      1  0.5770870000000  0.4966530000000  0.4578370000000 1.0
C      1  0.5517920000000  0.4727850000000  0.4181170000000 1.0
C      1  0.5144230000000  0.5920470000000  0.4744820000000 1.0
C      1  0.4558870000000  0.5318310000000  0.5486140000000 1.0
C      1  0.5431090000000  0.4765860000000  0.4632450000000 1.0
C      1  0.5563010000000  0.4437630000000  0.5319450000000 1.0
C      1  0.4403140000000  0.5203670000000  0.4844380000000 1.0
C      1  0.5194290000000  0.4688010000000  0.4163030000000 1.0
C      1  0.4931420000000  0.4937920000000  0.4491920000000 1.0
C      1  0.4643980000000  0.4222180000000  0.5588690000000 1.0
C      1  0.4896470000000  0.4734040000000  0.4150610000000 1.0
C      1  0.5249200000000  0.5086390000000  0.4932970000000 1.0
C      1  0.4151680000000  0.4999990000000  0.4820110000000 1.0
C      1  0.4557460000000  0.5859810000000  0.4483010000000 1.0
C      1  0.5870050000000  0.5571400000000  0.4928790000000 1.0
C      1  0.4482000000000  0.4194200000000  0.5118610000000 1.0
C      1  0.4457360000000  0.5026760000000  0.4173160000000 1.0
C      1  0.5693630000000  0.5053880000000  0.5554430000000 1.0
C      1  0.5183710000000  0.5325790000000  0.5545850000000 1.0
C      1  0.4275420000000  0.5211580000000  0.5329560000000 1.0
C      1  0.5356210000000  0.4345360000000  0.5801510000000 1.0
C      1  0.5321310000000  0.4220120000000  0.4839110000000 1.0
C      1  0.5592980000000  0.5310910000000  0.5667250000000 1.0
C      1  0.4654280000000  0.5679910000000  0.5322200000000 1.0
C      1  0.5509660000000  0.5047190000000  0.4786290000000 1.0
C      1  0.5989510000000  0.4838890000000  0.4769550000000 1.0
C      1  0.4038200000000  0.5336440000000  0.5176580000000 1.0
C      1  0.4805830000000  0.4187420000000  0.4889300000000 1.0
C      1  0.5026220000000  0.5550300000000  0.5257870000000 1.0
C      1  0.4326140000000  0.4411890000000  0.4668760000000 1.0
C      1  0.5024760000000  0.4348260000000  0.5880070000000 1.0
C      1  0.4778690000000  0.5340510000000  0.4844510000000 1.0
C      1  0.4668670000000  0.5234510000000  0.5797920000000 1.0
C      1  0.4929070000000  0.4658580000000  0.4686100000000 1.0
C      1  0.5707280000000  0.5419670000000  0.5258560000000 1.0
C      1  0.5603160000000  0.4519210000000  0.5647120000000 1.0
C      1  0.4748070000000  0.5635150000000  0.4679050000000 1.0
C      1  0.5886130000000  0.4707600000000  0.5037140000000 1.0
C      1  0.4885020000000  0.5427280000000  0.4370020000000 1.0
C      1  0.4610390000000  0.5312530000000  0.4405590000000 1.0
C      1  0.4255680000000  0.4700620000000  0.4524070000000 1.0
C      1  0.4959310000000  0.5233790000000  0.4029920000000 1.0
C      1  0.4931190000000  0.4883710000000  0.5356120000000 1.0
C      1  0.4469710000000  0.4231540000000  0.4457860000000 1.0
C      1  0.5498970000000  0.4610720000000  0.5958980000000 1.0
C      1  0.5102760000000  0.4926850000000  0.5823090000000 1.0
C      1  0.5499930000000  0.4470490000000  0.4486740000000 1.0
C      1  0.5451540000000  0.4907570000000  0.6085170000000 1.0
C      1  0.4457730000000  0.5038060000000  0.5636040000000 1.0
C      1  0.5115160000000  0.4447340000000  0.4584230000000 1.0
C      1  0.3920840000000  0.5298200000000  0.4687800000000 1.0
C      1  0.5189850000000  0.4452320000000  0.5534740000000 1.0
C      1  0.5379160000000  0.5366420000000  0.5268940000000 1.0
C      1  0.4838520000000  0.5021620000000  0.4809160000000 1.0
C      1  0.4163140000000  0.4658550000000  0.4840200000000 1.0
C      1  0.5248880000000  0.5882150000000  0.5262220000000 1.0
C      1  0.4532360000000  0.5098490000000  0.4567220000000 1.0
C      1  0.4488750000000  0.5829040000000  0.4792490000000 1.0
C      1  0.5667970000000  0.5764080000000  0.4960250000000 1.0
C      1  0.5550130000000  0.5724970000000  0.5277280000000 1.0
C      1  0.5278240000000  0.4275370000000  0.5278660000000 1.0
C      1  0.5624530000000  0.5297150000000  0.4194840000000 1.0
C      1  0.4828650000000  0.5757380000000  0.4308110000000 1.0
C      1  0.4646510000000  0.3951790000000  0.5057190000000 1.0
C      1  0.4230310000000  0.4965560000000  0.4318390000000 1.0
END
