TITL C-2782235-7892-1480 -0.00346911798158792 125000 -784.177029489848 0 0 133 (C1) n - 1
REM
REM in /home/nfs/bkarasulu/CARBON/AIRSS/Generating-Clusters/REBO/Higher-Symm/SD-CG/HFTN-CG
REM
REM
REM
REM
REM
REM ./C.cell (12c818d87b63d06a65506943cc24bca4)
REM
REM compiler GCC version 9.2.1 20190827 (Red Hat 9.2.1-1)
REM options -cpp -mtune=generic -march=x86-64 -g -O0 -fpre-include=/usr/include/finclude/math-vector-fortran.h
REM seed 1252543840 1496295910 63994398 1730937994 -2110902645 -2117595308 1635136703 416482956 1518137105 449493549 -996899848 1223281050 -1115976470 -432774880 1270799732 -1349464079 -1373186808 -362600311 508322040 191275994 1971112280 265185323 -1311354841 -641356232 2100336910 544479537 -1111498886 -2055934044 -1486571589 -1762170910 -1092005968 -1279352771 1645776282
REM
CELL 1.54180   50.00000   50.00000   50.00000   90.00000   90.00000   90.00000
LATT -1
SFAC C  
C      1  0.5354550000000  0.5470380000000  0.4442450000000 1.0
C      1  0.5373810000000  0.5656290000000  0.5270870000000 1.0
C      1  0.5350840000000  0.4972080000000  0.5674600000000 1.0
C      1  0.5386480000000  0.4304190000000  0.5179230000000 1.0
C      1  0.5381100000000  0.4627480000000  0.4402250000000 1.0
C      1  0.4936940000000  0.4435010000000  0.5116840000000 1.0
C      1  0.4951690000000  0.4735820000000  0.4498560000000 1.0
C      1  0.4953680000000  0.5393800000000  0.4580820000000 1.0
C      1  0.4931040000000  0.5516420000000  0.5247590000000 1.0
C      1  0.4960560000000  0.4923680000000  0.5561960000000 1.0
C      1  0.5094440000000  0.5383720000000  0.5731680000000 1.0
C      1  0.5045300000000  0.4443500000000  0.5630700000000 1.0
C      1  0.5084850000000  0.4266200000000  0.4645690000000 1.0
C      1  0.5075390000000  0.5123390000000  0.4172820000000 1.0
C      1  0.5054320000000  0.5804630000000  0.4847870000000 1.0
C      1  0.5143990000000  0.5121840000000  0.6182290000000 1.0
C      1  0.5135690000000  0.3850770000000  0.5380020000000 1.0
C      1  0.5139650000000  0.4231090000000  0.4074010000000 1.0
C      1  0.5121270000000  0.5684560000000  0.3977940000000 1.0
C      1  0.5137030000000  0.6144430000000  0.5382480000000 1.0
C      1  0.5313370000000  0.5561860000000  0.4134370000000 1.0
C      1  0.5348200000000  0.5978560000000  0.5292980000000 1.0
C      1  0.5311340000000  0.5117780000000  0.5960060000000 1.0
C      1  0.5350480000000  0.4029940000000  0.5354070000000 1.0
C      1  0.5337220000000  0.4359910000000  0.4223670000000 1.0
C      1  0.5787890000000  0.4620380000000  0.5604270000000 1.0
C      1  0.5799360000000  0.4409790000000  0.4862160000000 1.0
C      1  0.5789500000000  0.4998640000000  0.4413110000000 1.0
C      1  0.5772000000000  0.5562250000000  0.4767070000000 1.0
C      1  0.5771390000000  0.5295990000000  0.5380240000000 1.0
C      1  0.4593070000000  0.5974020000000  0.4854950000000 1.0
C      1  0.4599400000000  0.5461060000000  0.5891760000000 1.0
C      1  0.4588020000000  0.4301070000000  0.5712470000000 1.0
C      1  0.4580760000000  0.4117070000000  0.4566510000000 1.0
C      1  0.4623910000000  0.5169190000000  0.4015100000000 1.0
C      1  0.5353630000000  0.4550080000000  0.4724200000000 1.0
C      1  0.5340260000000  0.5137270000000  0.4470900000000 1.0
C      1  0.5338970000000  0.5545620000000  0.4955840000000 1.0
C      1  0.5308050000000  0.5188540000000  0.5457100000000 1.0
C      1  0.5370920000000  0.4593100000000  0.5346550000000 1.0
C      1  0.5175900000000  0.5596020000000  0.4675680000000 1.0
C      1  0.5176910000000  0.5488800000000  0.5441730000000 1.0
C      1  0.5184290000000  0.4694840000000  0.5586650000000 1.0
C      1  0.5189530000000  0.4349090000000  0.4937500000000 1.0
C      1  0.5187210000000  0.4872850000000  0.4341500000000 1.0
C      1  0.4654540000000  0.5491280000000  0.4642640000000 1.0
C      1  0.4634500000000  0.5483470000000  0.5369180000000 1.0
C      1  0.4653370000000  0.4810370000000  0.5577460000000 1.0
C      1  0.4629530000000  0.4398460000000  0.5011920000000 1.0
C      1  0.4651120000000  0.4823590000000  0.4416740000000 1.0
C      1  0.4422400000000  0.5670790000000  0.5219200000000 1.0
C      1  0.4468730000000  0.5019030000000  0.5724440000000 1.0
C      1  0.4426260000000  0.4340070000000  0.5252890000000 1.0
C      1  0.4461220000000  0.4570750000000  0.4415370000000 1.0
C      1  0.4451540000000  0.5422420000000  0.4405240000000 1.0
C      1  0.5613990000000  0.4437580000000  0.5482380000000 1.0
C      1  0.5623460000000  0.4407990000000  0.4632390000000 1.0
C      1  0.5606390000000  0.5194090000000  0.4301590000000 1.0
C      1  0.5610190000000  0.5715030000000  0.4954070000000 1.0
C      1  0.5696020000000  0.5168460000000  0.5627700000000 1.0
C      1  0.4938430000000  0.4432740000000  0.4482420000000 1.0
C      1  0.4936310000000  0.5336420000000  0.4280040000000 1.0
C      1  0.4907330000000  0.5773280000000  0.5091960000000 1.0
C      1  0.4951970000000  0.5149520000000  0.5765520000000 1.0
C      1  0.4914740000000  0.4303370000000  0.5390780000000 1.0
C      1  0.5663740000000  0.5558330000000  0.5346940000000 1.0
C      1  0.5673440000000  0.4870140000000  0.5637460000000 1.0
C      1  0.5685320000000  0.4270350000000  0.5081070000000 1.0
C      1  0.5684950000000  0.4732590000000  0.4381610000000 1.0
C      1  0.5655810000000  0.5552690000000  0.4506800000000 1.0
C      1  0.4152600000000  0.5249400000000  0.4604880000000 1.0
C      1  0.4131220000000  0.5283360000000  0.5072890000000 1.0
C      1  0.4089000000000  0.4996800000000  0.5608720000000 1.0
C      1  0.4061220000000  0.4497220000000  0.5251910000000 1.0
C      1  0.4037960000000  0.4813690000000  0.4628490000000 1.0
C      1  0.4629950000000  0.5789130000000  0.4695150000000 1.0
C      1  0.4609450000000  0.5560050000000  0.5664200000000 1.0
C      1  0.4623330000000  0.4545980000000  0.5724180000000 1.0
C      1  0.4590830000000  0.4175190000000  0.4807570000000 1.0
C      1  0.4633300000000  0.4959890000000  0.4146760000000 1.0
C      1  0.4254230000000  0.4539840000000  0.5470240000000 1.0
C      1  0.4258020000000  0.4554200000000  0.4669810000000 1.0
C      1  0.4297780000000  0.5119720000000  0.4384040000000 1.0
C      1  0.4260400000000  0.5539530000000  0.4958220000000 1.0
C      1  0.4266210000000  0.5234430000000  0.5551240000000 1.0
C      1  0.5872480000000  0.5174760000000  0.5142110000000 1.0
C      1  0.6042900000000  0.4559080000000  0.5673880000000 1.0
C      1  0.5936130000000  0.4649420000000  0.4927010000000 1.0
C      1  0.5910800000000  0.5074130000000  0.4660120000000 1.0
C      1  0.5882120000000  0.5314660000000  0.4858430000000 1.0
C      1  0.4247090000000  0.5397810000000  0.5329430000000 1.0
C      1  0.4263060000000  0.4752980000000  0.5638930000000 1.0
C      1  0.4232660000000  0.4419310000000  0.4980930000000 1.0
C      1  0.4253000000000  0.4837950000000  0.4390670000000 1.0
C      1  0.4258930000000  0.5515730000000  0.4677280000000 1.0
C      1  0.4676460000000  0.5243070000000  0.4850740000000 1.0
C      1  0.4677670000000  0.5213740000000  0.5189530000000 1.0
C      1  0.4690740000000  0.4888340000000  0.5268840000000 1.0
C      1  0.4685120000000  0.4713530000000  0.4981000000000 1.0
C      1  0.4682910000000  0.4931360000000  0.4720700000000 1.0
C      1  0.5170010000000  0.3582180000000  0.5399550000000 1.0
C      1  0.5211130000000  0.4039370000000  0.3892970000000 1.0
C      1  0.5184430000000  0.5804500000000  0.3741620000000 1.0
C      1  0.5183790000000  0.6376010000000  0.5517250000000 1.0
C      1  0.5236810000000  0.5200860000000  0.6426290000000 1.0
C      1  0.4851870000000  0.5656570000000  0.4055640000000 1.0
C      1  0.4879490000000  0.6064830000000  0.5306490000000 1.0
C      1  0.4866160000000  0.5072490000000  0.6147270000000 1.0
C      1  0.4892370000000  0.3976780000000  0.5403030000000 1.0
C      1  0.4863300000000  0.4275900000000  0.4124320000000 1.0
C      1  0.5002490000000  0.5255270000000  0.5080930000000 1.0
C      1  0.5009250000000  0.5002680000000  0.5261690000000 1.0
C      1  0.5013550000000  0.4746490000000  0.5081010000000 1.0
C      1  0.5008180000000  0.4846470000000  0.4786960000000 1.0
C      1  0.5004580000000  0.5158990000000  0.4784470000000 1.0
C      1  0.5569680000000  0.5401480000000  0.4113110000000 1.0
C      1  0.5589200000000  0.5951380000000  0.5109630000000 1.0
C      1  0.5541730000000  0.5279940000000  0.5843600000000 1.0
C      1  0.5586980000000  0.4156060000000  0.5491110000000 1.0
C      1  0.5592540000000  0.4289920000000  0.4375460000000 1.0
C      1  0.4612340000000  0.4164530000000  0.5431510000000 1.0
C      1  0.4651630000000  0.4337920000000  0.4365050000000 1.0
C      1  0.4646690000000  0.5441560000000  0.4167240000000 1.0
C      1  0.4610730000000  0.5913580000000  0.5162130000000 1.0
C      1  0.4663020000000  0.5161690000000  0.5913260000000 1.0
C      1  0.5391390000000  0.5062860000000  0.4758300000000 1.0
C      1  0.5386100000000  0.5247490000000  0.4968100000000 1.0
C      1  0.5393440000000  0.5100040000000  0.5210160000000 1.0
C      1  0.5409210000000  0.4820880000000  0.5150030000000 1.0
C      1  0.5398760000000  0.4805150000000  0.4869230000000 1.0
C      1  0.4069230000000  0.5066120000000  0.4858820000000 1.0
C      1  0.4147300000000  0.4744670000000  0.4937090000000 1.0
C      1  0.5938430000000  0.4929340000000  0.4938910000000 1.0
END
