TITL C-2782238-9940-1422 0.00108916831712548 125000 -749.50531098756 0 0 126 (C1) n - 1
REM
REM in /home/nfs/bkarasulu/CARBON/AIRSS/Generating-Clusters/REBO/Higher-Symm/SD-CG/HFTN-CG
REM
REM
REM
REM
REM
REM ./C.cell (12c818d87b63d06a65506943cc24bca4)
REM
REM compiler GCC version 9.2.1 20190827 (Red Hat 9.2.1-1)
REM options -cpp -mtune=generic -march=x86-64 -g -O0 -fpre-include=/usr/include/finclude/math-vector-fortran.h
REM seed 518024523 72058103 -2027232497 -1869058612 -583804813 -321597577 525047860 -186869618 -1103200539 -297757466 676316349 -1107426799 1236466750 -1127237728 1645987659 829928465 1871853708 -1330539778 863027541 1035912133 185124510 1156689612 -1173583884 75625066 -210683538 -1339784154 -636682610 -1292112318 1560822523 -431702709 153048264 -1584296622 260381917
REM
CELL 1.54180   50.00000   50.00000   50.00000   90.00000   90.00000   90.00000
LATT -1
SFAC C  
C      1  0.5177320000000  0.4439040000000  0.4191300000000 1.0
C      1  0.5189270000000  0.5092980000000  0.4013490000000 1.0
C      1  0.5174190000000  0.5701290000000  0.4295870000000 1.0
C      1  0.5171350000000  0.5979320000000  0.4916980000000 1.0
C      1  0.5191510000000  0.5795700000000  0.5571680000000 1.0
C      1  0.5208990000000  0.5236450000000  0.5952820000000 1.0
C      1  0.5166800000000  0.4570400000000  0.5902390000000 1.0
C      1  0.5153190000000  0.4109260000000  0.5406360000000 1.0
C      1  0.5183620000000  0.4042380000000  0.4730550000000 1.0
C      1  0.5429590000000  0.5103210000000  0.5478420000000 1.0
C      1  0.5393160000000  0.4833690000000  0.5380360000000 1.0
C      1  0.5358210000000  0.4646140000000  0.5153010000000 1.0
C      1  0.5386810000000  0.4653580000000  0.4860740000000 1.0
C      1  0.5396600000000  0.4822320000000  0.4622040000000 1.0
C      1  0.5402290000000  0.5115250000000  0.4578680000000 1.0
C      1  0.5406430000000  0.5364770000000  0.4739900000000 1.0
C      1  0.5407840000000  0.5454560000000  0.5026590000000 1.0
C      1  0.5405490000000  0.5339010000000  0.5305280000000 1.0
C      1  0.5445350000000  0.5379000000000  0.5790070000000 1.0
C      1  0.5423330000000  0.4767950000000  0.5840200000000 1.0
C      1  0.5376000000000  0.4304930000000  0.5505800000000 1.0
C      1  0.5396000000000  0.4138120000000  0.4939330000000 1.0
C      1  0.5411580000000  0.4381400000000  0.4400490000000 1.0
C      1  0.5411260000000  0.4910880000000  0.4140490000000 1.0
C      1  0.5416630000000  0.5490580000000  0.4279590000000 1.0
C      1  0.5403510000000  0.5839140000000  0.4756970000000 1.0
C      1  0.5411500000000  0.5803530000000  0.5351870000000 1.0
C      1  0.5761650000000  0.4690830000000  0.4714320000000 1.0
C      1  0.5769220000000  0.4957450000000  0.4575600000000 1.0
C      1  0.5774270000000  0.5248960000000  0.4638110000000 1.0
C      1  0.5776080000000  0.5432060000000  0.4875510000000 1.0
C      1  0.5776110000000  0.5416850000000  0.5176570000000 1.0
C      1  0.5801980000000  0.5219880000000  0.5402430000000 1.0
C      1  0.5779690000000  0.4916640000000  0.5430610000000 1.0
C      1  0.5741390000000  0.4666120000000  0.5265620000000 1.0
C      1  0.5755300000000  0.4570590000000  0.4986950000000 1.0
C      1  0.4926860000000  0.4857870000000  0.5679260000000 1.0
C      1  0.4885660000000  0.4426910000000  0.5461040000000 1.0
C      1  0.4877490000000  0.4273510000000  0.4967460000000 1.0
C      1  0.4903360000000  0.4462390000000  0.4541640000000 1.0
C      1  0.4904360000000  0.4884340000000  0.4302600000000 1.0
C      1  0.4905210000000  0.5364660000000  0.4378930000000 1.0
C      1  0.4898760000000  0.5676920000000  0.4755020000000 1.0
C      1  0.4906650000000  0.5648380000000  0.5251680000000 1.0
C      1  0.4936460000000  0.5317240000000  0.5600710000000 1.0
C      1  0.4924210000000  0.5412060000000  0.5918710000000 1.0
C      1  0.4897050000000  0.4754340000000  0.5998110000000 1.0
C      1  0.4880660000000  0.4127670000000  0.5608640000000 1.0
C      1  0.4905290000000  0.3948450000000  0.4885490000000 1.0
C      1  0.4894930000000  0.4267230000000  0.4267210000000 1.0
C      1  0.4907830000000  0.4916140000000  0.3968970000000 1.0
C      1  0.4900050000000  0.5589040000000  0.4128310000000 1.0
C      1  0.4896760000000  0.6010240000000  0.4723990000000 1.0
C      1  0.4905230000000  0.5915150000000  0.5453920000000 1.0
C      1  0.5131190000000  0.5823520000000  0.4557460000000 1.0
C      1  0.5130750000000  0.5895650000000  0.5195270000000 1.0
C      1  0.5163820000000  0.5543600000000  0.5714040000000 1.0
C      1  0.5160900000000  0.4952390000000  0.5907190000000 1.0
C      1  0.5112430000000  0.4362420000000  0.5705150000000 1.0
C      1  0.5117800000000  0.4084480000000  0.5117210000000 1.0
C      1  0.5139380000000  0.4220300000000  0.4502390000000 1.0
C      1  0.5138560000000  0.4718730000000  0.4125620000000 1.0
C      1  0.5147510000000  0.5353430000000  0.4139860000000 1.0
C      1  0.5691790000000  0.5345770000000  0.5653930000000 1.0
C      1  0.5646470000000  0.4842580000000  0.5689790000000 1.0
C      1  0.5590120000000  0.4464110000000  0.5422830000000 1.0
C      1  0.5613700000000  0.4310670000000  0.4967140000000 1.0
C      1  0.5625000000000  0.4502820000000  0.4529310000000 1.0
C      1  0.5631270000000  0.4923890000000  0.4312780000000 1.0
C      1  0.5638680000000  0.5393690000000  0.4415850000000 1.0
C      1  0.5636560000000  0.5686760000000  0.4796030000000 1.0
C      1  0.5640140000000  0.5660900000000  0.5278470000000 1.0
C      1  0.4377980000000  0.5133560000000  0.5461060000000 1.0
C      1  0.4382540000000  0.4793750000000  0.5471350000000 1.0
C      1  0.4378040000000  0.4545590000000  0.5237960000000 1.0
C      1  0.4371070000000  0.4518910000000  0.4898430000000 1.0
C      1  0.4371140000000  0.4702430000000  0.4611570000000 1.0
C      1  0.4372200000000  0.5026870000000  0.4507450000000 1.0
C      1  0.4375590000000  0.5347240000000  0.4624230000000 1.0
C      1  0.4375280000000  0.5502530000000  0.4928640000000 1.0
C      1  0.4378740000000  0.5407000000000  0.5256790000000 1.0
C      1  0.4477910000000  0.4395110000000  0.5783900000000 1.0
C      1  0.4467700000000  0.4048460000000  0.5150080000000 1.0
C      1  0.4512030000000  0.4121840000000  0.4567660000000 1.0
C      1  0.4470000000000  0.4673960000000  0.4106240000000 1.0
C      1  0.4514830000000  0.5254480000000  0.4033980000000 1.0
C      1  0.4490820000000  0.5832710000000  0.4460040000000 1.0
C      1  0.4490350000000  0.5959470000000  0.5168600000000 1.0
C      1  0.4442150000000  0.5526350000000  0.5760030000000 1.0
C      1  0.4516380000000  0.5100090000000  0.5974300000000 1.0
C      1  0.4694910000000  0.4922800000000  0.4544300000000 1.0
C      1  0.4698520000000  0.5241090000000  0.4585840000000 1.0
C      1  0.4698860000000  0.5446800000000  0.4832170000000 1.0
C      1  0.4697180000000  0.5433000000000  0.5150800000000 1.0
C      1  0.4702960000000  0.5219300000000  0.5392230000000 1.0
C      1  0.4704670000000  0.4906940000000  0.5458190000000 1.0
C      1  0.4702090000000  0.4627660000000  0.5303420000000 1.0
C      1  0.4696240000000  0.4534240000000  0.4999370000000 1.0
C      1  0.4694140000000  0.4641720000000  0.4700300000000 1.0
C      1  0.4602650000000  0.4939980000000  0.3981380000000 1.0
C      1  0.4598500000000  0.5486450000000  0.4153190000000 1.0
C      1  0.4590360000000  0.5926120000000  0.4702270000000 1.0
C      1  0.4596020000000  0.5860950000000  0.5408050000000 1.0
C      1  0.4633380000000  0.5394680000000  0.5981120000000 1.0
C      1  0.4595090000000  0.4833860000000  0.5949410000000 1.0
C      1  0.4572060000000  0.4215790000000  0.5590380000000 1.0
C      1  0.4598420000000  0.3991890000000  0.4862240000000 1.0
C      1  0.4591650000000  0.4286760000000  0.4363400000000 1.0
C      1  0.4458850000000  0.5823350000000  0.4926700000000 1.0
C      1  0.4462830000000  0.5631400000000  0.5498280000000 1.0
C      1  0.4349510000000  0.5235010000000  0.5754560000000 1.0
C      1  0.4451060000000  0.4673960000000  0.5766230000000 1.0
C      1  0.4450680000000  0.4241810000000  0.5337630000000 1.0
C      1  0.4346040000000  0.4222110000000  0.4816940000000 1.0
C      1  0.4457520000000  0.4534330000000  0.4338190000000 1.0
C      1  0.4352310000000  0.5037960000000  0.4198010000000 1.0
C      1  0.4460030000000  0.5564700000000  0.4385210000000 1.0
C      1  0.5082710000000  0.5486490000000  0.4932840000000 1.0
C      1  0.5081110000000  0.5375490000000  0.5235110000000 1.0
C      1  0.5102550000000  0.5105200000000  0.5420040000000 1.0
C      1  0.5075860000000  0.4772960000000  0.5404770000000 1.0
C      1  0.5073610000000  0.4509120000000  0.5220320000000 1.0
C      1  0.5081550000000  0.4520390000000  0.4894030000000 1.0
C      1  0.5077240000000  0.4718020000000  0.4621240000000 1.0
C      1  0.5076610000000  0.5035600000000  0.4525810000000 1.0
C      1  0.5081050000000  0.5339180000000  0.4644690000000 1.0
END
