TITL C-2782229-3092-542 0.000169845775274561 125000 -130.103070732777 0 0 25 (C2) n - 1
REM
REM in /home/nfs/bkarasulu/CARBON/AIRSS/Generating-Clusters/REBO/Higher-Symm/SD-CG/HFTN-CG
REM
REM
REM
REM
REM
REM ./C.cell (12c818d87b63d06a65506943cc24bca4)
REM
REM compiler GCC version 9.2.1 20190827 (Red Hat 9.2.1-1)
REM options -cpp -mtune=generic -march=x86-64 -g -O0 -fpre-include=/usr/include/finclude/math-vector-fortran.h
REM seed 1559645467 1875361188 -333656605 -1780386502 2047467674 1014513196 106048429 -1775269540 1736456223 20870974 -1069088551 89577382 1097639772 121168278 1381564119 -2103214364 -1741070064 -2145114965 -1056081984 -460583695 -1095677017 -1630986205 1897025733 -901704608 -403192785 -1898435872 1518924847 -1505623963 1941211896 1350726969 268176389 647641789 162270416
REM
CELL 1.54180   50.00000   50.00000   50.00000   90.00000   90.00000   90.00000
LATT -1
SFAC C  
C      1  0.5150050000000  0.5335390000000  0.4397400000000 1.0
C      1  0.4794810000000  0.4681850000000  0.4402760000000 1.0
C      1  0.4585680000000  0.4554600000000  0.4309190000000 1.0
C      1  0.5355330000000  0.5463140000000  0.4296300000000 1.0
C      1  0.4722230000000  0.5069160000000  0.4608110000000 1.0
C      1  0.5230640000000  0.4947060000000  0.4597760000000 1.0
C      1  0.4941450000000  0.5205570000000  0.4500140000000 1.0
C      1  0.5007310000000  0.4811170000000  0.4497840000000 1.0
C      1  0.4757790000000  0.4821430000000  0.5777430000000 1.0
C      1  0.5241290000000  0.5188860000000  0.5768810000000 1.0
C      1  0.4719240000000  0.4860880000000  0.5515650000000 1.0
C      1  0.5269470000000  0.5150740000000  0.5505520000000 1.0
C      1  0.4492280000000  0.4932070000000  0.5041590000000 1.0
C      1  0.5477530000000  0.5081980000000  0.5022520000000 1.0
C      1  0.4499250000000  0.5026840000000  0.4456830000000 1.0
C      1  0.5447470000000  0.4990170000000  0.4438020000000 1.0
C      1  0.4728570000000  0.4988910000000  0.4875380000000 1.0
C      1  0.5234860000000  0.5025950000000  0.4865470000000 1.0
C      1  0.5108390000000  0.5092750000000  0.5985940000000 1.0
C      1  0.4899160000000  0.4916450000000  0.5989630000000 1.0
C      1  0.5261930000000  0.4967020000000  0.5258570000000 1.0
C      1  0.4717040000000  0.5045850000000  0.5269530000000 1.0
C      1  0.5306740000000  0.4695340000000  0.5324290000000 1.0
C      1  0.4674890000000  0.5317190000000  0.5338340000000 1.0
C      1  0.4985540000000  0.5006940000000  0.5064220000000 1.0
END
