TITL C-2782225-7408-1065 0.000282279966282349 125000 -465.478885790054 0 0 83 (Cs) n - 1
REM
REM in /home/nfs/bkarasulu/CARBON/AIRSS/Generating-Clusters/REBO/Higher-Symm/SD-CG/HFTN-CG
REM
REM
REM
REM
REM
REM ./C.cell (12c818d87b63d06a65506943cc24bca4)
REM
REM compiler GCC version 9.2.1 20190827 (Red Hat 9.2.1-1)
REM options -cpp -mtune=generic -march=x86-64 -g -O0 -fpre-include=/usr/include/finclude/math-vector-fortran.h
REM seed 5990001 734044989 -1612773341 1806914223 1541636776 -1375313516 243717285 1577323324 2030124895 -1968392555 -1462694034 -123923869 -738932628 -1891486861 -1162295630 1388511792 1202455446 -1684330762 -855379580 -689809023 472025762 61517991 1471545049 -1664690367 -32649010 -960654944 272192142 1746389616 640588081 -1088445166 -1728697186 331717517 -701513199
REM
CELL 1.54180   50.00000   50.00000   50.00000   90.00000   90.00000   90.00000
LATT -1
SFAC C  
C      1  0.5844730000000  0.5066170000000  0.4571420000000 1.0
C      1  0.4642240000000  0.4212760000000  0.4569490000000 1.0
C      1  0.4497560000000  0.5722290000000  0.4574790000000 1.0
C      1  0.5844720000000  0.5066160000000  0.5441140000000 1.0
C      1  0.4642220000000  0.4212750000000  0.5443010000000 1.0
C      1  0.4497550000000  0.5722280000000  0.5437740000000 1.0
C      1  0.5290260000000  0.5036870000000  0.5592130000000 1.0
C      1  0.4918660000000  0.4699680000000  0.5585350000000 1.0
C      1  0.4812430000000  0.5182550000000  0.5587070000000 1.0
C      1  0.5290280000000  0.5036880000000  0.4420410000000 1.0
C      1  0.4918680000000  0.4699690000000  0.4427170000000 1.0
C      1  0.4812450000000  0.5182560000000  0.4425450000000 1.0
C      1  0.4897260000000  0.5815950000000  0.4870850000000 1.0
C      1  0.5498540000000  0.4551700000000  0.4865090000000 1.0
C      1  0.4386400000000  0.4815350000000  0.4865740000000 1.0
C      1  0.4897250000000  0.5815950000000  0.5141700000000 1.0
C      1  0.5498540000000  0.4551700000000  0.5147450000000 1.0
C      1  0.4386400000000  0.4815350000000  0.5146760000000 1.0
C      1  0.4387220000000  0.5489980000000  0.5639560000000 1.0
C      1  0.5743310000000  0.5290460000000  0.5656970000000 1.0
C      1  0.4916290000000  0.4181700000000  0.5624540000000 1.0
C      1  0.4387240000000  0.5489990000000  0.4372950000000 1.0
C      1  0.5743330000000  0.5290470000000  0.4355590000000 1.0
C      1  0.4916310000000  0.4181720000000  0.4387960000000 1.0
C      1  0.4901220000000  0.5291320000000  0.4735260000000 1.0
C      1  0.5292440000000  0.4977030000000  0.4728770000000 1.0
C      1  0.4853220000000  0.4763900000000  0.4726970000000 1.0
C      1  0.4901210000000  0.5291310000000  0.5277270000000 1.0
C      1  0.5292430000000  0.4977020000000  0.5283770000000 1.0
C      1  0.4853210000000  0.4763900000000  0.5285540000000 1.0
C      1  0.4489840000000  0.5738560000000  0.5165770000000 1.0
C      1  0.5855970000000  0.5070970000000  0.5167040000000 1.0
C      1  0.4632920000000  0.4201520000000  0.5167450000000 1.0
C      1  0.4489850000000  0.5738560000000  0.4846750000000 1.0
C      1  0.5855970000000  0.5070970000000  0.4845530000000 1.0
C      1  0.4632920000000  0.4201520000000  0.4845050000000 1.0
C      1  0.5246270000000  0.4426370000000  0.5296120000000 1.0
C      1  0.4404500000000  0.5092880000000  0.5296240000000 1.0
C      1  0.5381400000000  0.5433320000000  0.5315980000000 1.0
C      1  0.5246280000000  0.4426380000000  0.4716410000000 1.0
C      1  0.4404510000000  0.5092890000000  0.4716270000000 1.0
C      1  0.5381410000000  0.5433320000000  0.4696580000000 1.0
C      1  0.5303210000000  0.5517900000000  0.5807070000000 1.0
C      1  0.5340780000000  0.4451890000000  0.5804640000000 1.0
C      1  0.4365460000000  0.4984060000000  0.5801150000000 1.0
C      1  0.5303240000000  0.5517920000000  0.4205490000000 1.0
C      1  0.5340810000000  0.4451910000000  0.4207890000000 1.0
C      1  0.4365490000000  0.4984080000000  0.4211350000000 1.0
C      1  0.4477970000000  0.5172770000000  0.4423130000000 1.0
C      1  0.5419650000000  0.5350700000000  0.4397260000000 1.0
C      1  0.5129810000000  0.4437630000000  0.4427380000000 1.0
C      1  0.4477950000000  0.5172760000000  0.5589380000000 1.0
C      1  0.5419620000000  0.5350690000000  0.5615290000000 1.0
C      1  0.5129790000000  0.4437610000000  0.5585140000000 1.0
C      1  0.5601290000000  0.4998040000000  0.4356160000000 1.0
C      1  0.4736810000000  0.4450150000000  0.4358760000000 1.0
C      1  0.4717880000000  0.5491400000000  0.4441730000000 1.0
C      1  0.5601260000000  0.4998020000000  0.5656390000000 1.0
C      1  0.4736790000000  0.4450130000000  0.5653740000000 1.0
C      1  0.4717860000000  0.5491390000000  0.5570800000000 1.0
C      1  0.4711070000000  0.5048070000000  0.5165330000000 1.0
C      1  0.5186240000000  0.5243350000000  0.5162460000000 1.0
C      1  0.5134020000000  0.4715050000000  0.5159530000000 1.0
C      1  0.4711080000000  0.5048080000000  0.4847190000000 1.0
C      1  0.5186240000000  0.5243350000000  0.4850080000000 1.0
C      1  0.5134030000000  0.4715060000000  0.4853000000000 1.0
C      1  0.4859040000000  0.5614150000000  0.4706210000000 1.0
C      1  0.5554250000000  0.4801490000000  0.4764090000000 1.0
C      1  0.4566280000000  0.4636650000000  0.4762660000000 1.0
C      1  0.4859030000000  0.5614140000000  0.5306330000000 1.0
C      1  0.5554240000000  0.4801490000000  0.5248450000000 1.0
C      1  0.4566270000000  0.4636640000000  0.5249850000000 1.0
C      1  0.4226610000000  0.5287620000000  0.4847610000000 1.0
C      1  0.5585920000000  0.5550600000000  0.4848070000000 1.0
C      1  0.5164700000000  0.4174710000000  0.4848140000000 1.0
C      1  0.4226610000000  0.5287620000000  0.5164900000000 1.0
C      1  0.5585910000000  0.5550600000000  0.5164500000000 1.0
C      1  0.5164690000000  0.4174710000000  0.5164380000000 1.0
C      1  0.5800610000000  0.5354710000000  0.5006280000000 1.0
C      1  0.4256060000000  0.5572690000000  0.5006260000000 1.0
C      1  0.4892670000000  0.4080390000000  0.5006250000000 1.0
C      1  0.5006520000000  0.4974420000000  0.5679320000000 1.0
C      1  0.5006550000000  0.4974430000000  0.4333210000000 1.0
END
