TITL C-2782233-7966-1250 -0.0103781381749325 125000 -492.860734075973 0 0 93 (C1) n - 1
REM
REM in /home/nfs/bkarasulu/CARBON/AIRSS/Generating-Clusters/REBO/Higher-Symm/SD-CG/HFTN-CG
REM
REM
REM
REM
REM
REM ./C.cell (12c818d87b63d06a65506943cc24bca4)
REM
REM compiler GCC version 9.2.1 20190827 (Red Hat 9.2.1-1)
REM options -cpp -mtune=generic -march=x86-64 -g -O0 -fpre-include=/usr/include/finclude/math-vector-fortran.h
REM seed -1619968270 335939693 940470533 -2133392827 -1870350340 1673925470 -1489103466 273428646 656986109 1459116850 -1970819011 797781461 423856062 -2091878663 1290898081 1343794734 470892078 -250436861 -1833352580 908074370 1794511437 -961922 -288679079 -1435286296 677054273 765881529 -1847061064 -451521656 -1102368137 -1982888439 895435151 1057512828 -1446676309
REM
CELL 1.54180   50.00000   50.00000   50.00000   90.00000   90.00000   90.00000
LATT -1
SFAC C  
C      1  0.5441680000000  0.4303040000000  0.5236960000000 1.0
C      1  0.5449590000000  0.5532800000000  0.5393380000000 1.0
C      1  0.5390470000000  0.5135930000000  0.4352770000000 1.0
C      1  0.4591090000000  0.4286890000000  0.4673970000000 1.0
C      1  0.4575700000000  0.5532350000000  0.4598970000000 1.0
C      1  0.4604810000000  0.5111360000000  0.5682610000000 1.0
C      1  0.4914580000000  0.5087420000000  0.4092620000000 1.0
C      1  0.4827300000000  0.4145710000000  0.5407420000000 1.0
C      1  0.4969160000000  0.5770410000000  0.5549940000000 1.0
C      1  0.5135070000000  0.5068840000000  0.5907460000000 1.0
C      1  0.5150320000000  0.4198000000000  0.4643990000000 1.0
C      1  0.5077830000000  0.5756060000000  0.4477650000000 1.0
C      1  0.4782320000000  0.5318020000000  0.5040030000000 1.0
C      1  0.4776190000000  0.4779060000000  0.4717370000000 1.0
C      1  0.4774520000000  0.4820980000000  0.5262020000000 1.0
C      1  0.5177600000000  0.5304320000000  0.5007820000000 1.0
C      1  0.5170320000000  0.4830940000000  0.5281280000000 1.0
C      1  0.5150460000000  0.4911600000000  0.4749950000000 1.0
C      1  0.4898530000000  0.5511260000000  0.5738940000000 1.0
C      1  0.4825500000000  0.5395520000000  0.4183150000000 1.0
C      1  0.4833090000000  0.4147060000000  0.5075640000000 1.0
C      1  0.5124200000000  0.5548280000000  0.4223450000000 1.0
C      1  0.5204250000000  0.5371220000000  0.5790110000000 1.0
C      1  0.5158840000000  0.4183620000000  0.4981640000000 1.0
C      1  0.5152790000000  0.4149990000000  0.5306740000000 1.0
C      1  0.5257760000000  0.5604760000000  0.5592770000000 1.0
C      1  0.5194020000000  0.5242200000000  0.4177450000000 1.0
C      1  0.4831670000000  0.4151210000000  0.4760900000000 1.0
C      1  0.4779130000000  0.5606870000000  0.4413270000000 1.0
C      1  0.4839440000000  0.5214510000000  0.5819660000000 1.0
C      1  0.4946870000000  0.5594880000000  0.5156030000000 1.0
C      1  0.4928330000000  0.4824300000000  0.4416090000000 1.0
C      1  0.4880030000000  0.4536380000000  0.5430870000000 1.0
C      1  0.5054020000000  0.5586180000000  0.4837670000000 1.0
C      1  0.5039290000000  0.4843630000000  0.5598270000000 1.0
C      1  0.5071780000000  0.4563290000000  0.4571460000000 1.0
C      1  0.5367690000000  0.4390900000000  0.4829040000000 1.0
C      1  0.5387760000000  0.5114970000000  0.5680840000000 1.0
C      1  0.5323750000000  0.5523270000000  0.4497740000000 1.0
C      1  0.4600340000000  0.4338700000000  0.5236880000000 1.0
C      1  0.4648770000000  0.5131520000000  0.4293650000000 1.0
C      1  0.4684070000000  0.5591490000000  0.5486610000000 1.0
C      1  0.4422940000000  0.4636930000000  0.5305490000000 1.0
C      1  0.4449830000000  0.5545260000000  0.5231510000000 1.0
C      1  0.4486190000000  0.4876680000000  0.4456560000000 1.0
C      1  0.5612130000000  0.4621790000000  0.4740680000000 1.0
C      1  0.5577850000000  0.5481180000000  0.4726440000000 1.0
C      1  0.5624960000000  0.4896160000000  0.5562780000000 1.0
C      1  0.4418350000000  0.4492050000000  0.4822210000000 1.0
C      1  0.4416900000000  0.5096950000000  0.5397800000000 1.0
C      1  0.4397660000000  0.5309870000000  0.4761430000000 1.0
C      1  0.5577160000000  0.4559170000000  0.5123950000000 1.0
C      1  0.5584570000000  0.5098540000000  0.4626250000000 1.0
C      1  0.5641720000000  0.5348470000000  0.5233430000000 1.0
C      1  0.4644000000000  0.4831980000000  0.5575670000000 1.0
C      1  0.4649110000000  0.5589870000000  0.4889370000000 1.0
C      1  0.4677260000000  0.4536570000000  0.4526290000000 1.0
C      1  0.5305740000000  0.4867090000000  0.4470160000000 1.0
C      1  0.5336720000000  0.5578050000000  0.5117450000000 1.0
C      1  0.5271050000000  0.4526770000000  0.5374360000000 1.0
C      1  0.5390330000000  0.5733060000000  0.4829760000000 1.0
C      1  0.5423780000000  0.4562080000000  0.4474280000000 1.0
C      1  0.5361090000000  0.4718960000000  0.5641580000000 1.0
C      1  0.4611750000000  0.5819370000000  0.5138130000000 1.0
C      1  0.4563470000000  0.4515650000000  0.5590880000000 1.0
C      1  0.4621550000000  0.4661720000000  0.4226830000000 1.0
C      1  0.5312740000000  0.5273070000000  0.4720190000000 1.0
C      1  0.5351520000000  0.4718130000000  0.4923290000000 1.0
C      1  0.5409910000000  0.5030760000000  0.5350840000000 1.0
C      1  0.4636200000000  0.5308140000000  0.5339930000000 1.0
C      1  0.4606840000000  0.4604820000000  0.5048220000000 1.0
C      1  0.4609930000000  0.5134500000000  0.4616590000000 1.0
C      1  0.5689920000000  0.4923430000000  0.4887290000000 1.0
C      1  0.5668680000000  0.4865320000000  0.5223080000000 1.0
C      1  0.5667200000000  0.5258410000000  0.4969720000000 1.0
C      1  0.4372910000000  0.4921030000000  0.5110040000000 1.0
C      1  0.4400440000000  0.4815940000000  0.4783890000000 1.0
C      1  0.4366940000000  0.5262890000000  0.5051980000000 1.0
C      1  0.5132030000000  0.4464030000000  0.5665790000000 1.0
C      1  0.5172030000000  0.5874570000000  0.5086490000000 1.0
C      1  0.5192750000000  0.4671700000000  0.4212250000000 1.0
C      1  0.4880230000000  0.4446190000000  0.4298980000000 1.0
C      1  0.4828790000000  0.5863010000000  0.4886490000000 1.0
C      1  0.4811460000000  0.4657860000000  0.5799940000000 1.0
C      1  0.4907150000000  0.4779320000000  0.4082760000000 1.0
C      1  0.4854830000000  0.4300000000000  0.5689860000000 1.0
C      1  0.4906550000000  0.5905740000000  0.5275410000000 1.0
C      1  0.5102840000000  0.4746880000000  0.5920190000000 1.0
C      1  0.5190490000000  0.4323330000000  0.4324950000000 1.0
C      1  0.5101480000000  0.5933790000000  0.4732390000000 1.0
C      1  0.4868150000000  0.5100480000000  0.4790920000000 1.0
C      1  0.4973240000000  0.4754530000000  0.4994110000000 1.0
C      1  0.4981020000000  0.5098130000000  0.5196040000000 1.0
END
