TITL C-2782226-7400-43 0.00191692174056955 125000 -758.652008374166 0 0 129 (C1) n - 1
REM
REM in /home/nfs/bkarasulu/CARBON/AIRSS/Generating-Clusters/REBO/Higher-Symm/SD-CG/HFTN-CG
REM
REM
REM
REM
REM
REM ./C.cell (12c818d87b63d06a65506943cc24bca4)
REM
REM compiler GCC version 9.2.1 20190827 (Red Hat 9.2.1-1)
REM options -cpp -mtune=generic -march=x86-64 -g -O0 -fpre-include=/usr/include/finclude/math-vector-fortran.h
REM seed -716634799 -381689038 1926054712 1952554733 -1063532673 1721373621 1281080698 -1106748728 1011525941 -1897020381 1063828164 -908502746 -380618687 676788111 -404198509 1508958201 -1491835229 24836685 -1726665193 -201924252 -346604806 404705504 1669555672 -628100057 1593079226 -2092367109 378489344 -1643511321 -857041469 717943410 403192043 -225831526 2088638400
REM
CELL 1.54180   50.00000   50.00000   50.00000   90.00000   90.00000   90.00000
LATT -1
SFAC C  
C      1  0.4650310000000  0.4141890000000  0.5153190000000 1.0
C      1  0.5256640000000  0.4178860000000  0.5133470000000 1.0
C      1  0.5048530000000  0.4238130000000  0.4676110000000 1.0
C      1  0.4629380000000  0.5901890000000  0.4924330000000 1.0
C      1  0.5137530000000  0.5818880000000  0.4774750000000 1.0
C      1  0.5065780000000  0.5682950000000  0.5271310000000 1.0
C      1  0.4356180000000  0.5805770000000  0.5387470000000 1.0
C      1  0.5614660000000  0.5948850000000  0.5207160000000 1.0
C      1  0.4709680000000  0.6025870000000  0.4220680000000 1.0
C      1  0.4474140000000  0.4018780000000  0.4576570000000 1.0
C      1  0.5712590000000  0.4158190000000  0.4675900000000 1.0
C      1  0.4488070000000  0.3882160000000  0.5781340000000 1.0
C      1  0.5703580000000  0.5558840000000  0.4928030000000 1.0
C      1  0.4537570000000  0.5607280000000  0.4442330000000 1.0
C      1  0.4698640000000  0.5543960000000  0.5648960000000 1.0
C      1  0.5783380000000  0.4496990000000  0.5020070000000 1.0
C      1  0.4412900000000  0.4359640000000  0.5627050000000 1.0
C      1  0.4709660000000  0.4424310000000  0.4425850000000 1.0
C      1  0.5166560000000  0.4332460000000  0.4455030000000 1.0
C      1  0.4434900000000  0.4386450000000  0.5144770000000 1.0
C      1  0.5228850000000  0.4233010000000  0.5409690000000 1.0
C      1  0.5155420000000  0.5605900000000  0.5527730000000 1.0
C      1  0.4506600000000  0.5651270000000  0.4922320000000 1.0
C      1  0.5292050000000  0.5718070000000  0.4490950000000 1.0
C      1  0.4211070000000  0.4413680000000  0.5384330000000 1.0
C      1  0.5459400000000  0.4295250000000  0.5558750000000 1.0
C      1  0.5115080000000  0.4372380000000  0.4163100000000 1.0
C      1  0.4337170000000  0.5604680000000  0.4693630000000 1.0
C      1  0.5515920000000  0.5655870000000  0.4372200000000 1.0
C      1  0.4979400000000  0.5617620000000  0.5765320000000 1.0
C      1  0.4565240000000  0.4522630000000  0.4213790000000 1.0
C      1  0.4489130000000  0.4555110000000  0.5863210000000 1.0
C      1  0.6041330000000  0.4590690000000  0.4946570000000 1.0
C      1  0.4480970000000  0.5403430000000  0.5810760000000 1.0
C      1  0.4622240000000  0.5409820000000  0.4205420000000 1.0
C      1  0.5959580000000  0.5508140000000  0.5042470000000 1.0
C      1  0.4545630000000  0.4619210000000  0.5449930000000 1.0
C      1  0.5635560000000  0.4717500000000  0.5179530000000 1.0
C      1  0.4910170000000  0.4631690000000  0.4515720000000 1.0
C      1  0.4568030000000  0.5297540000000  0.4589810000000 1.0
C      1  0.5595300000000  0.5300890000000  0.4789370000000 1.0
C      1  0.4905870000000  0.5294100000000  0.5543440000000 1.0
C      1  0.4405030000000  0.5224450000000  0.4850690000000 1.0
C      1  0.5237570000000  0.5297850000000  0.5598050000000 1.0
C      1  0.5490030000000  0.5229000000000  0.4500900000000 1.0
C      1  0.4373050000000  0.4714880000000  0.5178350000000 1.0
C      1  0.5226400000000  0.4661950000000  0.4415200000000 1.0
C      1  0.5510370000000  0.4734540000000  0.5458910000000 1.0
C      1  0.6016090000000  0.5241030000000  0.5055920000000 1.0
C      1  0.4686410000000  0.5144260000000  0.4225780000000 1.0
C      1  0.4497940000000  0.5129030000000  0.5779450000000 1.0
C      1  0.6061800000000  0.4863870000000  0.4967910000000 1.0
C      1  0.4572160000000  0.4808160000000  0.5801000000000 1.0
C      1  0.4592430000000  0.4820210000000  0.4195110000000 1.0
C      1  0.4911920000000  0.4647980000000  0.4833650000000 1.0
C      1  0.4860840000000  0.4586110000000  0.5401030000000 1.0
C      1  0.5417600000000  0.4833450000000  0.4970080000000 1.0
C      1  0.4866210000000  0.5268530000000  0.5225760000000 1.0
C      1  0.4876370000000  0.5362720000000  0.4657830000000 1.0
C      1  0.5383280000000  0.5171770000000  0.4992330000000 1.0
C      1  0.5574460000000  0.5127790000000  0.5983200000000 1.0
C      1  0.5533130000000  0.5143500000000  0.4003520000000 1.0
C      1  0.3939570000000  0.5212710000000  0.4988070000000 1.0
C      1  0.5494430000000  0.4866470000000  0.4000690000000 1.0
C      1  0.5609640000000  0.4850160000000  0.5963520000000 1.0
C      1  0.3924080000000  0.4935010000000  0.4995400000000 1.0
C      1  0.5173950000000  0.4781590000000  0.5802950000000 1.0
C      1  0.5687450000000  0.4837370000000  0.4422020000000 1.0
C      1  0.4280940000000  0.4783990000000  0.4710120000000 1.0
C      1  0.5122870000000  0.5240700000000  0.4217970000000 1.0
C      1  0.5681040000000  0.5124220000000  0.5535100000000 1.0
C      1  0.4300640000000  0.5264000000000  0.5298680000000 1.0
C      1  0.4693410000000  0.5868820000000  0.4431930000000 1.0
C      1  0.4605390000000  0.5690520000000  0.5405400000000 1.0
C      1  0.5532580000000  0.5736330000000  0.5050760000000 1.0
C      1  0.4550630000000  0.4095440000000  0.5619700000000 1.0
C      1  0.4654660000000  0.4225220000000  0.4609730000000 1.0
C      1  0.5620090000000  0.4330690000000  0.4864100000000 1.0
C      1  0.5004520000000  0.4814360000000  0.5535390000000 1.0
C      1  0.5601230000000  0.4909520000000  0.4713170000000 1.0
C      1  0.4620660000000  0.4794640000000  0.4736710000000 1.0
C      1  0.5042090000000  0.5153660000000  0.4519260000000 1.0
C      1  0.5522780000000  0.5090070000000  0.5258160000000 1.0
C      1  0.4583050000000  0.5112490000000  0.5254050000000 1.0
C      1  0.5518740000000  0.5246090000000  0.5730130000000 1.0
C      1  0.5408430000000  0.5286780000000  0.4220420000000 1.0
C      1  0.4200980000000  0.5324090000000  0.5031350000000 1.0
C      1  0.5485710000000  0.4739880000000  0.4255210000000 1.0
C      1  0.5449410000000  0.4728520000000  0.5757160000000 1.0
C      1  0.4156450000000  0.4775790000000  0.4961980000000 1.0
C      1  0.4831700000000  0.5928580000000  0.4703590000000 1.0
C      1  0.4793570000000  0.5659940000000  0.5199940000000 1.0
C      1  0.5242110000000  0.5682360000000  0.5017330000000 1.0
C      1  0.4754360000000  0.4105610000000  0.5417890000000 1.0
C      1  0.4806310000000  0.4252410000000  0.4888790000000 1.0
C      1  0.5337310000000  0.4353390000000  0.4927340000000 1.0
C      1  0.4961770000000  0.4300290000000  0.5476770000000 1.0
C      1  0.5214060000000  0.4616250000000  0.4909620000000 1.0
C      1  0.4744480000000  0.4522720000000  0.5091150000000 1.0
C      1  0.4978450000000  0.5626190000000  0.4558830000000 1.0
C      1  0.5145640000000  0.5358220000000  0.5053320000000 1.0
C      1  0.4742700000000  0.5431190000000  0.4953470000000 1.0
C      1  0.5106120000000  0.4956920000000  0.6012950000000 1.0
C      1  0.5874310000000  0.5018030000000  0.4310940000000 1.0
C      1  0.4150380000000  0.4944930000000  0.4519130000000 1.0
C      1  0.5015620000000  0.5089850000000  0.4005420000000 1.0
C      1  0.5847760000000  0.4908990000000  0.5610510000000 1.0
C      1  0.4119440000000  0.5130550000000  0.5470130000000 1.0
C      1  0.5681450000000  0.4423460000000  0.5642760000000 1.0
C      1  0.5046880000000  0.4569320000000  0.3989970000000 1.0
C      1  0.4036660000000  0.4617280000000  0.5416270000000 1.0
C      1  0.5729580000000  0.5514220000000  0.4291850000000 1.0
C      1  0.5052160000000  0.5476320000000  0.5998260000000 1.0
C      1  0.4112250000000  0.5444480000000  0.4648070000000 1.0
C      1  0.5840990000000  0.4641940000000  0.5663230000000 1.0
C      1  0.5002190000000  0.4829070000000  0.3931870000000 1.0
C      1  0.4013590000000  0.4880120000000  0.5477030000000 1.0
C      1  0.5870930000000  0.5285980000000  0.4266070000000 1.0
C      1  0.5080580000000  0.5218530000000  0.6078360000000 1.0
C      1  0.4061550000000  0.5201570000000  0.4538180000000 1.0
C      1  0.5851180000000  0.5076990000000  0.4810730000000 1.0
C      1  0.4547270000000  0.4985080000000  0.4492340000000 1.0
C      1  0.4812100000000  0.5021850000000  0.5682310000000 1.0
C      1  0.5841460000000  0.4986920000000  0.5197420000000 1.0
C      1  0.4472170000000  0.4941210000000  0.5495500000000 1.0
C      1  0.4906240000000  0.4909160000000  0.4344810000000 1.0
C      1  0.5282280000000  0.4983470000000  0.5475210000000 1.0
C      1  0.5308430000000  0.4945410000000  0.4548790000000 1.0
C      1  0.4514740000000  0.4951050000000  0.4987560000000 1.0
END
