TITL C-2782234-8014-975 -0.00326128095680081 125000 -157.010393596645 0 0 29 (C1) n - 1
REM
REM in /home/nfs/bkarasulu/CARBON/AIRSS/Generating-Clusters/REBO/Higher-Symm/SD-CG/HFTN-CG
REM
REM
REM
REM
REM
REM ./C.cell (12c818d87b63d06a65506943cc24bca4)
REM
REM compiler GCC version 9.2.1 20190827 (Red Hat 9.2.1-1)
REM options -cpp -mtune=generic -march=x86-64 -g -O0 -fpre-include=/usr/include/finclude/math-vector-fortran.h
REM seed 64096465 -1491293097 -464441444 -1873583366 -143885975 -1191171011 -1271589704 1336393512 -881506058 257498458 269326611 1298082565 -1413111995 881293425 666891553 316023338 2110222532 490606430 245131801 -1426079878 1711261071 -991270766 -1760751086 1206060273 -529756101 1064167271 -1721650622 65495464 -1311819561 751175908 372614807 483213339 1202001145
REM
CELL 1.54180   50.00000   50.00000   50.00000   90.00000   90.00000   90.00000
LATT -1
SFAC C  
C      1  0.5124450000000  0.4616130000000  0.5359970000000 1.0
C      1  0.4741870000000  0.5269370000000  0.5199500000000 1.0
C      1  0.5291910000000  0.5397210000000  0.4580150000000 1.0
C      1  0.5411390000000  0.4811610000000  0.4861930000000 1.0
C      1  0.4762430000000  0.5143510000000  0.4676420000000 1.0
C      1  0.4956330000000  0.4420150000000  0.4779390000000 1.0
C      1  0.5316370000000  0.5583630000000  0.4789720000000 1.0
C      1  0.5068170000000  0.5175740000000  0.4668300000000 1.0
C      1  0.4632410000000  0.4543430000000  0.5255250000000 1.0
C      1  0.5106860000000  0.5189970000000  0.5338190000000 1.0
C      1  0.4619830000000  0.4292280000000  0.5359740000000 1.0
C      1  0.5117740000000  0.4862000000000  0.4909650000000 1.0
C      1  0.4433050000000  0.4640620000000  0.5077440000000 1.0
C      1  0.5283970000000  0.5773150000000  0.5051630000000 1.0
C      1  0.4912310000000  0.5468850000000  0.5365270000000 1.0
C      1  0.5527670000000  0.5224910000000  0.4473320000000 1.0
C      1  0.5365750000000  0.5010940000000  0.4635020000000 1.0
C      1  0.4925820000000  0.4688910000000  0.4799420000000 1.0
C      1  0.4429070000000  0.4800990000000  0.4846810000000 1.0
C      1  0.5373750000000  0.4761090000000  0.5345740000000 1.0
C      1  0.5347100000000  0.5030660000000  0.5445370000000 1.0
C      1  0.4625310000000  0.5299930000000  0.4946070000000 1.0
C      1  0.4838640000000  0.4988010000000  0.5272590000000 1.0
C      1  0.4860180000000  0.4712080000000  0.5302020000000 1.0
C      1  0.4699180000000  0.4828760000000  0.4705480000000 1.0
C      1  0.4431440000000  0.5109200000000  0.4783330000000 1.0
C      1  0.5184080000000  0.5464180000000  0.5058770000000 1.0
C      1  0.5080330000000  0.5164840000000  0.5008000000000 1.0
C      1  0.5532600000000  0.4727860000000  0.5105500000000 1.0
END
