TITL C-2782232-2968-1144 0.00383401186940419 125000 -1087.97222988598 0 0 180 (C1) n - 1
REM
REM in /home/nfs/bkarasulu/CARBON/AIRSS/Generating-Clusters/REBO/Higher-Symm/SD-CG/HFTN-CG
REM
REM
REM
REM
REM
REM ./C.cell (12c818d87b63d06a65506943cc24bca4)
REM
REM compiler GCC version 9.2.1 20190827 (Red Hat 9.2.1-1)
REM options -cpp -mtune=generic -march=x86-64 -g -O0 -fpre-include=/usr/include/finclude/math-vector-fortran.h
REM seed 201351358 -2035250137 -342455828 -1458449426 707366957 -2036439178 1490158054 1305088312 -1223405005 -1246405626 841017792 1398376283 -617106973 1513501790 1779805006 -212346222 261564944 216014614 380218462 1635409895 -579502861 80479575 140128235 333254652 -1852426258 990686162 -41033921 -341746645 -890006029 159215404 -340109572 -1260263299 1206899251
REM
CELL 1.54180   50.00000   50.00000   50.00000   90.00000   90.00000   90.00000
LATT -1
SFAC C  
C      1  0.5157020000000  0.5752740000000  0.4259320000000 1.0
C      1  0.5742000000000  0.5736850000000  0.4778180000000 1.0
C      1  0.5569460000000  0.5716220000000  0.5502680000000 1.0
C      1  0.4839380000000  0.5736540000000  0.5742010000000 1.0
C      1  0.4257980000000  0.5730210000000  0.5225440000000 1.0
C      1  0.4428200000000  0.5718950000000  0.4499520000000 1.0
C      1  0.4834730000000  0.4051540000000  0.4744130000000 1.0
C      1  0.5133860000000  0.4040680000000  0.4741600000000 1.0
C      1  0.5297480000000  0.4026370000000  0.5006050000000 1.0
C      1  0.5170520000000  0.4045080000000  0.5288630000000 1.0
C      1  0.4871680000000  0.4019390000000  0.5327380000000 1.0
C      1  0.4692980000000  0.4035930000000  0.5037440000000 1.0
C      1  0.5668360000000  0.5130000000000  0.6110410000000 1.0
C      1  0.4314590000000  0.5098680000000  0.6190380000000 1.0
C      1  0.3621670000000  0.5052380000000  0.5032710000000 1.0
C      1  0.4338360000000  0.5124650000000  0.3869530000000 1.0
C      1  0.5749470000000  0.5097890000000  0.3791880000000 1.0
C      1  0.6375410000000  0.5045300000000  0.4943650000000 1.0
C      1  0.4631750000000  0.5161130000000  0.5520450000000 1.0
C      1  0.4369030000000  0.5164420000000  0.5036720000000 1.0
C      1  0.4693020000000  0.5151970000000  0.4426500000000 1.0
C      1  0.5369640000000  0.5170170000000  0.4477760000000 1.0
C      1  0.5631160000000  0.5172930000000  0.4959150000000 1.0
C      1  0.5312540000000  0.5154790000000  0.5566250000000 1.0
C      1  0.5545050000000  0.5286350000000  0.5261130000000 1.0
C      1  0.5016140000000  0.5298040000000  0.5612370000000 1.0
C      1  0.4493410000000  0.5337230000000  0.5288470000000 1.0
C      1  0.4454490000000  0.5285460000000  0.4736550000000 1.0
C      1  0.4983000000000  0.5310110000000  0.4382390000000 1.0
C      1  0.5505810000000  0.5349080000000  0.4708730000000 1.0
C      1  0.5182750000000  0.5393820000000  0.3911090000000 1.0
C      1  0.5978910000000  0.5242230000000  0.4713380000000 1.0
C      1  0.5875910000000  0.5346020000000  0.5651110000000 1.0
C      1  0.4816610000000  0.5370220000000  0.6083480000000 1.0
C      1  0.4018480000000  0.5239810000000  0.5288810000000 1.0
C      1  0.4132720000000  0.5343920000000  0.4339350000000 1.0
C      1  0.4398170000000  0.4738710000000  0.4870590000000 1.0
C      1  0.4899210000000  0.4771010000000  0.4396700000000 1.0
C      1  0.5416940000000  0.4775790000000  0.4563280000000 1.0
C      1  0.5599750000000  0.4741930000000  0.5123150000000 1.0
C      1  0.5109900000000  0.4749210000000  0.5574620000000 1.0
C      1  0.4584130000000  0.4786280000000  0.5390170000000 1.0
C      1  0.4145170000000  0.4963310000000  0.5678540000000 1.0
C      1  0.3990390000000  0.4960560000000  0.4624230000000 1.0
C      1  0.4880030000000  0.5003820000000  0.3931290000000 1.0
C      1  0.5882550000000  0.4965410000000  0.4315810000000 1.0
C      1  0.6016500000000  0.4964820000000  0.5362970000000 1.0
C      1  0.5130950000000  0.4989770000000  0.6052400000000 1.0
C      1  0.4948830000000  0.4482040000000  0.5574790000000 1.0
C      1  0.4482020000000  0.4424060000000  0.5255610000000 1.0
C      1  0.4537690000000  0.4515580000000  0.4702890000000 1.0
C      1  0.5028900000000  0.4472810000000  0.4454390000000 1.0
C      1  0.5484740000000  0.4429590000000  0.4751750000000 1.0
C      1  0.5469250000000  0.4510240000000  0.5291060000000 1.0
C      1  0.5919160000000  0.4665150000000  0.5404820000000 1.0
C      1  0.5079010000000  0.4685400000000  0.6006510000000 1.0
C      1  0.4127020000000  0.4653570000000  0.5605380000000 1.0
C      1  0.4088880000000  0.4658340000000  0.4593360000000 1.0
C      1  0.4941100000000  0.4698420000000  0.3980980000000 1.0
C      1  0.5888280000000  0.4652350000000  0.4386710000000 1.0
C      1  0.5652080000000  0.4541200000000  0.4256220000000 1.0
C      1  0.5933550000000  0.4518730000000  0.5157930000000 1.0
C      1  0.5315700000000  0.4547310000000  0.5922220000000 1.0
C      1  0.4334450000000  0.4509210000000  0.5752060000000 1.0
C      1  0.4046030000000  0.4511750000000  0.4839590000000 1.0
C      1  0.4704300000000  0.4554470000000  0.4066850000000 1.0
C      1  0.5212300000000  0.4673810000000  0.4060940000000 1.0
C      1  0.5918510000000  0.4625080000000  0.4667390000000 1.0
C      1  0.5720380000000  0.4643690000000  0.5590960000000 1.0
C      1  0.4821790000000  0.4636480000000  0.5920610000000 1.0
C      1  0.4069150000000  0.4632380000000  0.5327520000000 1.0
C      1  0.4292190000000  0.4634420000000  0.4410310000000 1.0
C      1  0.4738300000000  0.4345140000000  0.5140260000000 1.0
C      1  0.4769720000000  0.4429430000000  0.4857420000000 1.0
C      1  0.5010010000000  0.4420240000000  0.4736890000000 1.0
C      1  0.5237580000000  0.4400770000000  0.4881220000000 1.0
C      1  0.5223330000000  0.4417800000000  0.5153860000000 1.0
C      1  0.4985170000000  0.4399450000000  0.5291100000000 1.0
C      1  0.4976780000000  0.5517600000000  0.4655180000000 1.0
C      1  0.5268870000000  0.5533360000000  0.4828920000000 1.0
C      1  0.5296580000000  0.5497890000000  0.5157100000000 1.0
C      1  0.5021030000000  0.5508280000000  0.5342010000000 1.0
C      1  0.4728630000000  0.5523960000000  0.5170430000000 1.0
C      1  0.4699630000000  0.5499460000000  0.4843380000000 1.0
C      1  0.5301000000000  0.5139220000000  0.4980470000000 1.0
C      1  0.5160780000000  0.5140900000000  0.5274360000000 1.0
C      1  0.4845090000000  0.5158640000000  0.5280990000000 1.0
C      1  0.4698720000000  0.5131870000000  0.5013400000000 1.0
C      1  0.4841750000000  0.5147880000000  0.4719490000000 1.0
C      1  0.5154550000000  0.5170030000000  0.4713430000000 1.0
C      1  0.4307520000000  0.4978490000000  0.4688390000000 1.0
C      1  0.5006420000000  0.5001140000000  0.4232800000000 1.0
C      1  0.5665490000000  0.4920870000000  0.4575720000000 1.0
C      1  0.5697210000000  0.4980990000000  0.5303560000000 1.0
C      1  0.5004820000000  0.4983750000000  0.5751630000000 1.0
C      1  0.4334920000000  0.4922620000000  0.5398360000000 1.0
C      1  0.5548600000000  0.5007730000000  0.5597130000000 1.0
C      1  0.4680680000000  0.4998970000000  0.5753270000000 1.0
C      1  0.4130340000000  0.4973830000000  0.5130200000000 1.0
C      1  0.4463600000000  0.4996520000000  0.4401520000000 1.0
C      1  0.5327990000000  0.5007290000000  0.4249470000000 1.0
C      1  0.5854450000000  0.4972210000000  0.4854750000000 1.0
C      1  0.4747580000000  0.4136770000000  0.5581450000000 1.0
C      1  0.4358520000000  0.4091050000000  0.5074890000000 1.0
C      1  0.4659010000000  0.4169640000000  0.4526480000000 1.0
C      1  0.5252230000000  0.4142120000000  0.4475930000000 1.0
C      1  0.5590370000000  0.4102730000000  0.4954490000000 1.0
C      1  0.5349130000000  0.4162140000000  0.5508820000000 1.0
C      1  0.6071120000000  0.5170730000000  0.4461650000000 1.0
C      1  0.6057320000000  0.5148000000000  0.5607870000000 1.0
C      1  0.4937010000000  0.5164590000000  0.6215380000000 1.0
C      1  0.3942060000000  0.5163430000000  0.5544180000000 1.0
C      1  0.3955320000000  0.5140860000000  0.4375960000000 1.0
C      1  0.5069510000000  0.5188050000000  0.3773270000000 1.0
C      1  0.5270890000000  0.4629050000000  0.4363060000000 1.0
C      1  0.5662180000000  0.4622060000000  0.4839470000000 1.0
C      1  0.5388140000000  0.4647890000000  0.5545670000000 1.0
C      1  0.4683860000000  0.4628720000000  0.5608330000000 1.0
C      1  0.4319100000000  0.4615380000000  0.5145040000000 1.0
C      1  0.4627060000000  0.4636300000000  0.4446470000000 1.0
C      1  0.5354110000000  0.5953750000000  0.4261290000000 1.0
C      1  0.5830470000000  0.5942160000000  0.4953530000000 1.0
C      1  0.5478750000000  0.5921030000000  0.5675860000000 1.0
C      1  0.4642820000000  0.5938210000000  0.5743600000000 1.0
C      1  0.4167630000000  0.5938400000000  0.5054830000000 1.0
C      1  0.4515850000000  0.5928220000000  0.4329790000000 1.0
C      1  0.6211210000000  0.5008480000000  0.5135490000000 1.0
C      1  0.5422770000000  0.5065920000000  0.6083900000000 1.0
C      1  0.4236820000000  0.5036530000000  0.5955410000000 1.0
C      1  0.3790330000000  0.5010380000000  0.4845870000000 1.0
C      1  0.4585910000000  0.5069430000000  0.3897750000000 1.0
C      1  0.5810480000000  0.5037140000000  0.4032120000000 1.0
C      1  0.4384330000000  0.4251930000000  0.4630000000000 1.0
C      1  0.5025580000000  0.4204260000000  0.4274990000000 1.0
C      1  0.5629190000000  0.4167140000000  0.4651030000000 1.0
C      1  0.5617030000000  0.4248620000000  0.5410990000000 1.0
C      1  0.4957590000000  0.4234150000000  0.5779870000000 1.0
C      1  0.4314020000000  0.4179880000000  0.5367030000000 1.0
C      1  0.4760140000000  0.6026000000000  0.4404240000000 1.0
C      1  0.5418350000000  0.6036340000000  0.4512950000000 1.0
C      1  0.5629810000000  0.6023520000000  0.5120490000000 1.0
C      1  0.5233130000000  0.6016200000000  0.5602670000000 1.0
C      1  0.4579530000000  0.6025070000000  0.5493040000000 1.0
C      1  0.4366310000000  0.6022760000000  0.4886950000000 1.0
C      1  0.4203540000000  0.5456960000000  0.5271350000000 1.0
C      1  0.4333210000000  0.5458370000000  0.4496440000000 1.0
C      1  0.5128530000000  0.5493670000000  0.4166320000000 1.0
C      1  0.5797930000000  0.5463040000000  0.4730010000000 1.0
C      1  0.5668240000000  0.5457060000000  0.5501290000000 1.0
C      1  0.4868770000000  0.5475920000000  0.5830120000000 1.0
C      1  0.4213140000000  0.4251740000000  0.4868070000000 1.0
C      1  0.4733150000000  0.4307670000000  0.4243530000000 1.0
C      1  0.5524200000000  0.4299410000000  0.4377060000000 1.0
C      1  0.5755170000000  0.4272670000000  0.5144030000000 1.0
C      1  0.5253470000000  0.4298840000000  0.5757780000000 1.0
C      1  0.4469370000000  0.4263080000000  0.5620310000000 1.0
C      1  0.4703840000000  0.4821340000000  0.4899750000000 1.0
C      1  0.4949300000000  0.4828050000000  0.4701270000000 1.0
C      1  0.5233810000000  0.4787250000000  0.4781590000000 1.0
C      1  0.5300370000000  0.4825180000000  0.5075810000000 1.0
C      1  0.5058470000000  0.4821790000000  0.5278160000000 1.0
C      1  0.4778250000000  0.4776940000000  0.5189650000000 1.0
C      1  0.5516720000000  0.4772470000000  0.4091540000000 1.0
C      1  0.6034470000000  0.4699210000000  0.4949360000000 1.0
C      1  0.5559830000000  0.4773590000000  0.5847800000000 1.0
C      1  0.4511670000000  0.4749130000000  0.5913580000000 1.0
C      1  0.3946330000000  0.4700390000000  0.5044670000000 1.0
C      1  0.4451540000000  0.4767080000000  0.4148470000000 1.0
C      1  0.4562180000000  0.5784110000000  0.5264800000000 1.0
C      1  0.4554290000000  0.5773590000000  0.4771080000000 1.0
C      1  0.4974140000000  0.5791390000000  0.4496010000000 1.0
C      1  0.5437840000000  0.5792700000000  0.4737980000000 1.0
C      1  0.5441570000000  0.5772230000000  0.5232010000000 1.0
C      1  0.5022360000000  0.5780070000000  0.5505830000000 1.0
C      1  0.5072880000000  0.6046850000000  0.5304250000000 1.0
C      1  0.4774610000000  0.6048950000000  0.5219900000000 1.0
C      1  0.4702400000000  0.6042010000000  0.4918500000000 1.0
C      1  0.4923440000000  0.6054600000000  0.4701360000000 1.0
C      1  0.5222260000000  0.6055360000000  0.4785500000000 1.0
C      1  0.5293990000000  0.6042100000000  0.5086790000000 1.0
END
