TITL C-2782228-2999-166 -0.000369350574721024 125000 -327.412270930782 0 0 59 (C1) n - 1
REM
REM in /home/nfs/bkarasulu/CARBON/AIRSS/Generating-Clusters/REBO/Higher-Symm/SD-CG/HFTN-CG
REM
REM
REM
REM
REM
REM ./C.cell (12c818d87b63d06a65506943cc24bca4)
REM
REM compiler GCC version 9.2.1 20190827 (Red Hat 9.2.1-1)
REM options -cpp -mtune=generic -march=x86-64 -g -O0 -fpre-include=/usr/include/finclude/math-vector-fortran.h
REM seed -1557103224 -392569249 -1234202719 389892303 1094205865 -1635228079 -170813505 1796848940 539020375 -740326606 -412232420 -1034899283 -1907787390 -212250146 1121882830 -1989829826 -898648331 906507703 -1532550352 -349259165 40385937 -2020989220 -62898468 -611952743 -1035748693 -2002866481 -656561636 -1005612365 656163322 876650054 -149249243 1354704991 -126858720
REM
CELL 1.54180   50.00000   50.00000   50.00000   90.00000   90.00000   90.00000
LATT -1
SFAC C  
C      1  0.4912720000000  0.5338720000000  0.5749220000000 1.0
C      1  0.5056400000000  0.5338880000000  0.4566250000000 1.0
C      1  0.4730920000000  0.5131370000000  0.4456910000000 1.0
C      1  0.5438000000000  0.4584350000000  0.4999910000000 1.0
C      1  0.5555840000000  0.4683400000000  0.4562140000000 1.0
C      1  0.4812200000000  0.4279460000000  0.4810120000000 1.0
C      1  0.4671910000000  0.4440050000000  0.5070770000000 1.0
C      1  0.4987220000000  0.4787570000000  0.5731810000000 1.0
C      1  0.4409170000000  0.5081240000000  0.4573060000000 1.0
C      1  0.5583870000000  0.5120930000000  0.4880820000000 1.0
C      1  0.5400690000000  0.4468920000000  0.4727890000000 1.0
C      1  0.5473600000000  0.4625610000000  0.5310600000000 1.0
C      1  0.4405490000000  0.5408260000000  0.4981140000000 1.0
C      1  0.5052170000000  0.5068700000000  0.4358800000000 1.0
C      1  0.5291700000000  0.5679780000000  0.5101490000000 1.0
C      1  0.4401530000000  0.5320600000000  0.5451260000000 1.0
C      1  0.4325520000000  0.4979680000000  0.5099430000000 1.0
C      1  0.5580030000000  0.5407050000000  0.5272140000000 1.0
C      1  0.5149480000000  0.4515760000000  0.5304180000000 1.0
C      1  0.4915940000000  0.5086260000000  0.4730810000000 1.0
C      1  0.5159290000000  0.5375210000000  0.5766820000000 1.0
C      1  0.5124520000000  0.4272000000000  0.4698370000000 1.0
C      1  0.5408560000000  0.4893170000000  0.5024210000000 1.0
C      1  0.4810340000000  0.4575740000000  0.5295710000000 1.0
C      1  0.4783940000000  0.5458170000000  0.4681390000000 1.0
C      1  0.5428090000000  0.5397610000000  0.4966220000000 1.0
C      1  0.5799760000000  0.4922010000000  0.5064800000000 1.0
C      1  0.5063310000000  0.4416290000000  0.4996080000000 1.0
C      1  0.5297490000000  0.5003200000000  0.5299480000000 1.0
C      1  0.5598270000000  0.5021430000000  0.4575270000000 1.0
C      1  0.5206730000000  0.4477320000000  0.4448360000000 1.0
C      1  0.4717090000000  0.5354620000000  0.4968580000000 1.0
C      1  0.5061070000000  0.4709570000000  0.4967170000000 1.0
C      1  0.4731530000000  0.5284610000000  0.5505030000000 1.0
C      1  0.5667120000000  0.4855780000000  0.5326200000000 1.0
C      1  0.4893880000000  0.5387080000000  0.5246980000000 1.0
C      1  0.4607570000000  0.5687830000000  0.4530860000000 1.0
C      1  0.5800940000000  0.4814090000000  0.4760280000000 1.0
C      1  0.5297830000000  0.5451080000000  0.4665300000000 1.0
C      1  0.4435790000000  0.4742100000000  0.4567490000000 1.0
C      1  0.5358110000000  0.5411750000000  0.5531990000000 1.0
C      1  0.4522260000000  0.5384170000000  0.4469010000000 1.0
C      1  0.5171290000000  0.5236340000000  0.5121650000000 1.0
C      1  0.4632120000000  0.5026030000000  0.5005250000000 1.0
C      1  0.5335140000000  0.4891990000000  0.4408730000000 1.0
C      1  0.4757330000000  0.4678800000000  0.4473760000000 1.0
C      1  0.4829150000000  0.4905850000000  0.5225230000000 1.0
C      1  0.5541080000000  0.5131090000000  0.5462070000000 1.0
C      1  0.5154220000000  0.5575330000000  0.5329980000000 1.0
C      1  0.5094970000000  0.4823450000000  0.5420930000000 1.0
C      1  0.4584150000000  0.4978860000000  0.5532250000000 1.0
C      1  0.4325100000000  0.5495920000000  0.5239630000000 1.0
C      1  0.4289230000000  0.5166580000000  0.4856050000000 1.0
C      1  0.4316670000000  0.5025630000000  0.5384630000000 1.0
C      1  0.5029900000000  0.5000900000000  0.4982760000000 1.0
C      1  0.4547020000000  0.4488680000000  0.4765060000000 1.0
C      1  0.5037640000000  0.4728860000000  0.4375430000000 1.0
C      1  0.4691370000000  0.4859330000000  0.4745910000000 1.0
C      1  0.4735730000000  0.4744940000000  0.5576310000000 1.0
END
