TITL C-2782239-8622-845 0.00403695136444415 125000 -1056.81593557794 0 0 178 (C2) n - 1
REM
REM in /home/nfs/bkarasulu/CARBON/AIRSS/Generating-Clusters/REBO/Higher-Symm/SD-CG/HFTN-CG
REM
REM
REM
REM
REM
REM ./C.cell (12c818d87b63d06a65506943cc24bca4)
REM
REM compiler GCC version 9.2.1 20190827 (Red Hat 9.2.1-1)
REM options -cpp -mtune=generic -march=x86-64 -g -O0 -fpre-include=/usr/include/finclude/math-vector-fortran.h
REM seed -1430937296 499535514 762427488 1215627659 203944718 -799957339 1882373163 -1190035150 -680432175 285026617 -895415521 858942042 2095532118 991314149 -1402931815 -1124344175 -1788724717 997020422 1358271285 1456544988 820731858 568030123 1129382746 -570536867 -19958180 -759000244 -230516480 -708331079 556563799 1460124062 1457430188 -1196718575 -1609023206
REM
CELL 1.54180   50.00000   50.00000   50.00000   90.00000   90.00000   90.00000
LATT -1
SFAC C  
C      1  0.5264370000000  0.4919210000000  0.5160470000000 1.0
C      1  0.4735570000000  0.4919400000000  0.4839540000000 1.0
C      1  0.5195750000000  0.5005140000000  0.4787850000000 1.0
C      1  0.4804260000000  0.5005310000000  0.5212150000000 1.0
C      1  0.4583730000000  0.4925480000000  0.5804230000000 1.0
C      1  0.5416210000000  0.4925110000000  0.4195780000000 1.0
C      1  0.4512270000000  0.5032610000000  0.3963660000000 1.0
C      1  0.5487750000000  0.5032300000000  0.6036340000000 1.0
C      1  0.5159040000000  0.4451520000000  0.4239880000000 1.0
C      1  0.4840540000000  0.4451690000000  0.5760160000000 1.0
C      1  0.5160110000000  0.5484140000000  0.5836290000000 1.0
C      1  0.4840250000000  0.5484210000000  0.4163680000000 1.0
C      1  0.5793020000000  0.5047260000000  0.4237600000000 1.0
C      1  0.4207010000000  0.5047920000000  0.5762390000000 1.0
C      1  0.5843610000000  0.4968560000000  0.5780010000000 1.0
C      1  0.4156370000000  0.4969150000000  0.4219990000000 1.0
C      1  0.5814560000000  0.5532600000000  0.5737580000000 1.0
C      1  0.4185840000000  0.5533170000000  0.4262390000000 1.0
C      1  0.5747140000000  0.4492780000000  0.4456400000000 1.0
C      1  0.4252470000000  0.4493390000000  0.5543630000000 1.0
C      1  0.4119790000000  0.5611830000000  0.4821750000000 1.0
C      1  0.5880680000000  0.5611170000000  0.5178210000000 1.0
C      1  0.4058350000000  0.4382820000000  0.5127010000000 1.0
C      1  0.5941170000000  0.4382090000000  0.4873030000000 1.0
C      1  0.4113600000000  0.5411300000000  0.5305080000000 1.0
C      1  0.5886710000000  0.5410600000000  0.4694900000000 1.0
C      1  0.3996670000000  0.4684900000000  0.4716140000000 1.0
C      1  0.6003090000000  0.4684160000000  0.5283880000000 1.0
C      1  0.4566660000000  0.4180660000000  0.5057500000000 1.0
C      1  0.5432720000000  0.4180330000000  0.4942550000000 1.0
C      1  0.4577860000000  0.5759110000000  0.4817310000000 1.0
C      1  0.5422720000000  0.5758800000000  0.5182640000000 1.0
C      1  0.5896980000000  0.4730990000000  0.4265020000000 1.0
C      1  0.4102810000000  0.4731730000000  0.5735000000000 1.0
C      1  0.5917520000000  0.5264230000000  0.5885780000000 1.0
C      1  0.4082680000000  0.5264870000000  0.4114210000000 1.0
C      1  0.5564270000000  0.4359020000000  0.5619900000000 1.0
C      1  0.4435240000000  0.4359410000000  0.4380140000000 1.0
C      1  0.5427120000000  0.5662350000000  0.4314270000000 1.0
C      1  0.4573380000000  0.5662720000000  0.5685690000000 1.0
C      1  0.4242720000000  0.5308680000000  0.4723320000000 1.0
C      1  0.5757510000000  0.5308120000000  0.5276660000000 1.0
C      1  0.4233590000000  0.4857680000000  0.5159630000000 1.0
C      1  0.5766300000000  0.4857090000000  0.4840380000000 1.0
C      1  0.5207700000000  0.5807490000000  0.5881650000000 1.0
C      1  0.4792910000000  0.5807590000000  0.4118290000000 1.0
C      1  0.5119040000000  0.4155580000000  0.4305980000000 1.0
C      1  0.4880310000000  0.4155720000000  0.5694080000000 1.0
C      1  0.3844120000000  0.5286790000000  0.3974820000000 1.0
C      1  0.6156100000000  0.5285970000000  0.6025160000000 1.0
C      1  0.3837510000000  0.4686930000000  0.5796790000000 1.0
C      1  0.6162250000000  0.4685990000000  0.4203230000000 1.0
C      1  0.4390700000000  0.5283800000000  0.4015950000000 1.0
C      1  0.5609510000000  0.5283400000000  0.5984030000000 1.0
C      1  0.4397240000000  0.4695410000000  0.5854950000000 1.0
C      1  0.5602530000000  0.4694900000000  0.4145070000000 1.0
C      1  0.5049570000000  0.4679980000000  0.5162590000000 1.0
C      1  0.4950180000000  0.4680010000000  0.4837430000000 1.0
C      1  0.5007040000000  0.5266750000000  0.4829980000000 1.0
C      1  0.4993160000000  0.5266770000000  0.5170000000000 1.0
C      1  0.5354990000000  0.5215120000000  0.5015230000000 1.0
C      1  0.4645180000000  0.5215390000000  0.4984760000000 1.0
C      1  0.5341630000000  0.4719860000000  0.4893230000000 1.0
C      1  0.4658150000000  0.4720130000000  0.5106790000000 1.0
C      1  0.4759830000000  0.5846040000000  0.5566320000000 1.0
C      1  0.5240810000000  0.5845820000000  0.4433620000000 1.0
C      1  0.4590500000000  0.4156370000000  0.4513660000000 1.0
C      1  0.5408860000000  0.4156090000000  0.5486400000000 1.0
C      1  0.4895390000000  0.4154700000000  0.4469350000000 1.0
C      1  0.5103960000000  0.4154660000000  0.5530700000000 1.0
C      1  0.5053590000000  0.5771470000000  0.5582440000000 1.0
C      1  0.4947000000000  0.5771470000000  0.4417500000000 1.0
C      1  0.4669570000000  0.5467850000000  0.4769560000000 1.0
C      1  0.5330790000000  0.5467610000000  0.5230410000000 1.0
C      1  0.4753420000000  0.4414670000000  0.5195890000000 1.0
C      1  0.5246140000000  0.4414470000000  0.4804150000000 1.0
C      1  0.5694660000000  0.5795120000000  0.5080380000000 1.0
C      1  0.4305950000000  0.5795650000000  0.4919560000000 1.0
C      1  0.5705320000000  0.4304910000000  0.4992550000000 1.0
C      1  0.4294150000000  0.4305450000000  0.5007490000000 1.0
C      1  0.5325100000000  0.5400420000000  0.5568020000000 1.0
C      1  0.4675210000000  0.5400630000000  0.4431950000000 1.0
C      1  0.5307840000000  0.4570530000000  0.4512260000000 1.0
C      1  0.4691830000000  0.4570790000000  0.5487770000000 1.0
C      1  0.4202900000000  0.4785190000000  0.4462660000000 1.0
C      1  0.5796940000000  0.4784610000000  0.5537360000000 1.0
C      1  0.4273070000000  0.5293340000000  0.5568950000000 1.0
C      1  0.5727150000000  0.5292750000000  0.4431030000000 1.0
C      1  0.5580640000000  0.5759290000000  0.5781200000000 1.0
C      1  0.4419940000000  0.5759690000000  0.4218750000000 1.0
C      1  0.5588380000000  0.4239980000000  0.4362930000000 1.0
C      1  0.4411040000000  0.4240470000000  0.5637120000000 1.0
C      1  0.5351300000000  0.5938410000000  0.5604860000000 1.0
C      1  0.4649410000000  0.5938640000000  0.4395080000000 1.0
C      1  0.5354860000000  0.4071940000000  0.4453980000000 1.0
C      1  0.4644430000000  0.4072250000000  0.5546080000000 1.0
C      1  0.4644840000000  0.4885430000000  0.5488510000000 1.0
C      1  0.5355070000000  0.4885130000000  0.4511490000000 1.0
C      1  0.4727900000000  0.5118800000000  0.4586370000000 1.0
C      1  0.5272190000000  0.5118620000000  0.5413620000000 1.0
C      1  0.5048850000000  0.5153480000000  0.3894530000000 1.0
C      1  0.4951270000000  0.5153590000000  0.6105460000000 1.0
C      1  0.5056910000000  0.4776710000000  0.6031520000000 1.0
C      1  0.4942920000000  0.4776680000000  0.3968500000000 1.0
C      1  0.4536420000000  0.5514440000000  0.4074520000000 1.0
C      1  0.5463970000000  0.5514150000000  0.5925440000000 1.0
C      1  0.4526620000000  0.4447760000000  0.5830180000000 1.0
C      1  0.5472960000000  0.4447350000000  0.4169850000000 1.0
C      1  0.4949770000000  0.5208510000000  0.5513280000000 1.0
C      1  0.5050380000000  0.5208430000000  0.4486710000000 1.0
C      1  0.4856960000000  0.4734610000000  0.4507540000000 1.0
C      1  0.5142840000000  0.4734530000000  0.5492480000000 1.0
C      1  0.4758520000000  0.5958320000000  0.4712770000000 1.0
C      1  0.5242210000000  0.5958160000000  0.5287160000000 1.0
C      1  0.4741030000000  0.4024190000000  0.5276820000000 1.0
C      1  0.5258220000000  0.4023970000000  0.4723240000000 1.0
C      1  0.5355520000000  0.5441570000000  0.4135160000000 1.0
C      1  0.4644810000000  0.5441900000000  0.5864810000000 1.0
C      1  0.5449260000000  0.4558400000000  0.5795000000000 1.0
C      1  0.4550410000000  0.4558690000000  0.4205030000000 1.0
C      1  0.4278100000000  0.4823820000000  0.4852210000000 1.0
C      1  0.5721770000000  0.4823280000000  0.5147800000000 1.0
C      1  0.4420150000000  0.5377740000000  0.5158030000000 1.0
C      1  0.5580130000000  0.5377290000000  0.4841940000000 1.0
C      1  0.4792710000000  0.4907530000000  0.6017350000000 1.0
C      1  0.5207220000000  0.4907300000000  0.3982660000000 1.0
C      1  0.4770860000000  0.5004360000000  0.3863770000000 1.0
C      1  0.5229140000000  0.5004260000000  0.6136230000000 1.0
C      1  0.5015120000000  0.5965050000000  0.4853850000000 1.0
C      1  0.4985620000000  0.5965080000000  0.5146080000000 1.0
C      1  0.5016790000000  0.3994050000000  0.5150860000000 1.0
C      1  0.4982440000000  0.3994050000000  0.4849210000000 1.0
C      1  0.5946860000000  0.5360280000000  0.4997910000000 1.0
C      1  0.4053420000000  0.5361010000000  0.5002060000000 1.0
C      1  0.6011340000000  0.4644460000000  0.4945930000000 1.0
C      1  0.3988390000000  0.4645240000000  0.5054090000000 1.0
C      1  0.4522100000000  0.4771690000000  0.4540920000000 1.0
C      1  0.5477730000000  0.4771360000000  0.5459090000000 1.0
C      1  0.4610010000000  0.5277380000000  0.5493170000000 1.0
C      1  0.5390200000000  0.5277050000000  0.4506820000000 1.0
C      1  0.5034310000000  0.5559520000000  0.5346350000000 1.0
C      1  0.4966120000000  0.5559520000000  0.4653610000000 1.0
C      1  0.4932060000000  0.4367240000000  0.4703490000000 1.0
C      1  0.5067450000000  0.4367210000000  0.5296560000000 1.0
C      1  0.4693850000000  0.4060800000000  0.4797170000000 1.0
C      1  0.5305430000000  0.4060580000000  0.5202890000000 1.0
C      1  0.4723320000000  0.5897040000000  0.5277030000000 1.0
C      1  0.5277370000000  0.5896810000000  0.4722910000000 1.0
C      1  0.5598870000000  0.5057830000000  0.5318650000000 1.0
C      1  0.4401180000000  0.5058260000000  0.4681350000000 1.0
C      1  0.5575200000000  0.5060870000000  0.4707470000000 1.0
C      1  0.4424840000000  0.5061330000000  0.5292530000000 1.0
C      1  0.5118280000000  0.4591860000000  0.5800990000000 1.0
C      1  0.4881410000000  0.4591900000000  0.4199040000000 1.0
C      1  0.5088610000000  0.5385720000000  0.4048660000000 1.0
C      1  0.4911680000000  0.5385850000000  0.5951310000000 1.0
C      1  0.4346140000000  0.4506810000000  0.4783430000000 1.0
C      1  0.5653480000000  0.4506330000000  0.5216600000000 1.0
C      1  0.4452190000000  0.5718280000000  0.5193270000000 1.0
C      1  0.5548360000000  0.5717850000000  0.4806680000000 1.0
C      1  0.4738530000000  0.5507040000000  0.5357200000000 1.0
C      1  0.5261860000000  0.5506810000000  0.4642770000000 1.0
C      1  0.4637630000000  0.4499400000000  0.4711280000000 1.0
C      1  0.5361990000000  0.4499140000000  0.5288750000000 1.0
C      1  0.4402730000000  0.4625170000000  0.5308050000000 1.0
C      1  0.5596980000000  0.4624690000000  0.4691970000000 1.0
C      1  0.4368480000000  0.5473760000000  0.4491960000000 1.0
C      1  0.5631880000000  0.5473320000000  0.5508000000000 1.0
C      1  0.4345990000000  0.5600560000000  0.5481310000000 1.0
C      1  0.5654460000000  0.5600020000000  0.4518650000000 1.0
C      1  0.4155940000000  0.4453740000000  0.4517190000000 1.0
C      1  0.5843640000000  0.4453130000000  0.5482840000000 1.0
C      1  0.4404870000000  0.4800380000000  0.4118090000000 1.0
C      1  0.5594980000000  0.4799980000000  0.5881920000000 1.0
C      1  0.4473020000000  0.5211850000000  0.5897100000000 1.0
C      1  0.5527140000000  0.5211390000000  0.4102890000000 1.0
C      1  0.5003310000000  0.4947290000000  0.5652150000000 1.0
C      1  0.4996650000000  0.4947250000000  0.4347860000000 1.0
END
