TITL C-2782237-5345-393 -0.00303034356234336 125000 -726.010105372078 0 0 128 (C1) n - 1
REM
REM in /home/nfs/bkarasulu/CARBON/AIRSS/Generating-Clusters/REBO/Higher-Symm/SD-CG/HFTN-CG
REM
REM
REM
REM
REM
REM ./C.cell (12c818d87b63d06a65506943cc24bca4)
REM
REM compiler GCC version 9.2.1 20190827 (Red Hat 9.2.1-1)
REM options -cpp -mtune=generic -march=x86-64 -g -O0 -fpre-include=/usr/include/finclude/math-vector-fortran.h
REM seed 1073535659 -725754608 -417832247 -1694848084 986674290 68893231 -1672390164 1334168490 1695589469 202211601 2040714478 -203599543 -346203580 -820259807 588694966 -549908121 98218653 2116127784 -1432783881 -640659132 400858644 -69735123 617389917 400807441 -1771486398 1163750855 -1028313594 45083231 71627976 -1633837186 -144622185 -1401450931 -785799068
REM
CELL 1.54180   50.00000   50.00000   50.00000   90.00000   90.00000   90.00000
LATT -1
SFAC C  
C      1  0.4165630000000  0.4719970000000  0.5265220000000 1.0
C      1  0.4188970000000  0.5335260000000  0.5094850000000 1.0
C      1  0.4157050000000  0.4881190000000  0.4639120000000 1.0
C      1  0.5515150000000  0.5431290000000  0.5697770000000 1.0
C      1  0.5494860000000  0.5401020000000  0.4300070000000 1.0
C      1  0.5495700000000  0.4182010000000  0.5026510000000 1.0
C      1  0.4649120000000  0.4511190000000  0.4231310000000 1.0
C      1  0.4642010000000  0.4625710000000  0.5772290000000 1.0
C      1  0.4518710000000  0.5826500000000  0.4887740000000 1.0
C      1  0.4528300000000  0.4764530000000  0.4276610000000 1.0
C      1  0.4515520000000  0.4545640000000  0.5537130000000 1.0
C      1  0.4471040000000  0.5748450000000  0.5172650000000 1.0
C      1  0.5942150000000  0.4632870000000  0.4983450000000 1.0
C      1  0.5956360000000  0.5145770000000  0.5328220000000 1.0
C      1  0.5948370000000  0.5197950000000  0.4704820000000 1.0
C      1  0.5333640000000  0.4839960000000  0.5273520000000 1.0
C      1  0.5335680000000  0.5297050000000  0.5027450000000 1.0
C      1  0.5332440000000  0.4862240000000  0.4734230000000 1.0
C      1  0.5839740000000  0.4856610000000  0.5207270000000 1.0
C      1  0.5854310000000  0.5241060000000  0.5024340000000 1.0
C      1  0.5843460000000  0.4892740000000  0.4788690000000 1.0
C      1  0.4287170000000  0.4472080000000  0.5066710000000 1.0
C      1  0.4320420000000  0.5288290000000  0.5406000000000 1.0
C      1  0.4296900000000  0.5173540000000  0.4529270000000 1.0
C      1  0.5185510000000  0.4428990000000  0.5065170000000 1.0
C      1  0.5193760000000  0.5338000000000  0.5481610000000 1.0
C      1  0.5175690000000  0.5264780000000  0.4494720000000 1.0
C      1  0.4646390000000  0.5166470000000  0.5890240000000 1.0
C      1  0.4618500000000  0.5721700000000  0.4424370000000 1.0
C      1  0.4639010000000  0.4128140000000  0.4667560000000 1.0
C      1  0.4929600000000  0.4547120000000  0.5199740000000 1.0
C      1  0.4964180000000  0.5428030000000  0.5284800000000 1.0
C      1  0.4935060000000  0.5051630000000  0.4509470000000 1.0
C      1  0.4541430000000  0.4822720000000  0.4548430000000 1.0
C      1  0.4560940000000  0.4723220000000  0.5319500000000 1.0
C      1  0.4559740000000  0.5478910000000  0.5076640000000 1.0
C      1  0.5715730000000  0.4674540000000  0.5472990000000 1.0
C      1  0.5777520000000  0.5574510000000  0.5055480000000 1.0
C      1  0.5716900000000  0.4762060000000  0.4495570000000 1.0
C      1  0.4788990000000  0.4785100000000  0.3895180000000 1.0
C      1  0.4713580000000  0.4236480000000  0.5716890000000 1.0
C      1  0.4832030000000  0.6050010000000  0.5238350000000 1.0
C      1  0.4962580000000  0.4165740000000  0.4569750000000 1.0
C      1  0.4964190000000  0.5061670000000  0.5952540000000 1.0
C      1  0.4930930000000  0.5825700000000  0.4519760000000 1.0
C      1  0.5178720000000  0.4308670000000  0.4781170000000 1.0
C      1  0.5212690000000  0.5171930000000  0.5752520000000 1.0
C      1  0.5180310000000  0.5595110000000  0.4502050000000 1.0
C      1  0.4646590000000  0.5871100000000  0.5372980000000 1.0
C      1  0.4613030000000  0.4949180000000  0.4059640000000 1.0
C      1  0.4521910000000  0.4230740000000  0.5457310000000 1.0
C      1  0.5607770000000  0.5106610000000  0.4331390000000 1.0
C      1  0.5598470000000  0.4360120000000  0.5262930000000 1.0
C      1  0.5640020000000  0.5533530000000  0.5425800000000 1.0
C      1  0.4917630000000  0.4763700000000  0.4934870000000 1.0
C      1  0.4968850000000  0.5087460000000  0.5267390000000 1.0
C      1  0.4961330000000  0.5189260000000  0.4821670000000 1.0
C      1  0.5567060000000  0.4709730000000  0.4869590000000 1.0
C      1  0.5574410000000  0.5027550000000  0.5335810000000 1.0
C      1  0.5574560000000  0.5265080000000  0.4829510000000 1.0
C      1  0.5368570000000  0.4572700000000  0.4551320000000 1.0
C      1  0.5369500000000  0.4831170000000  0.5616360000000 1.0
C      1  0.5335930000000  0.5600900000000  0.4867230000000 1.0
C      1  0.5223030000000  0.5397600000000  0.4165660000000 1.0
C      1  0.5228990000000  0.4071410000000  0.5096320000000 1.0
C      1  0.5245740000000  0.5566130000000  0.5750120000000 1.0
C      1  0.4049400000000  0.4758140000000  0.4942350000000 1.0
C      1  0.4080530000000  0.5037760000000  0.5221600000000 1.0
C      1  0.4067120000000  0.5140000000000  0.4843950000000 1.0
C      1  0.4379240000000  0.4195360000000  0.5166160000000 1.0
C      1  0.4330070000000  0.5467030000000  0.5638880000000 1.0
C      1  0.4303410000000  0.5303060000000  0.4269890000000 1.0
C      1  0.4751440000000  0.4097170000000  0.5244780000000 1.0
C      1  0.4769040000000  0.5718460000000  0.5591050000000 1.0
C      1  0.4738960000000  0.5207600000000  0.4101590000000 1.0
C      1  0.5783410000000  0.4508270000000  0.4708230000000 1.0
C      1  0.5799080000000  0.4981650000000  0.5582510000000 1.0
C      1  0.5794760000000  0.5501610000000  0.4729820000000 1.0
C      1  0.4801840000000  0.5786670000000  0.4829300000000 1.0
C      1  0.4895930000000  0.4487950000000  0.4351480000000 1.0
C      1  0.4892160000000  0.4733440000000  0.5744530000000 1.0
C      1  0.4389110000000  0.5677810000000  0.4673110000000 1.0
C      1  0.4410590000000  0.4370430000000  0.4595440000000 1.0
C      1  0.4414600000000  0.4966070000000  0.5749910000000 1.0
C      1  0.4967440000000  0.4551370000000  0.4673220000000 1.0
C      1  0.5004090000000  0.4984540000000  0.5563420000000 1.0
C      1  0.4955510000000  0.5494290000000  0.4736550000000 1.0
C      1  0.5020680000000  0.4144790000000  0.5288470000000 1.0
C      1  0.5051790000000  0.5699750000000  0.5568890000000 1.0
C      1  0.5017130000000  0.5190100000000  0.4137300000000 1.0
C      1  0.5468580000000  0.5662720000000  0.5167430000000 1.0
C      1  0.5415960000000  0.4826200000000  0.4345690000000 1.0
C      1  0.5410900000000  0.4519690000000  0.5499480000000 1.0
C      1  0.5512810000000  0.4330540000000  0.4741980000000 1.0
C      1  0.5536050000000  0.5107390000000  0.5725860000000 1.0
C      1  0.5511480000000  0.5568460000000  0.4577790000000 1.0
C      1  0.5175000000000  0.4363400000000  0.4390150000000 1.0
C      1  0.5166660000000  0.4798310000000  0.5873880000000 1.0
C      1  0.5128340000000  0.5846370000000  0.4805930000000 1.0
C      1  0.4269990000000  0.4960070000000  0.5490640000000 1.0
C      1  0.4251730000000  0.5415990000000  0.4766620000000 1.0
C      1  0.4250780000000  0.4566050000000  0.4740500000000 1.0
C      1  0.4585000000000  0.4816510000000  0.4868110000000 1.0
C      1  0.4657740000000  0.4989090000000  0.5220620000000 1.0
C      1  0.4660080000000  0.5194600000000  0.4959710000000 1.0
C      1  0.4618650000000  0.5133550000000  0.4626670000000 1.0
C      1  0.4614970000000  0.4537080000000  0.5059520000000 1.0
C      1  0.4645110000000  0.5307150000000  0.5342490000000 1.0
C      1  0.4710130000000  0.5432980000000  0.4545180000000 1.0
C      1  0.4741470000000  0.4384670000000  0.4819570000000 1.0
C      1  0.4813010000000  0.5226540000000  0.5621130000000 1.0
C      1  0.5027830000000  0.4722950000000  0.4018950000000 1.0
C      1  0.4943390000000  0.4338110000000  0.5713960000000 1.0
C      1  0.5043890000000  0.5937590000000  0.5107550000000 1.0
C      1  0.4587200000000  0.5441930000000  0.4231580000000 1.0
C      1  0.4591560000000  0.4051100000000  0.4980830000000 1.0
C      1  0.4627080000000  0.5480310000000  0.5746160000000 1.0
C      1  0.5424420000000  0.5130210000000  0.4602370000000 1.0
C      1  0.5430110000000  0.4597680000000  0.5110230000000 1.0
C      1  0.5442210000000  0.5295660000000  0.5318360000000 1.0
C      1  0.5894370000000  0.4471090000000  0.5263130000000 1.0
C      1  0.5935120000000  0.5466810000000  0.5338630000000 1.0
C      1  0.5900000000000  0.5042670000000  0.4427760000000 1.0
C      1  0.5163870000000  0.5703720000000  0.5264610000000 1.0
C      1  0.5123880000000  0.4906320000000  0.4263180000000 1.0
C      1  0.5110140000000  0.4413570000000  0.5457410000000 1.0
C      1  0.5166930000000  0.4992140000000  0.5008100000000 1.0
C      1  0.4327060000000  0.4958900000000  0.4989570000000 1.0
END
