TITL C-2782232-2968-429 0.000251860918724744 125000 -207.369782555584 0 0 37 (C1) n - 1
REM
REM in /home/nfs/bkarasulu/CARBON/AIRSS/Generating-Clusters/REBO/Higher-Symm/SD-CG/HFTN-CG
REM
REM
REM
REM
REM
REM ./C.cell (12c818d87b63d06a65506943cc24bca4)
REM
REM compiler GCC version 9.2.1 20190827 (Red Hat 9.2.1-1)
REM options -cpp -mtune=generic -march=x86-64 -g -O0 -fpre-include=/usr/include/finclude/math-vector-fortran.h
REM seed 1218807804 2031954152 335840334 -1533090653 -35730820 349748604 -1162280053 -1607608410 -1206048953 234477758 1911910196 2075983345 -1096966724 1715696279 1989675937 1693135457 405373602 -1373334687 691913233 -169093109 -871239252 -555115348 -788662390 371920913 -777026043 611993673 1121324714 -1315429686 398337591 -1231670522 -71802822 1844263519 -933167547
REM
CELL 1.54180   50.00000   50.00000   50.00000   90.00000   90.00000   90.00000
LATT -1
SFAC C  
C      1  0.4879060000000  0.4607010000000  0.5549460000000 1.0
C      1  0.5509560000000  0.4567070000000  0.5270550000000 1.0
C      1  0.5410820000000  0.4603430000000  0.4571600000000 1.0
C      1  0.4784850000000  0.4582360000000  0.4442840000000 1.0
C      1  0.4431290000000  0.4566890000000  0.5071430000000 1.0
C      1  0.4954960000000  0.4577920000000  0.5236260000000 1.0
C      1  0.5229340000000  0.4569680000000  0.5108930000000 1.0
C      1  0.5191700000000  0.4576180000000  0.4807930000000 1.0
C      1  0.4895250000000  0.4570410000000  0.4746850000000 1.0
C      1  0.4749390000000  0.4564680000000  0.5012840000000 1.0
C      1  0.4696490000000  0.5029380000000  0.5245610000000 1.0
C      1  0.5202490000000  0.5016450000000  0.5392310000000 1.0
C      1  0.5473460000000  0.5003830000000  0.4933800000000 1.0
C      1  0.5066990000000  0.5044830000000  0.4596490000000 1.0
C      1  0.4565960000000  0.4982690000000  0.4740280000000 1.0
C      1  0.5234940000000  0.5323500000000  0.4496110000000 1.0
C      1  0.4484490000000  0.5274750000000  0.4594870000000 1.0
C      1  0.4484480000000  0.5282980000000  0.5250450000000 1.0
C      1  0.5170000000000  0.5335450000000  0.5497490000000 1.0
C      1  0.5704770000000  0.5208830000000  0.5075250000000 1.0
C      1  0.4689380000000  0.5441620000000  0.4543540000000 1.0
C      1  0.4269820000000  0.5271890000000  0.5084200000000 1.0
C      1  0.4963490000000  0.5483780000000  0.5414460000000 1.0
C      1  0.5690050000000  0.5249180000000  0.5349700000000 1.0
C      1  0.5493310000000  0.5368410000000  0.4556270000000 1.0
C      1  0.4790100000000  0.5374830000000  0.5193410000000 1.0
C      1  0.5458150000000  0.5215370000000  0.5500790000000 1.0
C      1  0.5622390000000  0.5264730000000  0.4778700000000 1.0
C      1  0.4957340000000  0.5362820000000  0.4662350000000 1.0
C      1  0.4294380000000  0.5174830000000  0.4821740000000 1.0
C      1  0.4581840000000  0.4851520000000  0.5023590000000 1.0
C      1  0.4926700000000  0.4882750000000  0.5382990000000 1.0
C      1  0.5382470000000  0.4856070000000  0.5191610000000 1.0
C      1  0.5302580000000  0.4876500000000  0.4712190000000 1.0
C      1  0.4814820000000  0.4865400000000  0.4600270000000 1.0
C      1  0.5076130000000  0.5028950000000  0.5004000000000 1.0
C      1  0.4949370000000  0.5258320000000  0.4957340000000 1.0
END
