TITL C-2782233-7966-1209 0.00201429463967619 125000 -807.142926384373 0 0 134 (C1) n - 1
REM
REM in /home/nfs/bkarasulu/CARBON/AIRSS/Generating-Clusters/REBO/Higher-Symm/SD-CG/HFTN-CG
REM
REM
REM
REM
REM
REM ./C.cell (12c818d87b63d06a65506943cc24bca4)
REM
REM compiler GCC version 9.2.1 20190827 (Red Hat 9.2.1-1)
REM options -cpp -mtune=generic -march=x86-64 -g -O0 -fpre-include=/usr/include/finclude/math-vector-fortran.h
REM seed -200748116 -251548789 -435736592 786893375 -1139461646 1080015285 -413545734 -1815519028 688649855 -580931854 -58523289 -1122740515 -1249808801 5539388 418793529 -1166936671 -2122158786 1078700646 -1721886118 454577741 642270077 161068550 909566320 -377702760 -555773169 -913975185 1828406120 -132669461 458049034 -628834277 2023439533 -690620570 993191202
REM
CELL 1.54180   50.00000   50.00000   50.00000   90.00000   90.00000   90.00000
LATT -1
SFAC C  
C      1  0.4776060000000  0.5223920000000  0.5515880000000 1.0
C      1  0.4807660000000  0.5358830000000  0.4514740000000 1.0
C      1  0.4810700000000  0.4419280000000  0.4976850000000 1.0
C      1  0.5227070000000  0.5209950000000  0.4500520000000 1.0
C      1  0.5186480000000  0.5246780000000  0.5482370000000 1.0
C      1  0.5208390000000  0.4442550000000  0.4971090000000 1.0
C      1  0.5839520000000  0.5420110000000  0.4702770000000 1.0
C      1  0.5813140000000  0.4572300000000  0.4787530000000 1.0
C      1  0.5814090000000  0.5083330000000  0.5524140000000 1.0
C      1  0.4071250000000  0.5443920000000  0.6057100000000 1.0
C      1  0.4096930000000  0.4241570000000  0.5031470000000 1.0
C      1  0.4147200000000  0.5728530000000  0.3977270000000 1.0
C      1  0.5296260000000  0.5052130000000  0.4141870000000 1.0
C      1  0.5331500000000  0.4267490000000  0.5369230000000 1.0
C      1  0.5268700000000  0.5679070000000  0.5438480000000 1.0
C      1  0.4697480000000  0.5060040000000  0.5889510000000 1.0
C      1  0.4694820000000  0.4205310000000  0.4644220000000 1.0
C      1  0.4714620000000  0.5743460000000  0.4466290000000 1.0
C      1  0.4488910000000  0.5192800000000  0.5340790000000 1.0
C      1  0.4503820000000  0.5231180000000  0.4598830000000 1.0
C      1  0.4508580000000  0.4561900000000  0.5045060000000 1.0
C      1  0.5532500000000  0.5088980000000  0.4521040000000 1.0
C      1  0.5488990000000  0.5196060000000  0.5322350000000 1.0
C      1  0.5504950000000  0.4555110000000  0.5039570000000 1.0
C      1  0.4964310000000  0.4473000000000  0.5738660000000 1.0
C      1  0.4911140000000  0.5882610000000  0.5077230000000 1.0
C      1  0.4937020000000  0.4635640000000  0.4166140000000 1.0
C      1  0.5120660000000  0.4404310000000  0.4196060000000 1.0
C      1  0.5099830000000  0.5911530000000  0.4851140000000 1.0
C      1  0.5140930000000  0.4637230000000  0.5900740000000 1.0
C      1  0.4565740000000  0.5364340000000  0.5855290000000 1.0
C      1  0.4609410000000  0.5569900000000  0.4207560000000 1.0
C      1  0.4579890000000  0.4097270000000  0.4939890000000 1.0
C      1  0.5471190000000  0.5337070000000  0.4214250000000 1.0
C      1  0.5419910000000  0.5498170000000  0.5685420000000 1.0
C      1  0.5468480000000  0.4159200000000  0.5075540000000 1.0
C      1  0.5049030000000  0.4889890000000  0.4313330000000 1.0
C      1  0.5064260000000  0.4452810000000  0.5452160000000 1.0
C      1  0.4995740000000  0.5644070000000  0.5236110000000 1.0
C      1  0.4930770000000  0.4869950000000  0.5762410000000 1.0
C      1  0.4928200000000  0.4384720000000  0.4476750000000 1.0
C      1  0.4908070000000  0.5698550000000  0.4723330000000 1.0
C      1  0.4445020000000  0.4816800000000  0.4132000000000 1.0
C      1  0.4499860000000  0.4322590000000  0.5654040000000 1.0
C      1  0.4435250000000  0.5842170000000  0.5229920000000 1.0
C      1  0.5583620000000  0.4832280000000  0.5905900000000 1.0
C      1  0.5570190000000  0.4355010000000  0.4392130000000 1.0
C      1  0.5571410000000  0.5851830000000  0.4720450000000 1.0
C      1  0.4556290000000  0.4767190000000  0.5861550000000 1.0
C      1  0.4534050000000  0.5838430000000  0.4735850000000 1.0
C      1  0.4480070000000  0.4407320000000  0.4483340000000 1.0
C      1  0.5450170000000  0.4768190000000  0.4170820000000 1.0
C      1  0.5453030000000  0.5787950000000  0.5190490000000 1.0
C      1  0.5497480000000  0.4438690000000  0.5612080000000 1.0
C      1  0.4746670000000  0.5492270000000  0.5317510000000 1.0
C      1  0.4791470000000  0.5045430000000  0.4395450000000 1.0
C      1  0.4794520000000  0.4445580000000  0.5295540000000 1.0
C      1  0.5365450000000  0.5455520000000  0.4638650000000 1.0
C      1  0.5208290000000  0.4993270000000  0.5676530000000 1.0
C      1  0.5188350000000  0.4413730000000  0.4658700000000 1.0
C      1  0.5154500000000  0.5439820000000  0.5071430000000 1.0
C      1  0.5176590000000  0.4726830000000  0.4569200000000 1.0
C      1  0.5103310000000  0.4738890000000  0.5310030000000 1.0
C      1  0.4815580000000  0.5479900000000  0.4894920000000 1.0
C      1  0.4838910000000  0.4796730000000  0.5480070000000 1.0
C      1  0.4776560000000  0.4669580000000  0.4530040000000 1.0
C      1  0.4272820000000  0.4703830000000  0.5828600000000 1.0
C      1  0.4248420000000  0.5801230000000  0.4788870000000 1.0
C      1  0.4215190000000  0.4577390000000  0.4611930000000 1.0
C      1  0.5626910000000  0.4826570000000  0.4390690000000 1.0
C      1  0.5684230000000  0.5628500000000  0.5119850000000 1.0
C      1  0.5702320000000  0.4614860000000  0.5505740000000 1.0
C      1  0.5722960000000  0.4578490000000  0.4514650000000 1.0
C      1  0.5775680000000  0.4840440000000  0.5683290000000 1.0
C      1  0.5777150000000  0.5674690000000  0.4837970000000 1.0
C      1  0.4239200000000  0.4445550000000  0.5713280000000 1.0
C      1  0.4261640000000  0.4654410000000  0.4317550000000 1.0
C      1  0.4190950000000  0.5807770000000  0.5067470000000 1.0
C      1  0.5027330000000  0.5518970000000  0.5612080000000 1.0
C      1  0.5058370000000  0.5276900000000  0.4212940000000 1.0
C      1  0.5078470000000  0.4185780000000  0.5156340000000 1.0
C      1  0.4984900000000  0.5576500000000  0.4342030000000 1.0
C      1  0.4948500000000  0.5266620000000  0.5805920000000 1.0
C      1  0.4964530000000  0.4144740000000  0.4844270000000 1.0
C      1  0.5629430000000  0.5326470000000  0.5578400000000 1.0
C      1  0.5708310000000  0.5335500000000  0.4458480000000 1.0
C      1  0.5722030000000  0.4327690000000  0.4975810000000 1.0
C      1  0.4371430000000  0.5651570000000  0.4088990000000 1.0
C      1  0.4311240000000  0.5405300000000  0.5959160000000 1.0
C      1  0.4366400000000  0.4286310000000  0.5006110000000 1.0
C      1  0.4109310000000  0.4787110000000  0.4822020000000 1.0
C      1  0.4160130000000  0.4911610000000  0.5136150000000 1.0
C      1  0.4148510000000  0.5118540000000  0.4897150000000 1.0
C      1  0.5826650000000  0.5000480000000  0.5216910000000 1.0
C      1  0.5804870000000  0.4847300000000  0.4913200000000 1.0
C      1  0.5864660000000  0.5183010000000  0.4929910000000 1.0
C      1  0.4542430000000  0.5384380000000  0.5066970000000 1.0
C      1  0.4569380000000  0.4913620000000  0.4606520000000 1.0
C      1  0.4564640000000  0.4695060000000  0.5340730000000 1.0
C      1  0.5392350000000  0.5447460000000  0.4915890000000 1.0
C      1  0.5353960000000  0.4898140000000  0.5385890000000 1.0
C      1  0.5432910000000  0.4705510000000  0.4771750000000 1.0
C      1  0.4431140000000  0.4798630000000  0.4865000000000 1.0
C      1  0.4368910000000  0.4933910000000  0.5319120000000 1.0
C      1  0.4355800000000  0.5297150000000  0.4837350000000 1.0
C      1  0.5603380000000  0.4749120000000  0.5246010000000 1.0
C      1  0.5526960000000  0.5005590000000  0.4818620000000 1.0
C      1  0.5620650000000  0.5318450000000  0.5088860000000 1.0
C      1  0.5411770000000  0.4204010000000  0.4579520000000 1.0
C      1  0.5404760000000  0.5060480000000  0.5917350000000 1.0
C      1  0.5441800000000  0.5717500000000  0.4499330000000 1.0
C      1  0.4621440000000  0.4201050000000  0.5423960000000 1.0
C      1  0.4586900000000  0.5060800000000  0.4132170000000 1.0
C      1  0.4555180000000  0.5708080000000  0.5459440000000 1.0
C      1  0.5092690000000  0.5020230000000  0.4688860000000 1.0
C      1  0.5080250000000  0.4712870000000  0.5009520000000 1.0
C      1  0.5115300000000  0.5162160000000  0.5184690000000 1.0
C      1  0.4839150000000  0.5031270000000  0.5243890000000 1.0
C      1  0.4818860000000  0.4707060000000  0.4838610000000 1.0
C      1  0.4844360000000  0.5166780000000  0.4792810000000 1.0
C      1  0.5308220000000  0.5582010000000  0.4265340000000 1.0
C      1  0.5299580000000  0.4077860000000  0.4841830000000 1.0
C      1  0.5266780000000  0.5334620000000  0.5872780000000 1.0
C      1  0.4703120000000  0.5567660000000  0.5704380000000 1.0
C      1  0.4757650000000  0.4069410000000  0.5174960000000 1.0
C      1  0.4742380000000  0.5329910000000  0.4122790000000 1.0
C      1  0.5417320000000  0.4587230000000  0.5862740000000 1.0
C      1  0.5375630000000  0.5917110000000  0.4933180000000 1.0
C      1  0.5396690000000  0.4478880000000  0.4182530000000 1.0
C      1  0.4639560000000  0.4576700000000  0.4235150000000 1.0
C      1  0.4638220000000  0.5893750000000  0.5009790000000 1.0
C      1  0.4689430000000  0.4516580000000  0.5780280000000 1.0
C      1  0.4699200000000  0.4974400000000  0.4979820000000 1.0
C      1  0.5239780000000  0.4987370000000  0.4975950000000 1.0
END
