TITL C-2782232-2968-910 2.45585613327833e-05 125000 -154.46267045691 0 0 29 (C1) n - 1
REM
REM in /home/nfs/bkarasulu/CARBON/AIRSS/Generating-Clusters/REBO/Higher-Symm/SD-CG/HFTN-CG
REM
REM
REM
REM
REM
REM ./C.cell (12c818d87b63d06a65506943cc24bca4)
REM
REM compiler GCC version 9.2.1 20190827 (Red Hat 9.2.1-1)
REM options -cpp -mtune=generic -march=x86-64 -g -O0 -fpre-include=/usr/include/finclude/math-vector-fortran.h
REM seed -266164896 -445704190 579669130 627795416 -1158016435 -927998407 1735324740 -1211382792 -1172412451 291195697 174288650 152214862 43355154 1215046287 1325238141 -1552741529 2022824479 226030577 -946908725 -1589435009 286119198 438961141 -1834396975 2058149743 693202975 174106776 -368383583 -1078856094 1626143225 -1431408221 -1427765001 419806373 1637963755
REM
CELL 1.54180   50.00000   50.00000   50.00000   90.00000   90.00000   90.00000
LATT -1
SFAC C  
C      1  0.5128460000000  0.4427600000000  0.4818550000000 1.0
C      1  0.4693990000000  0.4499300000000  0.5087350000000 1.0
C      1  0.5152200000000  0.4573180000000  0.5310740000000 1.0
C      1  0.5177180000000  0.5548920000000  0.5027920000000 1.0
C      1  0.4943490000000  0.5559480000000  0.4546420000000 1.0
C      1  0.4698240000000  0.5547530000000  0.4770710000000 1.0
C      1  0.4924490000000  0.5095740000000  0.4331640000000 1.0
C      1  0.4183560000000  0.4884300000000  0.5555250000000 1.0
C      1  0.5887430000000  0.4850090000000  0.5401450000000 1.0
C      1  0.5649160000000  0.4815300000000  0.5293440000000 1.0
C      1  0.4926870000000  0.4777560000000  0.4323540000000 1.0
C      1  0.4397220000000  0.4841060000000  0.5406500000000 1.0
C      1  0.5249810000000  0.5014320000000  0.5025930000000 1.0
C      1  0.4958980000000  0.4943080000000  0.4626950000000 1.0
C      1  0.4749960000000  0.5026420000000  0.5071990000000 1.0
C      1  0.5287170000000  0.4485680000000  0.5034530000000 1.0
C      1  0.4809460000000  0.4434690000000  0.4847190000000 1.0
C      1  0.4879210000000  0.4579520000000  0.5335100000000 1.0
C      1  0.5334070000000  0.5671670000000  0.5187430000000 1.0
C      1  0.5064770000000  0.5802620000000  0.4489810000000 1.0
C      1  0.4459250000000  0.5606520000000  0.4840630000000 1.0
C      1  0.6124040000000  0.4884630000000  0.5508710000000 1.0
C      1  0.4920200000000  0.5359820000000  0.4316690000000 1.0
C      1  0.3971390000000  0.4927230000000  0.5702970000000 1.0
C      1  0.4640470000000  0.4791840000000  0.5237140000000 1.0
C      1  0.5377910000000  0.4775700000000  0.5170480000000 1.0
C      1  0.4952450000000  0.4608330000000  0.4604750000000 1.0
C      1  0.4990410000000  0.5402790000000  0.4838040000000 1.0
C      1  0.4986130000000  0.5100460000000  0.4878730000000 1.0
END
