TITL C-2782225-7408-674 -4.60717907033689e-07 125000 -166.777415437668 0 0 29 (C2v) n - 1
REM
REM in /home/nfs/bkarasulu/CARBON/AIRSS/Generating-Clusters/REBO/Higher-Symm/SD-CG/HFTN-CG
REM
REM
REM
REM
REM
REM ./C.cell (12c818d87b63d06a65506943cc24bca4)
REM
REM compiler GCC version 9.2.1 20190827 (Red Hat 9.2.1-1)
REM options -cpp -mtune=generic -march=x86-64 -g -O0 -fpre-include=/usr/include/finclude/math-vector-fortran.h
REM seed -1852868217 1954462471 796817162 431223081 -1466536145 -873438736 -1206639130 -1106971321 -1770453239 -355872073 -1935549882 -353033557 -983771866 275138805 400171272 -82239944 974601334 384560778 -452242246 948874858 364169978 -1074197055 -1637106257 440577313 -644269413 1224543744 -1197503259 2116491010 -586802138 1355642258 206437520 -908287812 -1539742521
REM
CELL 1.54180   50.00000   50.00000   50.00000   90.00000   90.00000   90.00000
LATT -1
SFAC C  
C      1  0.5068830000000  0.5242830000000  0.5123440000000 1.0
C      1  0.5039880000000  0.5032650000000  0.5312350000000 1.0
C      1  0.5029620000000  0.4704600000000  0.4945770000000 1.0
C      1  0.5058580000000  0.4914790000000  0.4756870000000 1.0
C      1  0.5078180000000  0.5183900000000  0.4845700000000 1.0
C      1  0.5133820000000  0.5587810000000  0.4482690000000 1.0
C      1  0.5106500000000  0.5759990000000  0.5294160000000 1.0
C      1  0.5021910000000  0.5145900000000  0.5846080000000 1.0
C      1  0.4991950000000  0.4187440000000  0.4775050000000 1.0
C      1  0.5076550000000  0.4801540000000  0.4223140000000 1.0
C      1  0.5085310000000  0.4746290000000  0.3962770000000 1.0
C      1  0.5160960000000  0.5784850000000  0.4305610000000 1.0
C      1  0.5124880000000  0.6012270000000  0.5377440000000 1.0
C      1  0.5013140000000  0.5201140000000  0.6106440000000 1.0
C      1  0.4973580000000  0.3935160000000  0.4691770000000 1.0
C      1  0.5088120000000  0.5507710000000  0.5210880000000 1.0
C      1  0.5030670000000  0.5090650000000  0.5585710000000 1.0
C      1  0.5010330000000  0.4439730000000  0.4858330000000 1.0
C      1  0.5067780000000  0.4856780000000  0.4483510000000 1.0
C      1  0.5106680000000  0.5390770000000  0.4659780000000 1.0
C      1  0.5187670000000  0.5978750000000  0.4131340000000 1.0
C      1  0.5142960000000  0.6260540000000  0.5459400000000 1.0
C      1  0.5004520000000  0.5255510000000  0.6362670000000 1.0
C      1  0.4955490000000  0.3686890000000  0.4609810000000 1.0
C      1  0.5093940000000  0.4691930000000  0.3706540000000 1.0
C      1  0.5020270000000  0.4763530000000  0.5223510000000 1.0
C      1  0.4937930000000  0.4165720000000  0.5760790000000 1.0
C      1  0.4964640000000  0.4359620000000  0.5586520000000 1.0
C      1  0.4991780000000  0.4556660000000  0.5409430000000 1.0
END
