TITL C-2782226-7400-892 -0.00126161776954226 125000 -540.704725967486 0 0 93 (C1) n - 1
REM
REM in /home/nfs/bkarasulu/CARBON/AIRSS/Generating-Clusters/REBO/Higher-Symm/SD-CG/HFTN-CG
REM
REM
REM
REM
REM
REM ./C.cell (12c818d87b63d06a65506943cc24bca4)
REM
REM compiler GCC version 9.2.1 20190827 (Red Hat 9.2.1-1)
REM options -cpp -mtune=generic -march=x86-64 -g -O0 -fpre-include=/usr/include/finclude/math-vector-fortran.h
REM seed 30286988 -735276849 116692276 -1016107676 316182089 336471129 -587327728 1936538639 550043687 159151741 1120746284 844925356 114340258 -1880749995 1397146851 -260074802 -705037269 249240692 728500634 -296479262 -451268150 -154346412 -1079938566 -1931408938 1024065636 -13539146 1698327824 1399846550 -1735451422 1724992753 1589684654 -862081864 106424486
REM
CELL 1.54180   50.00000   50.00000   50.00000   90.00000   90.00000   90.00000
LATT -1
SFAC C  
C      1  0.4141760000000  0.4877980000000  0.5066800000000 1.0
C      1  0.4536360000000  0.5482820000000  0.5553070000000 1.0
C      1  0.4835770000000  0.5078770000000  0.4868970000000 1.0
C      1  0.5389350000000  0.5136270000000  0.4974800000000 1.0
C      1  0.4826960000000  0.5501080000000  0.4732850000000 1.0
C      1  0.5258440000000  0.5702370000000  0.5498440000000 1.0
C      1  0.5273620000000  0.4786250000000  0.4279690000000 1.0
C      1  0.5808860000000  0.5022040000000  0.4650130000000 1.0
C      1  0.4715980000000  0.5735010000000  0.5502210000000 1.0
C      1  0.4695870000000  0.4994810000000  0.4595580000000 1.0
C      1  0.5500140000000  0.5517040000000  0.5539470000000 1.0
C      1  0.4679870000000  0.4620200000000  0.4782660000000 1.0
C      1  0.4621970000000  0.5782370000000  0.4966710000000 1.0
C      1  0.5029280000000  0.4841950000000  0.5411780000000 1.0
C      1  0.5658290000000  0.5420730000000  0.5044890000000 1.0
C      1  0.5558890000000  0.4409970000000  0.4947820000000 1.0
C      1  0.5601590000000  0.4248160000000  0.4714100000000 1.0
C      1  0.5184840000000  0.5040310000000  0.5718270000000 1.0
C      1  0.5418950000000  0.4627750000000  0.5168350000000 1.0
C      1  0.5112280000000  0.4448090000000  0.4990470000000 1.0
C      1  0.5712210000000  0.5168000000000  0.4869760000000 1.0
C      1  0.5268940000000  0.5376100000000  0.5122520000000 1.0
C      1  0.4922030000000  0.4820420000000  0.5028000000000 1.0
C      1  0.5130710000000  0.4129260000000  0.4898660000000 1.0
C      1  0.5126010000000  0.4316560000000  0.4379080000000 1.0
C      1  0.5604340000000  0.5338210000000  0.5336780000000 1.0
C      1  0.5731450000000  0.4747250000000  0.4538360000000 1.0
C      1  0.5198420000000  0.4497150000000  0.5841070000000 1.0
C      1  0.4258070000000  0.4879100000000  0.5334150000000 1.0
C      1  0.4239300000000  0.4876670000000  0.4570240000000 1.0
C      1  0.5077270000000  0.5272660000000  0.4761950000000 1.0
C      1  0.5418670000000  0.4905800000000  0.5604070000000 1.0
C      1  0.4615170000000  0.5286270000000  0.4334130000000 1.0
C      1  0.4753170000000  0.5516510000000  0.4441910000000 1.0
C      1  0.5386280000000  0.5511380000000  0.4621540000000 1.0
C      1  0.4994700000000  0.5291030000000  0.5676660000000 1.0
C      1  0.4416240000000  0.5143140000000  0.4543220000000 1.0
C      1  0.5272770000000  0.5122240000000  0.4293470000000 1.0
C      1  0.5339950000000  0.5679650000000  0.5213110000000 1.0
C      1  0.4248070000000  0.4746930000000  0.4815520000000 1.0
C      1  0.5156770000000  0.5113940000000  0.5298790000000 1.0
C      1  0.4634240000000  0.4460510000000  0.4489350000000 1.0
C      1  0.4525700000000  0.4807270000000  0.4985010000000 1.0
C      1  0.5663850000000  0.4723770000000  0.4871720000000 1.0
C      1  0.4951250000000  0.4522450000000  0.4393380000000 1.0
C      1  0.5222320000000  0.4737840000000  0.4593280000000 1.0
C      1  0.4475740000000  0.5095670000000  0.5077830000000 1.0
C      1  0.4152030000000  0.5198490000000  0.5004260000000 1.0
C      1  0.5361480000000  0.4321160000000  0.5453510000000 1.0
C      1  0.5395900000000  0.4596920000000  0.5628740000000 1.0
C      1  0.4246470000000  0.5142800000000  0.5428530000000 1.0
C      1  0.5107000000000  0.4575220000000  0.5293170000000 1.0
C      1  0.5291480000000  0.5849820000000  0.4938990000000 1.0
C      1  0.5015630000000  0.4945150000000  0.4145470000000 1.0
C      1  0.4930600000000  0.4410420000000  0.5743990000000 1.0
C      1  0.4673430000000  0.5248380000000  0.5627980000000 1.0
C      1  0.4752600000000  0.4774610000000  0.4422790000000 1.0
C      1  0.4336430000000  0.4446950000000  0.5540370000000 1.0
C      1  0.4700460000000  0.4636850000000  0.5211310000000 1.0
C      1  0.5020440000000  0.4307040000000  0.5468260000000 1.0
C      1  0.5186920000000  0.5692150000000  0.4505040000000 1.0
C      1  0.5236280000000  0.4879640000000  0.5075100000000 1.0
C      1  0.4792990000000  0.5159480000000  0.4137410000000 1.0
C      1  0.4799490000000  0.4332450000000  0.5231230000000 1.0
C      1  0.5235430000000  0.4124680000000  0.4613630000000 1.0
C      1  0.4932430000000  0.4854420000000  0.5696570000000 1.0
C      1  0.4574860000000  0.5468100000000  0.4907250000000 1.0
C      1  0.4571600000000  0.5000800000000  0.5609830000000 1.0
C      1  0.5513130000000  0.5605110000000  0.4866110000000 1.0
C      1  0.5578000000000  0.5048410000000  0.5390420000000 1.0
C      1  0.4651080000000  0.4288630000000  0.4780520000000 1.0
C      1  0.4817510000000  0.4179570000000  0.4985300000000 1.0
C      1  0.4806630000000  0.5906980000000  0.4809730000000 1.0
C      1  0.5102930000000  0.5564140000000  0.4918060000000 1.0
C      1  0.4936020000000  0.5340980000000  0.5341270000000 1.0
C      1  0.5065380000000  0.5334170000000  0.4155780000000 1.0
C      1  0.5074790000000  0.5895800000000  0.4701490000000 1.0
C      1  0.4344990000000  0.5325840000000  0.4779170000000 1.0
C      1  0.5011390000000  0.4634900000000  0.4773900000000 1.0
C      1  0.4748360000000  0.4631970000000  0.5717770000000 1.0
C      1  0.5430520000000  0.4921110000000  0.4730370000000 1.0
C      1  0.5450820000000  0.4333960000000  0.4445070000000 1.0
C      1  0.4502000000000  0.5653440000000  0.5252860000000 1.0
C      1  0.4341870000000  0.5383190000000  0.5220600000000 1.0
C      1  0.4979310000000  0.5636060000000  0.5476310000000 1.0
C      1  0.5623590000000  0.4878120000000  0.5172490000000 1.0
C      1  0.5006550000000  0.5572180000000  0.4311740000000 1.0
C      1  0.4739490000000  0.5287210000000  0.5121290000000 1.0
C      1  0.5330840000000  0.5197690000000  0.4584060000000 1.0
C      1  0.5532950000000  0.4619280000000  0.4371160000000 1.0
C      1  0.4502500000000  0.4690130000000  0.5483180000000 1.0
C      1  0.5342290000000  0.4240310000000  0.5142140000000 1.0
C      1  0.5060430000000  0.5505510000000  0.5845190000000 1.0
END
