TITL C-2782229-3092-953 -4.29895491985721e-05 125000 -419.824024530436 0 0 73 (C1) n - 1
REM
REM in /home/nfs/bkarasulu/CARBON/AIRSS/Generating-Clusters/REBO/Higher-Symm/SD-CG/HFTN-CG
REM
REM
REM
REM
REM
REM ./C.cell (12c818d87b63d06a65506943cc24bca4)
REM
REM compiler GCC version 9.2.1 20190827 (Red Hat 9.2.1-1)
REM options -cpp -mtune=generic -march=x86-64 -g -O0 -fpre-include=/usr/include/finclude/math-vector-fortran.h
REM seed -1306653389 -1761138075 1959448367 -752529346 -1479290441 -1586442568 2098961300 185973824 -1208575543 -1144750665 1817602333 1427898937 1421963046 1745623257 1699384631 513464171 2049064845 -1746913420 -947397743 -1024210554 -47029750 -1364218896 796431002 -2046878987 1461303057 2131371808 -1197145798 1736201083 993075767 1163693411 1855140938 72573982 125524075
REM
CELL 1.54180   50.00000   50.00000   50.00000   90.00000   90.00000   90.00000
LATT -1
SFAC C  
C      1  0.4828280000000  0.5794590000000  0.4127180000000 1.0
C      1  0.4982070000000  0.5874160000000  0.5286940000000 1.0
C      1  0.4803940000000  0.5133390000000  0.6113370000000 1.0
C      1  0.4831100000000  0.4144330000000  0.5543060000000 1.0
C      1  0.4757100000000  0.4307150000000  0.4141870000000 1.0
C      1  0.5304530000000  0.5349070000000  0.4340710000000 1.0
C      1  0.5190190000000  0.5665070000000  0.5017290000000 1.0
C      1  0.5408440000000  0.4832660000000  0.5755000000000 1.0
C      1  0.5505760000000  0.4211410000000  0.5149790000000 1.0
C      1  0.5359250000000  0.4496380000000  0.4465600000000 1.0
C      1  0.5638750000000  0.4661320000000  0.5291590000000 1.0
C      1  0.5594130000000  0.4683250000000  0.4788880000000 1.0
C      1  0.5528320000000  0.5097100000000  0.4555630000000 1.0
C      1  0.5446380000000  0.5363190000000  0.4966510000000 1.0
C      1  0.5493830000000  0.5170990000000  0.5429410000000 1.0
C      1  0.4509220000000  0.4827580000000  0.5527630000000 1.0
C      1  0.4748660000000  0.4310630000000  0.4904230000000 1.0
C      1  0.4680950000000  0.4895010000000  0.4353160000000 1.0
C      1  0.4666370000000  0.5625290000000  0.4692400000000 1.0
C      1  0.4656900000000  0.5352040000000  0.5505630000000 1.0
C      1  0.5398760000000  0.4458950000000  0.5230230000000 1.0
C      1  0.5273030000000  0.4611740000000  0.4773430000000 1.0
C      1  0.5206270000000  0.5071880000000  0.4503050000000 1.0
C      1  0.5123170000000  0.5360920000000  0.4921130000000 1.0
C      1  0.5277040000000  0.5043160000000  0.5596600000000 1.0
C      1  0.4605730000000  0.5470790000000  0.6030700000000 1.0
C      1  0.4631510000000  0.4292490000000  0.5651090000000 1.0
C      1  0.4819630000000  0.4417900000000  0.4389890000000 1.0
C      1  0.4837980000000  0.5536750000000  0.4233100000000 1.0
C      1  0.4861100000000  0.5957150000000  0.5058120000000 1.0
C      1  0.4716850000000  0.5051250000000  0.4121150000000 1.0
C      1  0.4442650000000  0.5468250000000  0.4768320000000 1.0
C      1  0.4434240000000  0.5313270000000  0.5338190000000 1.0
C      1  0.4307860000000  0.4964200000000  0.5680700000000 1.0
C      1  0.4499210000000  0.4412260000000  0.4988490000000 1.0
C      1  0.5509930000000  0.5401060000000  0.5264430000000 1.0
C      1  0.5700270000000  0.4969320000000  0.5398850000000 1.0
C      1  0.5738670000000  0.4564070000000  0.5001630000000 1.0
C      1  0.5662090000000  0.4845440000000  0.4550500000000 1.0
C      1  0.5595410000000  0.5342770000000  0.4725490000000 1.0
C      1  0.5163740000000  0.4575930000000  0.5058140000000 1.0
C      1  0.5107930000000  0.4792600000000  0.4556730000000 1.0
C      1  0.5039470000000  0.5310940000000  0.4637280000000 1.0
C      1  0.4989330000000  0.5203130000000  0.5146690000000 1.0
C      1  0.5029590000000  0.4964740000000  0.5464480000000 1.0
C      1  0.4397850000000  0.5118100000000  0.5143990000000 1.0
C      1  0.4439360000000  0.4853590000000  0.5230020000000 1.0
C      1  0.4418220000000  0.4679060000000  0.5012090000000 1.0
C      1  0.4389640000000  0.4834180000000  0.4777520000000 1.0
C      1  0.4398120000000  0.5169270000000  0.4830090000000 1.0
C      1  0.4795340000000  0.5046690000000  0.5866210000000 1.0
C      1  0.4971290000000  0.4186110000000  0.5314840000000 1.0
C      1  0.4698310000000  0.4203020000000  0.3908670000000 1.0
C      1  0.4819150000000  0.6036860000000  0.4027660000000 1.0
C      1  0.5029170000000  0.5626640000000  0.5390950000000 1.0
C      1  0.5742640000000  0.4268120000000  0.5001870000000 1.0
C      1  0.5565050000000  0.4648190000000  0.4353120000000 1.0
C      1  0.5502890000000  0.5487840000000  0.4476020000000 1.0
C      1  0.5385370000000  0.5670640000000  0.5214660000000 1.0
C      1  0.5648380000000  0.4739220000000  0.5617840000000 1.0
C      1  0.4631950000000  0.5410830000000  0.5776920000000 1.0
C      1  0.4517190000000  0.4530380000000  0.5613650000000 1.0
C      1  0.4796170000000  0.4276060000000  0.4630430000000 1.0
C      1  0.4793410000000  0.5307310000000  0.4076170000000 1.0
C      1  0.4742300000000  0.5853120000000  0.4838750000000 1.0
C      1  0.4909580000000  0.5369300000000  0.5368950000000 1.0
C      1  0.4789150000000  0.4948720000000  0.5602840000000 1.0
C      1  0.4963510000000  0.4345960000000  0.5085350000000 1.0
C      1  0.4883100000000  0.4697370000000  0.4417630000000 1.0
C      1  0.4861800000000  0.5493890000000  0.4518160000000 1.0
C      1  0.4550450000000  0.5010760000000  0.4569860000000 1.0
C      1  0.5091810000000  0.4891450000000  0.5163010000000 1.0
C      1  0.5383690000000  0.4907800000000  0.5079140000000 1.0
END
