TITL C-2782233-7966-342 0.00311376757954064 125000 -643.464123034476 0 0 113 (C1) n - 1
REM
REM in /home/nfs/bkarasulu/CARBON/AIRSS/Generating-Clusters/REBO/Higher-Symm/SD-CG/HFTN-CG
REM
REM
REM
REM
REM
REM ./C.cell (12c818d87b63d06a65506943cc24bca4)
REM
REM compiler GCC version 9.2.1 20190827 (Red Hat 9.2.1-1)
REM options -cpp -mtune=generic -march=x86-64 -g -O0 -fpre-include=/usr/include/finclude/math-vector-fortran.h
REM seed 887800014 946540038 569720099 -518098879 -492195102 -1178322866 521295652 -263036051 847367271 467955500 725836229 -1490295672 -1110267223 -2114330285 -1025947421 -433298655 1406367529 -375193966 1295468626 860957581 1401485305 -1241711813 -1725207509 -1243534377 117978700 -213922772 1511900329 -1847077915 418854588 546100665 1009125988 -286775469 -1223668425
REM
CELL 1.54180   50.00000   50.00000   50.00000   90.00000   90.00000   90.00000
LATT -1
SFAC C  
C      1  0.4949640000000  0.4225110000000  0.5559920000000 1.0
C      1  0.4952160000000  0.4472300000000  0.4222980000000 1.0
C      1  0.4954430000000  0.5804330000000  0.4408300000000 1.0
C      1  0.4955530000000  0.5564810000000  0.5758100000000 1.0
C      1  0.4385860000000  0.4557560000000  0.4447030000000 1.0
C      1  0.4399300000000  0.5636160000000  0.4573270000000 1.0
C      1  0.4419240000000  0.5426690000000  0.5562630000000 1.0
C      1  0.4367640000000  0.4356880000000  0.5466710000000 1.0
C      1  0.5147250000000  0.4852140000000  0.5968680000000 1.0
C      1  0.5155670000000  0.4005030000000  0.4841070000000 1.0
C      1  0.5185610000000  0.5197660000000  0.4043360000000 1.0
C      1  0.5129540000000  0.5931770000000  0.5132610000000 1.0
C      1  0.4753630000000  0.5376970000000  0.5353580000000 1.0
C      1  0.4689840000000  0.4587170000000  0.5490920000000 1.0
C      1  0.4735270000000  0.4589960000000  0.4629600000000 1.0
C      1  0.4735100000000  0.5426640000000  0.4541240000000 1.0
C      1  0.4158100000000  0.5220200000000  0.4383000000000 1.0
C      1  0.4124790000000  0.5585170000000  0.5193010000000 1.0
C      1  0.4113630000000  0.4774590000000  0.5659110000000 1.0
C      1  0.4103030000000  0.4394130000000  0.4842210000000 1.0
C      1  0.5336470000000  0.5003670000000  0.5368260000000 1.0
C      1  0.5316540000000  0.4670970000000  0.5005670000000 1.0
C      1  0.5330460000000  0.4934510000000  0.4703120000000 1.0
C      1  0.5296500000000  0.5345760000000  0.4948270000000 1.0
C      1  0.5389400000000  0.5628950000000  0.5112480000000 1.0
C      1  0.5414860000000  0.4842330000000  0.5658800000000 1.0
C      1  0.5407920000000  0.4403970000000  0.4819000000000 1.0
C      1  0.5407190000000  0.5141600000000  0.4465520000000 1.0
C      1  0.4577340000000  0.4866440000000  0.5379010000000 1.0
C      1  0.4570630000000  0.4660310000000  0.4983450000000 1.0
C      1  0.4595830000000  0.5073570000000  0.4651290000000 1.0
C      1  0.4618990000000  0.5344660000000  0.5057920000000 1.0
C      1  0.4311980000000  0.4569560000000  0.4779230000000 1.0
C      1  0.4349070000000  0.5299490000000  0.4573760000000 1.0
C      1  0.4340110000000  0.5411010000000  0.5244880000000 1.0
C      1  0.4298840000000  0.4690400000000  0.5469590000000 1.0
C      1  0.5151850000000  0.4709030000000  0.4266940000000 1.0
C      1  0.5140530000000  0.5748670000000  0.4646180000000 1.0
C      1  0.5122790000000  0.5311100000000  0.5758700000000 1.0
C      1  0.5094970000000  0.4268030000000  0.5289750000000 1.0
C      1  0.5834550000000  0.5526260000000  0.4955800000000 1.0
C      1  0.5836300000000  0.5034360000000  0.5554770000000 1.0
C      1  0.5825110000000  0.4460380000000  0.5054790000000 1.0
C      1  0.5850900000000  0.4969190000000  0.4506790000000 1.0
C      1  0.4778960000000  0.5374420000000  0.4836710000000 1.0
C      1  0.4815360000000  0.5057730000000  0.5299900000000 1.0
C      1  0.4837700000000  0.4803440000000  0.5082760000000 1.0
C      1  0.4810310000000  0.4871970000000  0.4750280000000 1.0
C      1  0.4350110000000  0.5567020000000  0.4865000000000 1.0
C      1  0.4328420000000  0.5137750000000  0.5530410000000 1.0
C      1  0.4319460000000  0.4426120000000  0.5175230000000 1.0
C      1  0.4309010000000  0.4847530000000  0.4497840000000 1.0
C      1  0.4967520000000  0.4691060000000  0.5757610000000 1.0
C      1  0.4955520000000  0.4172270000000  0.4666350000000 1.0
C      1  0.4947610000000  0.5341000000000  0.4213850000000 1.0
C      1  0.4964620000000  0.5719900000000  0.5313250000000 1.0
C      1  0.5503930000000  0.4431930000000  0.4504400000000 1.0
C      1  0.5464480000000  0.5447030000000  0.4392190000000 1.0
C      1  0.5496770000000  0.5554130000000  0.5417320000000 1.0
C      1  0.5467810000000  0.4527470000000  0.5577560000000 1.0
C      1  0.5075210000000  0.4369470000000  0.5786430000000 1.0
C      1  0.5100880000000  0.4213480000000  0.4361500000000 1.0
C      1  0.5046350000000  0.5656960000000  0.4182680000000 1.0
C      1  0.5091000000000  0.5795540000000  0.5619570000000 1.0
C      1  0.4665260000000  0.5254660000000  0.4301500000000 1.0
C      1  0.4668590000000  0.5690720000000  0.5246680000000 1.0
C      1  0.4665970000000  0.4758830000000  0.5751750000000 1.0
C      1  0.4737470000000  0.4349490000000  0.4779430000000 1.0
C      1  0.4545670000000  0.4330760000000  0.4997580000000 1.0
C      1  0.4499120000000  0.5017500000000  0.4336220000000 1.0
C      1  0.4487880000000  0.5727870000000  0.5052830000000 1.0
C      1  0.4462020000000  0.4959010000000  0.5716120000000 1.0
C      1  0.5111200000000  0.4468550000000  0.4587610000000 1.0
C      1  0.5117570000000  0.5271960000000  0.4478720000000 1.0
C      1  0.5162730000000  0.5476210000000  0.5399260000000 1.0
C      1  0.5146410000000  0.4610820000000  0.5484990000000 1.0
C      1  0.4261560000000  0.4904920000000  0.4831270000000 1.0
C      1  0.4276430000000  0.5234160000000  0.4894080000000 1.0
C      1  0.4270880000000  0.5079650000000  0.5198720000000 1.0
C      1  0.4235680000000  0.4755470000000  0.5138820000000 1.0
C      1  0.5567550000000  0.4371230000000  0.5083740000000 1.0
C      1  0.5594900000000  0.4902160000000  0.4404920000000 1.0
C      1  0.5578780000000  0.5615010000000  0.4860770000000 1.0
C      1  0.5590690000000  0.5097490000000  0.5660220000000 1.0
C      1  0.5595510000000  0.4773640000000  0.5171900000000 1.0
C      1  0.5619090000000  0.4883570000000  0.4856000000000 1.0
C      1  0.5594510000000  0.5214640000000  0.4887130000000 1.0
C      1  0.5621380000000  0.5112490000000  0.5212830000000 1.0
C      1  0.5084470000000  0.5431250000000  0.4739910000000 1.0
C      1  0.5086280000000  0.5167510000000  0.5449990000000 1.0
C      1  0.5064670000000  0.4591570000000  0.5172640000000 1.0
C      1  0.5090400000000  0.4781950000000  0.4595010000000 1.0
C      1  0.5849130000000  0.4826270000000  0.5372050000000 1.0
C      1  0.5869070000000  0.4682120000000  0.4896020000000 1.0
C      1  0.5858020000000  0.5164470000000  0.4702330000000 1.0
C      1  0.5853780000000  0.5340650000000  0.5162180000000 1.0
C      1  0.4695640000000  0.5498610000000  0.5657630000000 1.0
C      1  0.4666210000000  0.4289650000000  0.5520940000000 1.0
C      1  0.4687090000000  0.4531070000000  0.4332890000000 1.0
C      1  0.4681790000000  0.5725880000000  0.4485380000000 1.0
C      1  0.5125940000000  0.5956880000000  0.4866110000000 1.0
C      1  0.5120910000000  0.5119890000000  0.5994650000000 1.0
C      1  0.5115160000000  0.4020590000000  0.5109410000000 1.0
C      1  0.5176040000000  0.4929770000000  0.4049360000000 1.0
C      1  0.5412810000000  0.5328900000000  0.5618380000000 1.0
C      1  0.5386350000000  0.4397940000000  0.5309920000000 1.0
C      1  0.5452640000000  0.4665520000000  0.4363350000000 1.0
C      1  0.5435940000000  0.5620910000000  0.4616380000000 1.0
C      1  0.5311070000000  0.5482810000000  0.4143350000000 1.0
C      1  0.5334980000000  0.5839060000000  0.5384120000000 1.0
C      1  0.5329890000000  0.4582630000000  0.5872430000000 1.0
C      1  0.5344590000000  0.4150030000000  0.4596340000000 1.0
C      1  0.5283890000000  0.5012830000000  0.5030940000000 1.0
END
