TITL C-2782238-9940-1184 -0.0047389014033038 125000 -1016.46243680301 0 0 173 (C1) n - 1
REM
REM in /home/nfs/bkarasulu/CARBON/AIRSS/Generating-Clusters/REBO/Higher-Symm/SD-CG/HFTN-CG
REM
REM
REM
REM
REM
REM ./C.cell (12c818d87b63d06a65506943cc24bca4)
REM
REM compiler GCC version 9.2.1 20190827 (Red Hat 9.2.1-1)
REM options -cpp -mtune=generic -march=x86-64 -g -O0 -fpre-include=/usr/include/finclude/math-vector-fortran.h
REM seed 318602869 -308956351 -1347085216 -1535492688 -2054164841 124552081 -791849748 -201943262 1708710535 -464555856 -1076925319 1400859691 703503579 1032581238 -705110436 706605857 1368454711 848539445 -1466844081 -1248781209 -184579209 418336920 321639246 843017746 1146137873 -1389933092 -609973849 -155168181 1230605411 -1869241123 -700199188 1850806340 1336811228
REM
CELL 1.54180   50.00000   50.00000   50.00000   90.00000   90.00000   90.00000
LATT -1
SFAC C  
C      1  0.4438460000000  0.5923370000000  0.4859260000000 1.0
C      1  0.5686870000000  0.5738300000000  0.4867600000000 1.0
C      1  0.5928310000000  0.4656940000000  0.4876460000000 1.0
C      1  0.4969080000000  0.3984850000000  0.4897440000000 1.0
C      1  0.4056740000000  0.4730050000000  0.4905170000000 1.0
C      1  0.4164840000000  0.4295960000000  0.5449580000000 1.0
C      1  0.4263130000000  0.5711040000000  0.5280610000000 1.0
C      1  0.5497430000000  0.5866940000000  0.5279220000000 1.0
C      1  0.5967960000000  0.4816220000000  0.5345370000000 1.0
C      1  0.5153400000000  0.3941840000000  0.5362710000000 1.0
C      1  0.4447280000000  0.4796490000000  0.4814160000000 1.0
C      1  0.4642480000000  0.5541820000000  0.4813570000000 1.0
C      1  0.5280810000000  0.5497970000000  0.4799390000000 1.0
C      1  0.5593140000000  0.4870590000000  0.4812560000000 1.0
C      1  0.5018650000000  0.4440760000000  0.4860390000000 1.0
C      1  0.4417720000000  0.5096050000000  0.4732550000000 1.0
C      1  0.4911310000000  0.5561530000000  0.4661400000000 1.0
C      1  0.5468320000000  0.5303010000000  0.4647760000000 1.0
C      1  0.5436860000000  0.4642480000000  0.4670780000000 1.0
C      1  0.4804360000000  0.4477480000000  0.4598590000000 1.0
C      1  0.5264440000000  0.5087190000000  0.4078810000000 1.0
C      1  0.5152850000000  0.4771530000000  0.4017770000000 1.0
C      1  0.4813960000000  0.4777320000000  0.4061390000000 1.0
C      1  0.4749170000000  0.5102310000000  0.4145770000000 1.0
C      1  0.5033480000000  0.5262470000000  0.4241370000000 1.0
C      1  0.4572340000000  0.5421630000000  0.5613050000000 1.0
C      1  0.5286760000000  0.5525760000000  0.5670510000000 1.0
C      1  0.5600800000000  0.4844650000000  0.5806420000000 1.0
C      1  0.5070620000000  0.4389710000000  0.5690630000000 1.0
C      1  0.4537120000000  0.4738390000000  0.5577460000000 1.0
C      1  0.4062620000000  0.5167620000000  0.5516140000000 1.0
C      1  0.4908370000000  0.5938100000000  0.5486710000000 1.0
C      1  0.5907780000000  0.5316350000000  0.5528530000000 1.0
C      1  0.5556460000000  0.4243480000000  0.5513650000000 1.0
C      1  0.4535220000000  0.4201040000000  0.5566460000000 1.0
C      1  0.5697120000000  0.5319010000000  0.4278420000000 1.0
C      1  0.5494580000000  0.4444410000000  0.4272950000000 1.0
C      1  0.4566140000000  0.4307480000000  0.4261840000000 1.0
C      1  0.4257200000000  0.5170230000000  0.4306250000000 1.0
C      1  0.4916920000000  0.5777380000000  0.4325460000000 1.0
C      1  0.5490190000000  0.5508190000000  0.5448660000000 1.0
C      1  0.5592440000000  0.4716110000000  0.5428520000000 1.0
C      1  0.4921080000000  0.4238310000000  0.5486170000000 1.0
C      1  0.4311170000000  0.4791690000000  0.5362210000000 1.0
C      1  0.4629190000000  0.5658510000000  0.5425940000000 1.0
C      1  0.5235190000000  0.5735760000000  0.4299820000000 1.0
C      1  0.5745520000000  0.4995890000000  0.4220740000000 1.0
C      1  0.5195500000000  0.4323530000000  0.4242420000000 1.0
C      1  0.4364650000000  0.4554260000000  0.4216010000000 1.0
C      1  0.4391030000000  0.5465380000000  0.4295420000000 1.0
C      1  0.5105810000000  0.5782190000000  0.4747850000000 1.0
C      1  0.5745820000000  0.5152470000000  0.4698580000000 1.0
C      1  0.5344000000000  0.4370690000000  0.4785040000000 1.0
C      1  0.4501090000000  0.4486510000000  0.4694800000000 1.0
C      1  0.4342330000000  0.5425740000000  0.4696930000000 1.0
C      1  0.4725870000000  0.5587840000000  0.5119340000000 1.0
C      1  0.5401560000000  0.5487810000000  0.5119740000000 1.0
C      1  0.5590690000000  0.4816270000000  0.5101830000000 1.0
C      1  0.4921300000000  0.4357730000000  0.5166360000000 1.0
C      1  0.4339790000000  0.4931550000000  0.5102740000000 1.0
C      1  0.5471500000000  0.5474720000000  0.5912110000000 1.0
C      1  0.5582640000000  0.4647330000000  0.5990210000000 1.0
C      1  0.4912400000000  0.4381280000000  0.5954010000000 1.0
C      1  0.4386850000000  0.4877940000000  0.5827200000000 1.0
C      1  0.4689400000000  0.5593620000000  0.5850170000000 1.0
C      1  0.5054570000000  0.5312790000000  0.5599040000000 1.0
C      1  0.5350320000000  0.4839150000000  0.5607340000000 1.0
C      1  0.5093190000000  0.4674050000000  0.5567980000000 1.0
C      1  0.4811360000000  0.4864760000000  0.5557830000000 1.0
C      1  0.4753670000000  0.5193110000000  0.5483960000000 1.0
C      1  0.5590920000000  0.4216490000000  0.4906940000000 1.0
C      1  0.4467390000000  0.4215980000000  0.4855140000000 1.0
C      1  0.4057610000000  0.5260670000000  0.4788040000000 1.0
C      1  0.4929210000000  0.6007420000000  0.4921570000000 1.0
C      1  0.5961620000000  0.5321580000000  0.4884680000000 1.0
C      1  0.5727830000000  0.5712370000000  0.5151040000000 1.0
C      1  0.5893190000000  0.4571500000000  0.5181210000000 1.0
C      1  0.4896130000000  0.3962530000000  0.5199530000000 1.0
C      1  0.3946600000000  0.4997340000000  0.5085460000000 1.0
C      1  0.4469660000000  0.5892910000000  0.5145590000000 1.0
C      1  0.5300910000000  0.4524980000000  0.4008450000000 1.0
C      1  0.4634380000000  0.4546470000000  0.4025900000000 1.0
C      1  0.4493430000000  0.5230050000000  0.4085500000000 1.0
C      1  0.5036060000000  0.5545020000000  0.4118660000000 1.0
C      1  0.5539650000000  0.5161800000000  0.4028440000000 1.0
C      1  0.5420600000000  0.5885480000000  0.5559950000000 1.0
C      1  0.5951830000000  0.4844700000000  0.5619070000000 1.0
C      1  0.5180200000000  0.3978600000000  0.5643910000000 1.0
C      1  0.4197520000000  0.4375480000000  0.5686500000000 1.0
C      1  0.4250610000000  0.5649980000000  0.5553100000000 1.0
C      1  0.5253330000000  0.5867470000000  0.5108850000000 1.0
C      1  0.5897070000000  0.5089860000000  0.5199090000000 1.0
C      1  0.5422910000000  0.4084230000000  0.5242890000000 1.0
C      1  0.4371690000000  0.4311750000000  0.5216430000000 1.0
C      1  0.4143750000000  0.5473220000000  0.5115100000000 1.0
C      1  0.4492120000000  0.4481090000000  0.5754980000000 1.0
C      1  0.4271530000000  0.5336360000000  0.5681000000000 1.0
C      1  0.5115200000000  0.5799700000000  0.5682460000000 1.0
C      1  0.5790820000000  0.5101800000000  0.5759050000000 1.0
C      1  0.5347110000000  0.4252900000000  0.5756010000000 1.0
C      1  0.4648710000000  0.4486400000000  0.5206550000000 1.0
C      1  0.4367340000000  0.5220360000000  0.5122540000000 1.0
C      1  0.5037300000000  0.5646320000000  0.5116280000000 1.0
C      1  0.5589810000000  0.5211610000000  0.5155680000000 1.0
C      1  0.5333140000000  0.4622130000000  0.5140340000000 1.0
C      1  0.4612370000000  0.4456440000000  0.3761660000000 1.0
C      1  0.4426120000000  0.5255040000000  0.3816630000000 1.0
C      1  0.5005660000000  0.5565780000000  0.3844630000000 1.0
C      1  0.5608870000000  0.5226550000000  0.3767310000000 1.0
C      1  0.5380340000000  0.4433560000000  0.3758460000000 1.0
C      1  0.5435910000000  0.5871610000000  0.4732520000000 1.0
C      1  0.5941540000000  0.4882580000000  0.4622310000000 1.0
C      1  0.5158940000000  0.4122320000000  0.4667260000000 1.0
C      1  0.4180820000000  0.4551830000000  0.4646290000000 1.0
C      1  0.4249590000000  0.5752740000000  0.4687440000000 1.0
C      1  0.5158530000000  0.4501880000000  0.5314060000000 1.0
C      1  0.4673470000000  0.4748630000000  0.5202710000000 1.0
C      1  0.4613930000000  0.5311280000000  0.5232210000000 1.0
C      1  0.5126570000000  0.5420330000000  0.5322870000000 1.0
C      1  0.5436960000000  0.5005570000000  0.5344280000000 1.0
C      1  0.4630500000000  0.4091620000000  0.5258530000000 1.0
C      1  0.3988480000000  0.5223130000000  0.5246250000000 1.0
C      1  0.4772330000000  0.5974110000000  0.5204020000000 1.0
C      1  0.5916400000000  0.5432710000000  0.5203840000000 1.0
C      1  0.5691160000000  0.4298620000000  0.5201430000000 1.0
C      1  0.5255360000000  0.6105510000000  0.4904520000000 1.0
C      1  0.6026510000000  0.4984900000000  0.4923190000000 1.0
C      1  0.5314390000000  0.4008600000000  0.4941600000000 1.0
C      1  0.4210500000000  0.4425910000000  0.4958670000000 1.0
C      1  0.4016750000000  0.5583500000000  0.4844890000000 1.0
C      1  0.4936380000000  0.4858240000000  0.4930020000000 1.0
C      1  0.4854210000000  0.5120170000000  0.4977100000000 1.0
C      1  0.5069900000000  0.5286290000000  0.5048450000000 1.0
C      1  0.5331880000000  0.5123430000000  0.4977510000000 1.0
C      1  0.5207590000000  0.4834250000000  0.4989690000000 1.0
C      1  0.4760280000000  0.4787090000000  0.4679500000000 1.0
C      1  0.4652750000000  0.5229220000000  0.4842980000000 1.0
C      1  0.5077240000000  0.5315880000000  0.4574350000000 1.0
C      1  0.5328180000000  0.5020700000000  0.4657660000000 1.0
C      1  0.5137350000000  0.4673370000000  0.4631970000000 1.0
C      1  0.5015400000000  0.5303680000000  0.6006400000000 1.0
C      1  0.5270950000000  0.5081760000000  0.6027540000000 1.0
C      1  0.5145290000000  0.4799940000000  0.6016420000000 1.0
C      1  0.4842970000000  0.4829560000000  0.6002910000000 1.0
C      1  0.4753250000000  0.5120640000000  0.5985380000000 1.0
C      1  0.5527200000000  0.5206460000000  0.5949780000000 1.0
C      1  0.5322000000000  0.4516750000000  0.5972140000000 1.0
C      1  0.4714570000000  0.4572860000000  0.5959200000000 1.0
C      1  0.4472190000000  0.5141560000000  0.5878000000000 1.0
C      1  0.4962800000000  0.5577720000000  0.5894430000000 1.0
C      1  0.5714620000000  0.4498240000000  0.5544370000000 1.0
C      1  0.4783110000000  0.4008120000000  0.5614990000000 1.0
C      1  0.4095730000000  0.4886210000000  0.5531590000000 1.0
C      1  0.4605800000000  0.5915770000000  0.5561250000000 1.0
C      1  0.5740270000000  0.5550570000000  0.5540000000000 1.0
C      1  0.5718910000000  0.4514330000000  0.4420070000000 1.0
C      1  0.4707460000000  0.4131020000000  0.4431260000000 1.0
C      1  0.4131490000000  0.4957960000000  0.4429070000000 1.0
C      1  0.4687620000000  0.5842080000000  0.4463490000000 1.0
C      1  0.5696600000000  0.5550770000000  0.4435530000000 1.0
C      1  0.5814770000000  0.5546380000000  0.4700520000000 1.0
C      1  0.5766680000000  0.4422710000000  0.4699790000000 1.0
C      1  0.4681520000000  0.4051830000000  0.4726440000000 1.0
C      1  0.4032700000000  0.4998740000000  0.4695930000000 1.0
C      1  0.4684710000000  0.5971580000000  0.4720690000000 1.0
C      1  0.5005730000000  0.4244610000000  0.4448960000000 1.0
C      1  0.4191600000000  0.4684740000000  0.4381410000000 1.0
C      1  0.4435680000000  0.5700560000000  0.4423920000000 1.0
C      1  0.5468800000000  0.5740090000000  0.4440120000000 1.0
C      1  0.5826910000000  0.4780660000000  0.4371480000000 1.0
C      1  0.4977500000000  0.5040280000000  0.3914360000000 1.0
C      1  0.5016620000000  0.4980640000000  0.4559770000000 1.0
C      1  0.5033060000000  0.5036000000000  0.5713860000000 1.0
END
