TITL C-2782232-2968-24 -0.00627847072407068 125000 -588.226843856896 0 0 99 (C1) n - 1
REM
REM in /home/nfs/bkarasulu/CARBON/AIRSS/Generating-Clusters/REBO/Higher-Symm/SD-CG/HFTN-CG
REM
REM
REM
REM
REM
REM ./C.cell (12c818d87b63d06a65506943cc24bca4)
REM
REM compiler GCC version 9.2.1 20190827 (Red Hat 9.2.1-1)
REM options -cpp -mtune=generic -march=x86-64 -g -O0 -fpre-include=/usr/include/finclude/math-vector-fortran.h
REM seed -456934858 1659377934 1827386340 2019334889 1822681858 1052961529 -2110552824 -1244618430 667099729 -663206700 -521915121 -882081014 -1898839469 -1289950018 -1035093252 -732913529 -275502491 -1958342035 -789280872 -1519955347 1691007849 -1232397785 -1439238715 454393993 46475123 -222305617 -1284782567 1669651654 1580320691 1994374986 2074335490 -1833527177 -597045031
REM
CELL 1.54180   50.00000   50.00000   50.00000   90.00000   90.00000   90.00000
LATT -1
SFAC C  
C      1  0.4440410000000  0.4633100000000  0.5140170000000 1.0
C      1  0.5715100000000  0.4667850000000  0.4863650000000 1.0
C      1  0.5715500000000  0.4668340000000  0.5139840000000 1.0
C      1  0.4440420000000  0.4633870000000  0.4866540000000 1.0
C      1  0.4412400000000  0.4755600000000  0.4342230000000 1.0
C      1  0.5566780000000  0.4669050000000  0.5587680000000 1.0
C      1  0.5566440000000  0.4666580000000  0.4415830000000 1.0
C      1  0.4412080000000  0.4751830000000  0.5664990000000 1.0
C      1  0.5172610000000  0.5236500000000  0.5417500000000 1.0
C      1  0.4849380000000  0.5305120000000  0.4614400000000 1.0
C      1  0.4843870000000  0.5303500000000  0.5371260000000 1.0
C      1  0.5174410000000  0.5231820000000  0.4569510000000 1.0
C      1  0.5371000000000  0.4317460000000  0.4715370000000 1.0
C      1  0.4652700000000  0.4321890000000  0.5272050000000 1.0
C      1  0.4651850000000  0.4322820000000  0.4732730000000 1.0
C      1  0.5371520000000  0.4318490000000  0.5288610000000 1.0
C      1  0.4871440000000  0.4986980000000  0.4656600000000 1.0
C      1  0.5204720000000  0.4922110000000  0.5354410000000 1.0
C      1  0.5204260000000  0.4921540000000  0.4646470000000 1.0
C      1  0.4874650000000  0.4980440000000  0.5348410000000 1.0
C      1  0.5613920000000  0.5329290000000  0.5125280000000 1.0
C      1  0.4376420000000  0.5435610000000  0.4862760000000 1.0
C      1  0.4347430000000  0.5420380000000  0.5158620000000 1.0
C      1  0.5609930000000  0.5326100000000  0.4879580000000 1.0
C      1  0.4346670000000  0.5239060000000  0.5624930000000 1.0
C      1  0.5496080000000  0.5141610000000  0.4276290000000 1.0
C      1  0.5493830000000  0.5144740000000  0.5727400000000 1.0
C      1  0.4352770000000  0.5243190000000  0.4389780000000 1.0
C      1  0.5266530000000  0.4679080000000  0.5566080000000 1.0
C      1  0.4805290000000  0.4806650000000  0.4389070000000 1.0
C      1  0.4804360000000  0.4804910000000  0.5616570000000 1.0
C      1  0.5266160000000  0.4677310000000  0.4436110000000 1.0
C      1  0.4650450000000  0.4971930000000  0.5137240000000 1.0
C      1  0.5420050000000  0.4937440000000  0.4868140000000 1.0
C      1  0.5420350000000  0.4937720000000  0.5133140000000 1.0
C      1  0.4650590000000  0.4972730000000  0.4869350000000 1.0
C      1  0.4269890000000  0.4973860000000  0.5520820000000 1.0
C      1  0.5659570000000  0.4945770000000  0.4420730000000 1.0
C      1  0.5658500000000  0.4949210000000  0.5582520000000 1.0
C      1  0.4272970000000  0.4977700000000  0.4488570000000 1.0
C      1  0.5212980000000  0.5615570000000  0.4401060000000 1.0
C      1  0.4669030000000  0.5627320000000  0.5524810000000 1.0
C      1  0.4672000000000  0.5631280000000  0.4467050000000 1.0
C      1  0.5209780000000  0.5616520000000  0.5601590000000 1.0
C      1  0.4831280000000  0.4484950000000  0.4500130000000 1.0
C      1  0.5131570000000  0.4419120000000  0.5479380000000 1.0
C      1  0.5130740000000  0.4418280000000  0.4524510000000 1.0
C      1  0.4831860000000  0.4483360000000  0.5505250000000 1.0
C      1  0.4503430000000  0.4550970000000  0.4542420000000 1.0
C      1  0.5611630000000  0.4504810000000  0.5346630000000 1.0
C      1  0.5611230000000  0.4503520000000  0.4657380000000 1.0
C      1  0.4503610000000  0.4548500000000  0.5463780000000 1.0
C      1  0.5486100000000  0.5416780000000  0.5632760000000 1.0
C      1  0.4409510000000  0.5458720000000  0.4555690000000 1.0
C      1  0.4407100000000  0.5450620000000  0.5454350000000 1.0
C      1  0.5486870000000  0.5412610000000  0.4372800000000 1.0
C      1  0.4681250000000  0.5788930000000  0.5231310000000 1.0
C      1  0.5276470000000  0.5704060000000  0.4734950000000 1.0
C      1  0.5282750000000  0.5711700000000  0.5273640000000 1.0
C      1  0.4690100000000  0.5790290000000  0.4766030000000 1.0
C      1  0.4729140000000  0.5333980000000  0.5685390000000 1.0
C      1  0.5049730000000  0.5347680000000  0.4271980000000 1.0
C      1  0.5044460000000  0.5343960000000  0.5714570000000 1.0
C      1  0.4730970000000  0.5339060000000  0.4304890000000 1.0
C      1  0.5405110000000  0.5417270000000  0.4684760000000 1.0
C      1  0.4685570000000  0.5455300000000  0.5164670000000 1.0
C      1  0.4705350000000  0.5454580000000  0.4823120000000 1.0
C      1  0.5409310000000  0.5422130000000  0.5320060000000 1.0
C      1  0.5451630000000  0.4046820000000  0.5129220000000 1.0
C      1  0.4459950000000  0.4118220000000  0.4875370000000 1.0
C      1  0.4460520000000  0.4117600000000  0.5129090000000 1.0
C      1  0.5451270000000  0.4046270000000  0.4875480000000 1.0
C      1  0.5719350000000  0.4972900000000  0.5272560000000 1.0
C      1  0.4334960000000  0.4935760000000  0.4771920000000 1.0
C      1  0.4334940000000  0.4934800000000  0.5236960000000 1.0
C      1  0.5719670000000  0.4971930000000  0.4730000000000 1.0
C      1  0.4593360000000  0.5034970000000  0.4259680000000 1.0
C      1  0.5215270000000  0.5096420000000  0.5803060000000 1.0
C      1  0.5218810000000  0.5094360000000  0.4196480000000 1.0
C      1  0.4593290000000  0.5032010000000  0.5745080000000 1.0
C      1  0.4971830000000  0.5745240000000  0.4585980000000 1.0
C      1  0.4969120000000  0.5743530000000  0.5407540000000 1.0
C      1  0.5216290000000  0.4343430000000  0.5002020000000 1.0
C      1  0.4818240000000  0.4337120000000  0.5002090000000 1.0
C      1  0.5091570000000  0.4851980000000  0.4256980000000 1.0
C      1  0.5091560000000  0.4850990000000  0.5747280000000 1.0
C      1  0.4593110000000  0.5919340000000  0.4996540000000 1.0
C      1  0.5365060000000  0.5795250000000  0.5001090000000 1.0
C      1  0.5883100000000  0.5060900000000  0.5001340000000 1.0
C      1  0.4147460000000  0.5050780000000  0.5004580000000 1.0
C      1  0.5016550000000  0.4598740000000  0.5001210000000 1.0
C      1  0.5019240000000  0.4082700000000  0.5001940000000 1.0
C      1  0.5050470000000  0.5129090000000  0.5007950000000 1.0
C      1  0.5029930000000  0.4860180000000  0.5000620000000 1.0
C      1  0.4988500000000  0.5663410000000  0.5008750000000 1.0
C      1  0.5051590000000  0.5399050000000  0.5014300000000 1.0
C      1  0.5022530000000  0.3822190000000  0.5001830000000 1.0
C      1  0.4990410000000  0.5928340000000  0.5019570000000 1.0
C      1  0.5025840000000  0.3560140000000  0.5001710000000 1.0
END
