TITL C-2782238-9940-651 0.00336373813316124 125000 -945.427650938889 0 0 163 (C1) n - 1
REM
REM in /home/nfs/bkarasulu/CARBON/AIRSS/Generating-Clusters/REBO/Higher-Symm/SD-CG/HFTN-CG
REM
REM
REM
REM
REM
REM ./C.cell (12c818d87b63d06a65506943cc24bca4)
REM
REM compiler GCC version 9.2.1 20190827 (Red Hat 9.2.1-1)
REM options -cpp -mtune=generic -march=x86-64 -g -O0 -fpre-include=/usr/include/finclude/math-vector-fortran.h
REM seed -807835207 -773205855 494976098 660045869 -1135877649 -1129108401 -1050204037 1831679999 1515449496 -1549068785 -425348738 1170792493 2022303665 1246005685 -322517441 766989462 -676766497 39214043 -1663264915 -888955965 781573060 -1485597262 1296298307 1597826297 -804469101 -1416328009 163693565 -1082067820 -515636755 -473053661 -575123370 1581168894 -496217655
REM
CELL 1.54180   50.00000   50.00000   50.00000   90.00000   90.00000   90.00000
LATT -1
SFAC C  
C      1  0.5043220000000  0.4624860000000  0.4105800000000 1.0
C      1  0.5877430000000  0.4408860000000  0.5638410000000 1.0
C      1  0.4537270000000  0.5286600000000  0.5236670000000 1.0
C      1  0.5182290000000  0.4906470000000  0.4014900000000 1.0
C      1  0.5684400000000  0.5087420000000  0.5500170000000 1.0
C      1  0.4896990000000  0.4082640000000  0.4442770000000 1.0
C      1  0.5184980000000  0.4964150000000  0.5449140000000 1.0
C      1  0.4419700000000  0.4151220000000  0.5437700000000 1.0
C      1  0.5182170000000  0.5460080000000  0.4179260000000 1.0
C      1  0.5337610000000  0.4654050000000  0.6007280000000 1.0
C      1  0.5987840000000  0.4815430000000  0.5227390000000 1.0
C      1  0.4744160000000  0.5998280000000  0.4787990000000 1.0
C      1  0.4368280000000  0.5516200000000  0.4411850000000 1.0
C      1  0.3987400000000  0.4594980000000  0.4615000000000 1.0
C      1  0.5805460000000  0.4323770000000  0.5389050000000 1.0
C      1  0.4777910000000  0.4432000000000  0.4064790000000 1.0
C      1  0.5245650000000  0.5300800000000  0.5246230000000 1.0
C      1  0.5378790000000  0.5196060000000  0.5607750000000 1.0
C      1  0.4658550000000  0.5608880000000  0.5839320000000 1.0
C      1  0.5692960000000  0.5696250000000  0.4645280000000 1.0
C      1  0.4884090000000  0.4905280000000  0.5460750000000 1.0
C      1  0.4825370000000  0.5801750000000  0.5716410000000 1.0
C      1  0.5164080000000  0.5758410000000  0.4328610000000 1.0
C      1  0.4731740000000  0.5978870000000  0.5490290000000 1.0
C      1  0.5875150000000  0.5411940000000  0.4600230000000 1.0
C      1  0.5027930000000  0.4228810000000  0.4157740000000 1.0
C      1  0.5645850000000  0.4847650000000  0.4577270000000 1.0
C      1  0.5688910000000  0.4098540000000  0.4819740000000 1.0
C      1  0.4960390000000  0.4282430000000  0.5114680000000 1.0
C      1  0.4885010000000  0.5422560000000  0.4832190000000 1.0
C      1  0.4868870000000  0.5698490000000  0.5021170000000 1.0
C      1  0.4795540000000  0.4470000000000  0.5734330000000 1.0
C      1  0.4749120000000  0.4028280000000  0.5070250000000 1.0
C      1  0.5497250000000  0.4342470000000  0.4384560000000 1.0
C      1  0.5571170000000  0.4772760000000  0.5843140000000 1.0
C      1  0.5026530000000  0.5709750000000  0.5507650000000 1.0
C      1  0.4969710000000  0.4856890000000  0.4346570000000 1.0
C      1  0.5488200000000  0.4599950000000  0.4748900000000 1.0
C      1  0.4945680000000  0.5938280000000  0.4519300000000 1.0
C      1  0.5726260000000  0.5569320000000  0.5539260000000 1.0
C      1  0.4749350000000  0.5796110000000  0.3954690000000 1.0
C      1  0.5886000000000  0.4498510000000  0.5155770000000 1.0
C      1  0.4362550000000  0.5233550000000  0.5804440000000 1.0
C      1  0.4900700000000  0.4844180000000  0.5855530000000 1.0
C      1  0.4442380000000  0.4766460000000  0.4142640000000 1.0
C      1  0.5555920000000  0.5111670000000  0.5876540000000 1.0
C      1  0.4989800000000  0.4206880000000  0.5635230000000 1.0
C      1  0.4517370000000  0.5827980000000  0.5359400000000 1.0
C      1  0.4618020000000  0.3979580000000  0.5350750000000 1.0
C      1  0.4682460000000  0.4918000000000  0.4076570000000 1.0
C      1  0.4068590000000  0.5158270000000  0.5711200000000 1.0
C      1  0.5687720000000  0.5753390000000  0.4986290000000 1.0
C      1  0.5554960000000  0.5211090000000  0.5144240000000 1.0
C      1  0.4854040000000  0.5682440000000  0.4227040000000 1.0
C      1  0.4505700000000  0.5829370000000  0.4810860000000 1.0
C      1  0.4498170000000  0.4432890000000  0.5571100000000 1.0
C      1  0.4893390000000  0.3997300000000  0.5458350000000 1.0
C      1  0.4573170000000  0.5579310000000  0.4637500000000 1.0
C      1  0.5456750000000  0.4650400000000  0.4285760000000 1.0
C      1  0.4965980000000  0.5346810000000  0.4030420000000 1.0
C      1  0.4300190000000  0.4337830000000  0.5239020000000 1.0
C      1  0.4198820000000  0.5156380000000  0.4452370000000 1.0
C      1  0.5156630000000  0.5994400000000  0.4747110000000 1.0
C      1  0.3991010000000  0.5269690000000  0.5410550000000 1.0
C      1  0.5384750000000  0.5812350000000  0.5129460000000 1.0
C      1  0.5006350000000  0.4701780000000  0.4619110000000 1.0
C      1  0.4653550000000  0.4234530000000  0.4283180000000 1.0
C      1  0.4289250000000  0.5192460000000  0.4776720000000 1.0
C      1  0.4457110000000  0.4355510000000  0.4481580000000 1.0
C      1  0.5227810000000  0.4988340000000  0.5112180000000 1.0
C      1  0.4535200000000  0.5039890000000  0.4588730000000 1.0
C      1  0.4190860000000  0.4642010000000  0.4339960000000 1.0
C      1  0.5281650000000  0.4187810000000  0.5191790000000 1.0
C      1  0.4710420000000  0.4580050000000  0.4689520000000 1.0
C      1  0.4733550000000  0.5102390000000  0.4354740000000 1.0
C      1  0.4174150000000  0.5603460000000  0.4648400000000 1.0
C      1  0.5735680000000  0.4304820000000  0.4570480000000 1.0
C      1  0.5098600000000  0.4609330000000  0.5813360000000 1.0
C      1  0.5318930000000  0.4477300000000  0.5017280000000 1.0
C      1  0.4121770000000  0.4824430000000  0.5152360000000 1.0
C      1  0.5532810000000  0.4959850000000  0.4964490000000 1.0
C      1  0.5218820000000  0.4489290000000  0.4631080000000 1.0
C      1  0.4181070000000  0.5461670000000  0.5232720000000 1.0
C      1  0.4290470000000  0.5295320000000  0.4196770000000 1.0
C      1  0.5682800000000  0.5167900000000  0.4467640000000 1.0
C      1  0.5822230000000  0.4600470000000  0.4436300000000 1.0
C      1  0.5902570000000  0.5091900000000  0.4718930000000 1.0
C      1  0.5141370000000  0.5535340000000  0.5894770000000 1.0
C      1  0.4806080000000  0.4043130000000  0.4729560000000 1.0
C      1  0.5723330000000  0.4809650000000  0.4186840000000 1.0
C      1  0.4178940000000  0.4866260000000  0.4579370000000 1.0
C      1  0.4597240000000  0.4745710000000  0.5789170000000 1.0
C      1  0.4698800000000  0.5474450000000  0.3926130000000 1.0
C      1  0.5630900000000  0.4053360000000  0.5054070000000 1.0
C      1  0.4878270000000  0.5260420000000  0.5642340000000 1.0
C      1  0.4643200000000  0.5067370000000  0.5901930000000 1.0
C      1  0.4861650000000  0.5293830000000  0.5146340000000 1.0
C      1  0.4827620000000  0.4535720000000  0.5176220000000 1.0
C      1  0.4664500000000  0.5405290000000  0.4285140000000 1.0
C      1  0.3927750000000  0.5689870000000  0.4613570000000 1.0
C      1  0.5567270000000  0.5467120000000  0.4845920000000 1.0
C      1  0.4389190000000  0.4942290000000  0.5622180000000 1.0
C      1  0.4553570000000  0.5347070000000  0.4842930000000 1.0
C      1  0.5132940000000  0.5221040000000  0.4758730000000 1.0
C      1  0.5202980000000  0.4210870000000  0.4442390000000 1.0
C      1  0.4420820000000  0.5516490000000  0.5716900000000 1.0
C      1  0.5549430000000  0.4148440000000  0.5365300000000 1.0
C      1  0.5893350000000  0.5416390000000  0.4940200000000 1.0
C      1  0.4602040000000  0.4274080000000  0.4774340000000 1.0
C      1  0.4513320000000  0.4683920000000  0.4452760000000 1.0
C      1  0.5454100000000  0.5312410000000  0.4293650000000 1.0
C      1  0.5835470000000  0.5268640000000  0.5301080000000 1.0
C      1  0.5298270000000  0.4416390000000  0.4116280000000 1.0
C      1  0.5234830000000  0.4511740000000  0.5555110000000 1.0
C      1  0.5294960000000  0.5477650000000  0.5688200000000 1.0
C      1  0.4673940000000  0.4661090000000  0.5405810000000 1.0
C      1  0.5477570000000  0.5520120000000  0.5231620000000 1.0
C      1  0.4111420000000  0.4953410000000  0.5442280000000 1.0
C      1  0.4430220000000  0.5317710000000  0.3965890000000 1.0
C      1  0.5970500000000  0.5098070000000  0.5039140000000 1.0
C      1  0.5053820000000  0.3941240000000  0.4931700000000 1.0
C      1  0.4314060000000  0.5574200000000  0.4940800000000 1.0
C      1  0.4951130000000  0.6064710000000  0.5320180000000 1.0
C      1  0.4623460000000  0.5610000000000  0.5186860000000 1.0
C      1  0.5284280000000  0.4888880000000  0.4401160000000 1.0
C      1  0.4184420000000  0.5154670000000  0.5084370000000 1.0
C      1  0.5270700000000  0.5504850000000  0.4767840000000 1.0
C      1  0.4944520000000  0.5066550000000  0.4006880000000 1.0
C      1  0.5290550000000  0.4852200000000  0.6200720000000 1.0
C      1  0.3992440000000  0.4693870000000  0.4930610000000 1.0
C      1  0.4287730000000  0.4513680000000  0.4732580000000 1.0
C      1  0.5236370000000  0.5933730000000  0.5391060000000 1.0
C      1  0.4865670000000  0.5612630000000  0.4549350000000 1.0
C      1  0.4415820000000  0.4816850000000  0.4816590000000 1.0
C      1  0.5838100000000  0.4676560000000  0.5712250000000 1.0
C      1  0.4893220000000  0.6026460000000  0.5045680000000 1.0
C      1  0.5039100000000  0.4921950000000  0.4868880000000 1.0
C      1  0.5172480000000  0.5761760000000  0.4918390000000 1.0
C      1  0.5724870000000  0.5384380000000  0.5760240000000 1.0
C      1  0.5868040000000  0.5596510000000  0.5230260000000 1.0
C      1  0.5037070000000  0.5133070000000  0.5914880000000 1.0
C      1  0.5906280000000  0.4868600000000  0.5514900000000 1.0
C      1  0.5483510000000  0.4822260000000  0.5524740000000 1.0
C      1  0.4342630000000  0.4300270000000  0.4968040000000 1.0
C      1  0.5302500000000  0.4226380000000  0.5585990000000 1.0
C      1  0.5087780000000  0.3932730000000  0.5259130000000 1.0
C      1  0.4779830000000  0.4981590000000  0.5164710000000 1.0
C      1  0.5461300000000  0.5022450000000  0.4145130000000 1.0
C      1  0.5134850000000  0.4253290000000  0.4830230000000 1.0
C      1  0.5009050000000  0.5416160000000  0.5415590000000 1.0
C      1  0.5409810000000  0.5593960000000  0.4479590000000 1.0
C      1  0.4788900000000  0.4735050000000  0.4949040000000 1.0
C      1  0.5337510000000  0.4629990000000  0.5293920000000 1.0
C      1  0.4337440000000  0.5614990000000  0.5466350000000 1.0
C      1  0.5429240000000  0.5692860000000  0.5507560000000 1.0
C      1  0.4473000000000  0.4991860000000  0.5068420000000 1.0
C      1  0.5370580000000  0.5021870000000  0.4674940000000 1.0
C      1  0.5744000000000  0.4771490000000  0.5001910000000 1.0
C      1  0.4339240000000  0.4641640000000  0.5339630000000 1.0
C      1  0.5789290000000  0.4484310000000  0.4838780000000 1.0
C      1  0.4626300000000  0.5122970000000  0.5505220000000 1.0
C      1  0.4800550000000  0.5364430000000  0.5959840000000 1.0
C      1  0.5292750000000  0.5099970000000  0.6069000000000 1.0
END
