TITL C-2782231-7322-1235 -5.85109658200348e-08 125000 -70.8492180357901 0 0 12 (Oh) n - 1
REM
REM in /home/nfs/bkarasulu/CARBON/AIRSS/Generating-Clusters/REBO/Higher-Symm/SD-CG/HFTN-CG
REM
REM
REM
REM
REM
REM ./C.cell (12c818d87b63d06a65506943cc24bca4)
REM
REM compiler GCC version 9.2.1 20190827 (Red Hat 9.2.1-1)
REM options -cpp -mtune=generic -march=x86-64 -g -O0 -fpre-include=/usr/include/finclude/math-vector-fortran.h
REM seed -724778659 -1562061616 672421097 -673362014 -1436017427 857562397 1331983403 -1740777674 -371773655 -974655859 630344302 236615850 -133100104 -1280712225 -326499538 -84094135 1530148429 -931872717 -1371198068 373443887 -1006055321 -764267623 -912641571 149407350 1345479782 -558643328 1959182224 -1293454268 -1098417761 -311388853 385326610 334235734 -500193639
REM
CELL 1.54180   50.00000   50.00000   50.00000   90.00000   90.00000   90.00000
LATT -1
SFAC C  
C      1  0.4632310000000  0.5367690000000  0.5000000000000 1.0
C      1  0.4497730000000  0.4865420000000  0.5000000000000 1.0
C      1  0.4865420000000  0.4497730000000  0.5000000000000 1.0
C      1  0.5367690000000  0.4632310000000  0.5000000000000 1.0
C      1  0.5502270000000  0.5134580000000  0.5000000000000 1.0
C      1  0.5134580000000  0.5502270000000  0.5000000000000 1.0
C      1  0.5367690000000  0.5367690000000  0.5000000000000 1.0
C      1  0.5502270000000  0.4865420000000  0.5000000000000 1.0
C      1  0.5134580000000  0.4497730000000  0.5000000000000 1.0
C      1  0.4632310000000  0.4632310000000  0.5000000000000 1.0
C      1  0.4497730000000  0.5134580000000  0.5000000000000 1.0
C      1  0.4865420000000  0.5502270000000  0.5000000000000 1.0
END
