TITL C-2782240-8521-107 -0.0023496033443136 125000 -584.049832569434 0 0 99 (C1) n - 1
REM
REM in /home/nfs/bkarasulu/CARBON/AIRSS/Generating-Clusters/REBO/Higher-Symm/SD-CG/HFTN-CG
REM
REM
REM
REM
REM
REM ./C.cell (12c818d87b63d06a65506943cc24bca4)
REM
REM compiler GCC version 9.2.1 20190827 (Red Hat 9.2.1-1)
REM options -cpp -mtune=generic -march=x86-64 -g -O0 -fpre-include=/usr/include/finclude/math-vector-fortran.h
REM seed 1981767913 -349049849 -1943557757 -2115906185 -1303621779 1127708458 1477349357 -1832113173 953417776 1098342527 -1938903831 31301379 1560230544 148866394 1687688179 1904906095 -1216439137 592821811 1205467868 1461097065 -1416604702 2103577952 -2135028300 1617719827 -1985701265 -1131300554 852211382 -2020955706 -897316120 -48580527 1684385907 -544301195 315859782
REM
CELL 1.54180   50.00000   50.00000   50.00000   90.00000   90.00000   90.00000
LATT -1
SFAC C  
C      1  0.5270350000000  0.5344340000000  0.4418920000000 1.0
C      1  0.5263200000000  0.4649470000000  0.5607260000000 1.0
C      1  0.5759640000000  0.5211620000000  0.4519800000000 1.0
C      1  0.5705310000000  0.4811570000000  0.5513590000000 1.0
C      1  0.4159510000000  0.5277640000000  0.4689550000000 1.0
C      1  0.4184190000000  0.4719970000000  0.5313980000000 1.0
C      1  0.4564440000000  0.4620110000000  0.5856640000000 1.0
C      1  0.4586810000000  0.5408340000000  0.4200150000000 1.0
C      1  0.5188910000000  0.4093390000000  0.4949190000000 1.0
C      1  0.5137090000000  0.5910540000000  0.5097620000000 1.0
C      1  0.4382180000000  0.4742830000000  0.4156480000000 1.0
C      1  0.4406210000000  0.5257550000000  0.5851410000000 1.0
C      1  0.5455870000000  0.5249910000000  0.5534350000000 1.0
C      1  0.5437080000000  0.4681960000000  0.4366580000000 1.0
C      1  0.5537330000000  0.5454300000000  0.4553930000000 1.0
C      1  0.5525490000000  0.4538310000000  0.5487090000000 1.0
C      1  0.5807700000000  0.5260800000000  0.4854280000000 1.0
C      1  0.5656120000000  0.4764190000000  0.5184400000000 1.0
C      1  0.5240960000000  0.5130870000000  0.5682050000000 1.0
C      1  0.5245850000000  0.4858230000000  0.4264740000000 1.0
C      1  0.4467510000000  0.5140670000000  0.4698510000000 1.0
C      1  0.4489990000000  0.4848860000000  0.5309470000000 1.0
C      1  0.4661300000000  0.4967440000000  0.5134990000000 1.0
C      1  0.4648420000000  0.5009650000000  0.4852200000000 1.0
C      1  0.5315300000000  0.5088720000000  0.4115960000000 1.0
C      1  0.5292180000000  0.4935410000000  0.5884820000000 1.0
C      1  0.4892950000000  0.5615960000000  0.5515490000000 1.0
C      1  0.4908500000000  0.4358190000000  0.4472490000000 1.0
C      1  0.5525890000000  0.4770460000000  0.5799580000000 1.0
C      1  0.5546950000000  0.5228510000000  0.4254970000000 1.0
C      1  0.4920560000000  0.4937640000000  0.4696630000000 1.0
C      1  0.4942060000000  0.5056050000000  0.5261950000000 1.0
C      1  0.5506830000000  0.5523960000000  0.5504750000000 1.0
C      1  0.5558430000000  0.4509250000000  0.4533010000000 1.0
C      1  0.5423640000000  0.5888990000000  0.4675770000000 1.0
C      1  0.5432280000000  0.4095500000000  0.5380650000000 1.0
C      1  0.4326510000000  0.5482420000000  0.5149230000000 1.0
C      1  0.4283980000000  0.4521450000000  0.4856940000000 1.0
C      1  0.5111700000000  0.5261170000000  0.4007700000000 1.0
C      1  0.5088560000000  0.4799970000000  0.6039520000000 1.0
C      1  0.4832520000000  0.4729180000000  0.5940780000000 1.0
C      1  0.4854730000000  0.5311380000000  0.4112420000000 1.0
C      1  0.5300570000000  0.5247200000000  0.4949740000000 1.0
C      1  0.5312700000000  0.4812230000000  0.4778470000000 1.0
C      1  0.4853070000000  0.4567980000000  0.4310250000000 1.0
C      1  0.4816910000000  0.5388300000000  0.5640510000000 1.0
C      1  0.5599720000000  0.4751450000000  0.4860760000000 1.0
C      1  0.5570210000000  0.5258400000000  0.5081060000000 1.0
C      1  0.5555380000000  0.4337190000000  0.4754700000000 1.0
C      1  0.5598470000000  0.5691240000000  0.5251100000000 1.0
C      1  0.5370690000000  0.5907120000000  0.5254480000000 1.0
C      1  0.5376390000000  0.4117890000000  0.4742840000000 1.0
C      1  0.4197810000000  0.5533960000000  0.4852310000000 1.0
C      1  0.4219220000000  0.4470270000000  0.5151880000000 1.0
C      1  0.5025390000000  0.5912500000000  0.4387660000000 1.0
C      1  0.5015730000000  0.4063030000000  0.5644770000000 1.0
C      1  0.4960990000000  0.5126040000000  0.5565580000000 1.0
C      1  0.4969420000000  0.4841980000000  0.4381570000000 1.0
C      1  0.5031320000000  0.5297410000000  0.5097830000000 1.0
C      1  0.5033240000000  0.4685710000000  0.4871000000000 1.0
C      1  0.4492540000000  0.5020040000000  0.4319860000000 1.0
C      1  0.4501870000000  0.4976270000000  0.5685910000000 1.0
C      1  0.5018530000000  0.4735580000000  0.5503910000000 1.0
C      1  0.5014690000000  0.5260840000000  0.4475540000000 1.0
C      1  0.4315300000000  0.5219200000000  0.5552250000000 1.0
C      1  0.4290940000000  0.4784090000000  0.4454790000000 1.0
C      1  0.5697200000000  0.5551510000000  0.4996970000000 1.0
C      1  0.5637060000000  0.4459580000000  0.5030910000000 1.0
C      1  0.4363440000000  0.4705520000000  0.5595910000000 1.0
C      1  0.4355100000000  0.5292990000000  0.4413040000000 1.0
C      1  0.4588470000000  0.5633540000000  0.5257190000000 1.0
C      1  0.4563590000000  0.4401910000000  0.4825710000000 1.0
C      1  0.4135990000000  0.4996260000000  0.4865590000000 1.0
C      1  0.4159430000000  0.5005160000000  0.5148510000000 1.0
C      1  0.5079420000000  0.5785450000000  0.5639920000000 1.0
C      1  0.5053140000000  0.4133830000000  0.4389320000000 1.0
C      1  0.4516260000000  0.4365790000000  0.5140480000000 1.0
C      1  0.4518380000000  0.5550190000000  0.4873070000000 1.0
C      1  0.5786650000000  0.4947260000000  0.4724200000000 1.0
C      1  0.5600060000000  0.5070960000000  0.5321950000000 1.0
C      1  0.4866760000000  0.4425720000000  0.4757940000000 1.0
C      1  0.4910650000000  0.5577240000000  0.5206980000000 1.0
C      1  0.5003880000000  0.5814280000000  0.4869120000000 1.0
C      1  0.5032790000000  0.4179140000000  0.5165650000000 1.0
C      1  0.5575120000000  0.5666070000000  0.4735050000000 1.0
C      1  0.5561400000000  0.4334820000000  0.5303850000000 1.0
C      1  0.4850180000000  0.4416230000000  0.5100820000000 1.0
C      1  0.4814040000000  0.5557060000000  0.4886990000000 1.0
C      1  0.4243550000000  0.5234940000000  0.5289660000000 1.0
C      1  0.4211580000000  0.4761190000000  0.4719150000000 1.0
C      1  0.4970300000000  0.4721600000000  0.5190060000000 1.0
C      1  0.4940590000000  0.5270330000000  0.4778160000000 1.0
C      1  0.5285930000000  0.4029160000000  0.4488800000000 1.0
C      1  0.5343500000000  0.5789190000000  0.5540540000000 1.0
C      1  0.5141120000000  0.5884570000000  0.4631160000000 1.0
C      1  0.5146970000000  0.4098790000000  0.5410800000000 1.0
C      1  0.4789230000000  0.4896900000000  0.5678270000000 1.0
C      1  0.4779400000000  0.5079040000000  0.4317980000000 1.0
C      1  0.5290490000000  0.5083040000000  0.4732400000000 1.0
END
