TITL C-2782231-7322-43 -0.000566694956148104 125000 -324.488544294921 0 0 58 (C1) n - 1
REM
REM in /home/nfs/bkarasulu/CARBON/AIRSS/Generating-Clusters/REBO/Higher-Symm/SD-CG/HFTN-CG
REM
REM
REM
REM
REM
REM ./C.cell (12c818d87b63d06a65506943cc24bca4)
REM
REM compiler GCC version 9.2.1 20190827 (Red Hat 9.2.1-1)
REM options -cpp -mtune=generic -march=x86-64 -g -O0 -fpre-include=/usr/include/finclude/math-vector-fortran.h
REM seed -1260398158 325215938 298396980 -658716794 -1993161635 243023203 -820885155 -1210266546 -1391960420 1405895114 -537540784 -1912190664 1518454589 -1117751226 2109707347 1024844650 1311308902 1834592254 -144590553 -2133082168 -2110629936 -1268624093 -854622394 348451654 -1609278307 -794299760 -1354684428 1741920004 -243769357 246842284 258387269 583905497 -785999679
REM
CELL 1.54180   50.00000   50.00000   50.00000   90.00000   90.00000   90.00000
LATT -1
SFAC C  
C      1  0.5576280000000  0.5116270000000  0.5227430000000 1.0
C      1  0.4420340000000  0.4885480000000  0.5228090000000 1.0
C      1  0.5579630000000  0.5120980000000  0.4897480000000 1.0
C      1  0.4430060000000  0.4892160000000  0.4901460000000 1.0
C      1  0.4401750000000  0.5419080000000  0.4879320000000 1.0
C      1  0.5588170000000  0.4593470000000  0.4865990000000 1.0
C      1  0.4453290000000  0.5395740000000  0.5190020000000 1.0
C      1  0.5539620000000  0.4601480000000  0.5177800000000 1.0
C      1  0.4092570000000  0.5186120000000  0.5511070000000 1.0
C      1  0.5893590000000  0.4803970000000  0.5511900000000 1.0
C      1  0.4330650000000  0.4983860000000  0.4530100000000 1.0
C      1  0.5711820000000  0.5020690000000  0.4540900000000 1.0
C      1  0.5123580000000  0.4828200000000  0.4322610000000 1.0
C      1  0.4909700000000  0.5089190000000  0.4359130000000 1.0
C      1  0.5136210000000  0.4890750000000  0.5605720000000 1.0
C      1  0.4870440000000  0.5096410000000  0.5637820000000 1.0
C      1  0.5366420000000  0.4875520000000  0.5127320000000 1.0
C      1  0.4635910000000  0.5127730000000  0.5148610000000 1.0
C      1  0.5328350000000  0.4923200000000  0.4818090000000 1.0
C      1  0.4691350000000  0.5096620000000  0.4837950000000 1.0
C      1  0.5065550000000  0.4369340000000  0.5143430000000 1.0
C      1  0.4923130000000  0.5643530000000  0.5176820000000 1.0
C      1  0.5097020000000  0.4397860000000  0.4806210000000 1.0
C      1  0.4867720000000  0.5647370000000  0.4841370000000 1.0
C      1  0.5111400000000  0.4876300000000  0.5272690000000 1.0
C      1  0.4888000000000  0.5122940000000  0.5303190000000 1.0
C      1  0.5097350000000  0.4898300000000  0.4655360000000 1.0
C      1  0.4921300000000  0.5159310000000  0.4675510000000 1.0
C      1  0.5350050000000  0.4372410000000  0.5269960000000 1.0
C      1  0.4633160000000  0.5627320000000  0.5297800000000 1.0
C      1  0.5396310000000  0.4442960000000  0.4736100000000 1.0
C      1  0.4574130000000  0.5600750000000  0.4763640000000 1.0
C      1  0.5082160000000  0.5371070000000  0.5257400000000 1.0
C      1  0.4904110000000  0.4640110000000  0.5218800000000 1.0
C      1  0.5066960000000  0.5389170000000  0.4767440000000 1.0
C      1  0.4910380000000  0.4653330000000  0.4726580000000 1.0
C      1  0.4777950000000  0.4306890000000  0.4873260000000 1.0
C      1  0.5205500000000  0.5691380000000  0.4857930000000 1.0
C      1  0.4742290000000  0.4277690000000  0.5169660000000 1.0
C      1  0.5255270000000  0.5720890000000  0.5172450000000 1.0
C      1  0.5467410000000  0.5232190000000  0.4573060000000 1.0
C      1  0.4531250000000  0.4723650000000  0.4620310000000 1.0
C      1  0.5449630000000  0.5325030000000  0.5405000000000 1.0
C      1  0.4549130000000  0.4673960000000  0.5398160000000 1.0
C      1  0.4553220000000  0.4410580000000  0.5326880000000 1.0
C      1  0.5435540000000  0.5584830000000  0.5320480000000 1.0
C      1  0.4582030000000  0.4425530000000  0.4720270000000 1.0
C      1  0.5428210000000  0.5529270000000  0.4673980000000 1.0
C      1  0.5180290000000  0.5224950000000  0.5552020000000 1.0
C      1  0.4821330000000  0.4776400000000  0.5524450000000 1.0
C      1  0.5247550000000  0.5142930000000  0.4379770000000 1.0
C      1  0.4798310000000  0.4773060000000  0.4426540000000 1.0
C      1  0.5702140000000  0.4834700000000  0.5335550000000 1.0
C      1  0.4288570000000  0.5160580000000  0.5339170000000 1.0
C      1  0.5710980000000  0.4826840000000  0.4766630000000 1.0
C      1  0.4310900000000  0.5180930000000  0.4758150000000 1.0
C      1  0.4758150000000  0.4693720000000  0.4972560000000 1.0
C      1  0.5235910000000  0.5325010000000  0.5013540000000 1.0
END
