TITL C-2782228-2999-490 3.71121140258176e-07 125000 -43.4864179683617 0 0 8 (D(inf)h) n - 1
REM
REM in /home/nfs/bkarasulu/CARBON/AIRSS/Generating-Clusters/REBO/Higher-Symm/SD-CG/HFTN-CG
REM
REM
REM
REM
REM
REM ./C.cell (12c818d87b63d06a65506943cc24bca4)
REM
REM compiler GCC version 9.2.1 20190827 (Red Hat 9.2.1-1)
REM options -cpp -mtune=generic -march=x86-64 -g -O0 -fpre-include=/usr/include/finclude/math-vector-fortran.h
REM seed 660576295 443365270 105625664 1665192685 -8627505 -1210320765 -145726718 -534650301 1491592175 -1661339355 1992883213 -1566549465 1562137430 51554472 2005875566 -1756907541 783010802 1001350599 -1589203905 -1900821641 -741252273 -751835305 -188719339 964344303 1698790504 946175783 -638634744 777060898 -467996195 -2076701658 -197667838 -646237145 -596597623
REM
CELL 1.54180   50.00000   50.00000   50.00000   90.00000   90.00000   90.00000
LATT -1
SFAC C  
C      1  0.4866850000000  0.4994790000000  0.4999780000000 1.0
C      1  0.5133150000000  0.4994790000000  0.4999780000000 1.0
C      1  0.5399460000000  0.4994790000000  0.4999780000000 1.0
C      1  0.4334230000000  0.4994790000000  0.4999780000000 1.0
C      1  0.5927840000000  0.4994790000000  0.4999780000000 1.0
C      1  0.4600540000000  0.4994790000000  0.4999780000000 1.0
C      1  0.5665770000000  0.4994790000000  0.4999780000000 1.0
C      1  0.4072160000000  0.4994790000000  0.4999780000000 1.0
END
