TITL C-2782229-3092-930 -0.00383189547057236 125000 -852.923052016355 0 0 144 (C1) n - 1
REM
REM in /home/nfs/bkarasulu/CARBON/AIRSS/Generating-Clusters/REBO/Higher-Symm/SD-CG/HFTN-CG
REM
REM
REM
REM
REM
REM ./C.cell (12c818d87b63d06a65506943cc24bca4)
REM
REM compiler GCC version 9.2.1 20190827 (Red Hat 9.2.1-1)
REM options -cpp -mtune=generic -march=x86-64 -g -O0 -fpre-include=/usr/include/finclude/math-vector-fortran.h
REM seed 967575883 935174005 -831975881 1434152058 1624408946 874779399 -70409827 -894912304 1135652018 782066081 197644939 206112986 279223151 364371377 -412832639 681703745 492469333 -2002379034 1275031126 505899093 -1345241171 353457457 -624503316 816937459 387875224 633028552 -2079082997 -853489189 -1867683634 -671722346 1253214803 -2014717018 1095872170
REM
CELL 1.54180   50.00000   50.00000   50.00000   90.00000   90.00000   90.00000
LATT -1
SFAC C  
C      1  0.4113190000000  0.5142940000000  0.5257970000000 1.0
C      1  0.5878380000000  0.4850780000000  0.5251420000000 1.0
C      1  0.4947970000000  0.5558300000000  0.4793340000000 1.0
C      1  0.5046200000000  0.4447720000000  0.4800000000000 1.0
C      1  0.4696480000000  0.4433950000000  0.5120640000000 1.0
C      1  0.5306550000000  0.5570130000000  0.5118670000000 1.0
C      1  0.4604720000000  0.4773650000000  0.4501130000000 1.0
C      1  0.5369930000000  0.5262690000000  0.4494760000000 1.0
C      1  0.4231190000000  0.4992650000000  0.4345290000000 1.0
C      1  0.5773470000000  0.4991700000000  0.4349370000000 1.0
C      1  0.5244110000000  0.5194140000000  0.5012450000000 1.0
C      1  0.4739380000000  0.4813790000000  0.5012760000000 1.0
C      1  0.5658480000000  0.5143250000000  0.5092270000000 1.0
C      1  0.4330900000000  0.4851050000000  0.5095350000000 1.0
C      1  0.4418320000000  0.5576740000000  0.4844530000000 1.0
C      1  0.5560870000000  0.4424310000000  0.4799660000000 1.0
C      1  0.4338460000000  0.4872660000000  0.4621630000000 1.0
C      1  0.5646050000000  0.5139300000000  0.4604930000000 1.0
C      1  0.5358640000000  0.4944700000000  0.4407240000000 1.0
C      1  0.4612380000000  0.5084020000000  0.4421330000000 1.0
C      1  0.5792150000000  0.5391580000000  0.4989430000000 1.0
C      1  0.4208970000000  0.4599800000000  0.4988060000000 1.0
C      1  0.5360430000000  0.4032230000000  0.5015070000000 1.0
C      1  0.4652740000000  0.5974450000000  0.5013810000000 1.0
C      1  0.4902740000000  0.5143020000000  0.6131530000000 1.0
C      1  0.5099010000000  0.4859690000000  0.6132250000000 1.0
C      1  0.5484110000000  0.4892460000000  0.4103130000000 1.0
C      1  0.4516520000000  0.5101910000000  0.4098100000000 1.0
C      1  0.5116470000000  0.4025510000000  0.4594900000000 1.0
C      1  0.4895220000000  0.5975950000000  0.4591860000000 1.0
C      1  0.5022890000000  0.5547110000000  0.5082660000000 1.0
C      1  0.4978360000000  0.4464110000000  0.5085660000000 1.0
C      1  0.4882110000000  0.4664310000000  0.4399880000000 1.0
C      1  0.5069480000000  0.5355380000000  0.4491360000000 1.0
C      1  0.4498140000000  0.5570680000000  0.5328070000000 1.0
C      1  0.5497770000000  0.4441930000000  0.5331320000000 1.0
C      1  0.5237340000000  0.5604090000000  0.4335670000000 1.0
C      1  0.4808900000000  0.4371740000000  0.4264160000000 1.0
C      1  0.4413630000000  0.4779650000000  0.4151530000000 1.0
C      1  0.5590210000000  0.5213530000000  0.4166600000000 1.0
C      1  0.5431130000000  0.4854600000000  0.6145140000000 1.0
C      1  0.4569940000000  0.5146610000000  0.6147350000000 1.0
C      1  0.5190910000000  0.5920250000000  0.4435570000000 1.0
C      1  0.4828650000000  0.4104050000000  0.4446440000000 1.0
C      1  0.4413670000000  0.5011330000000  0.6003720000000 1.0
C      1  0.5586970000000  0.4987630000000  0.5999250000000 1.0
C      1  0.4956960000000  0.5893090000000  0.5401760000000 1.0
C      1  0.5050510000000  0.4111150000000  0.5405610000000 1.0
C      1  0.4032810000000  0.5122690000000  0.4984770000000 1.0
C      1  0.5942510000000  0.4859680000000  0.4973730000000 1.0
C      1  0.4440060000000  0.5047540000000  0.4882780000000 1.0
C      1  0.5539760000000  0.4966040000000  0.4871850000000 1.0
C      1  0.6016230000000  0.5039990000000  0.4712820000000 1.0
C      1  0.3960230000000  0.4933420000000  0.4726620000000 1.0
C      1  0.5378330000000  0.5720040000000  0.5482020000000 1.0
C      1  0.4627370000000  0.4281800000000  0.5483610000000 1.0
C      1  0.5309170000000  0.4150270000000  0.5580450000000 1.0
C      1  0.4698920000000  0.5857850000000  0.5579040000000 1.0
C      1  0.5367360000000  0.4751160000000  0.5308270000000 1.0
C      1  0.4620670000000  0.5255890000000  0.5317400000000 1.0
C      1  0.4118230000000  0.4642860000000  0.4694850000000 1.0
C      1  0.5893850000000  0.5339140000000  0.4700550000000 1.0
C      1  0.4200690000000  0.4873190000000  0.5385990000000 1.0
C      1  0.5795690000000  0.5121890000000  0.5379230000000 1.0
C      1  0.5389920000000  0.5074260000000  0.5283220000000 1.0
C      1  0.4599100000000  0.4929530000000  0.5288700000000 1.0
C      1  0.4724380000000  0.4743860000000  0.4041010000000 1.0
C      1  0.5279750000000  0.5231830000000  0.4053740000000 1.0
C      1  0.5570810000000  0.4111800000000  0.4825160000000 1.0
C      1  0.4441700000000  0.5893520000000  0.4826320000000 1.0
C      1  0.4821630000000  0.5344380000000  0.5551440000000 1.0
C      1  0.5177310000000  0.4660000000000  0.5550200000000 1.0
C      1  0.4838060000000  0.5591020000000  0.5317820000000 1.0
C      1  0.5158860000000  0.4410960000000  0.5319070000000 1.0
C      1  0.4779820000000  0.4060140000000  0.5007410000000 1.0
C      1  0.5231160000000  0.5944490000000  0.5004510000000 1.0
C      1  0.5113570000000  0.4227590000000  0.4317670000000 1.0
C      1  0.4920430000000  0.5731170000000  0.4353730000000 1.0
C      1  0.4737200000000  0.5617810000000  0.5731460000000 1.0
C      1  0.5267490000000  0.4390410000000  0.5732070000000 1.0
C      1  0.4285440000000  0.5291530000000  0.4260190000000 1.0
C      1  0.5722860000000  0.4698960000000  0.4250170000000 1.0
C      1  0.5764080000000  0.4611880000000  0.5351700000000 1.0
C      1  0.4241580000000  0.5381110000000  0.5341870000000 1.0
C      1  0.5225090000000  0.4701840000000  0.4119590000000 1.0
C      1  0.4781600000000  0.5279520000000  0.4116830000000 1.0
C      1  0.5498800000000  0.5790280000000  0.4852630000000 1.0
C      1  0.4510110000000  0.4209510000000  0.4853330000000 1.0
C      1  0.5195080000000  0.5753090000000  0.4726560000000 1.0
C      1  0.4812890000000  0.4245370000000  0.4729580000000 1.0
C      1  0.4988380000000  0.4841700000000  0.4040560000000 1.0
C      1  0.5016050000000  0.5133950000000  0.4050840000000 1.0
C      1  0.4914870000000  0.5991470000000  0.4883360000000 1.0
C      1  0.5096770000000  0.4012050000000  0.4886710000000 1.0
C      1  0.4381820000000  0.4404470000000  0.5404340000000 1.0
C      1  0.5621950000000  0.5593660000000  0.5402690000000 1.0
C      1  0.4910330000000  0.5125700000000  0.4461930000000 1.0
C      1  0.5057520000000  0.4886710000000  0.4431340000000 1.0
C      1  0.5028780000000  0.5159640000000  0.5639540000000 1.0
C      1  0.4969570000000  0.4843810000000  0.5639690000000 1.0
C      1  0.5362860000000  0.5313640000000  0.6051760000000 1.0
C      1  0.4639630000000  0.4686480000000  0.6055260000000 1.0
C      1  0.4356170000000  0.4369440000000  0.5095200000000 1.0
C      1  0.5650010000000  0.5626140000000  0.5094520000000 1.0
C      1  0.5301960000000  0.4800840000000  0.5004980000000 1.0
C      1  0.4680850000000  0.5207120000000  0.5012910000000 1.0
C      1  0.5300940000000  0.4463920000000  0.4321760000000 1.0
C      1  0.4715880000000  0.5516060000000  0.4315360000000 1.0
C      1  0.4789500000000  0.4932300000000  0.5893440000000 1.0
C      1  0.5210760000000  0.5068310000000  0.5891340000000 1.0
C      1  0.4933320000000  0.4607770000000  0.6071560000000 1.0
C      1  0.5069440000000  0.5394150000000  0.6069030000000 1.0
C      1  0.4451630000000  0.5254030000000  0.4621710000000 1.0
C      1  0.5502640000000  0.4768210000000  0.4609870000000 1.0
C      1  0.4950400000000  0.5156090000000  0.4951270000000 1.0
C      1  0.5032000000000  0.4856230000000  0.4948700000000 1.0
C      1  0.5708950000000  0.5343150000000  0.5534100000000 1.0
C      1  0.4291300000000  0.4652420000000  0.5539010000000 1.0
C      1  0.4783730000000  0.4098210000000  0.5318660000000 1.0
C      1  0.5223660000000  0.5905900000000  0.5317330000000 1.0
C      1  0.5294960000000  0.4527700000000  0.4655980000000 1.0
C      1  0.4684510000000  0.5483770000000  0.4653640000000 1.0
C      1  0.5826890000000  0.4774690000000  0.4676080000000 1.0
C      1  0.4134910000000  0.5210160000000  0.4685920000000 1.0
C      1  0.5620710000000  0.4445730000000  0.4332810000000 1.0
C      1  0.4399290000000  0.5538680000000  0.4345900000000 1.0
C      1  0.4402050000000  0.4460380000000  0.4643090000000 1.0
C      1  0.5622000000000  0.5534650000000  0.4658260000000 1.0
C      1  0.5412720000000  0.5401200000000  0.4866330000000 1.0
C      1  0.4588020000000  0.4600030000000  0.4866680000000 1.0
C      1  0.4522290000000  0.4508000000000  0.4328080000000 1.0
C      1  0.5539490000000  0.5501960000000  0.4340460000000 1.0
C      1  0.5014030000000  0.5548930000000  0.5835230000000 1.0
C      1  0.4989610000000  0.4454960000000  0.5836720000000 1.0
C      1  0.4445510000000  0.4755670000000  0.5794670000000 1.0
C      1  0.5555270000000  0.5242240000000  0.5790120000000 1.0
C      1  0.5706050000000  0.4277210000000  0.4557940000000 1.0
C      1  0.4330050000000  0.5708370000000  0.4562840000000 1.0
C      1  0.4579520000000  0.5892490000000  0.5280680000000 1.0
C      1  0.5427270000000  0.4118070000000  0.5281290000000 1.0
C      1  0.5222920000000  0.5530090000000  0.5632890000000 1.0
C      1  0.4780230000000  0.4473400000000  0.5634750000000 1.0
C      1  0.4669690000000  0.4779770000000  0.5544310000000 1.0
C      1  0.5328190000000  0.5222670000000  0.5541980000000 1.0
END
