TITL C-2782228-2999-951 0.00180441204914888 125000 -986.510648246468 0 0 172 (C1) n - 1
REM
REM in /home/nfs/bkarasulu/CARBON/AIRSS/Generating-Clusters/REBO/Higher-Symm/SD-CG/HFTN-CG
REM
REM
REM
REM
REM
REM ./C.cell (12c818d87b63d06a65506943cc24bca4)
REM
REM compiler GCC version 9.2.1 20190827 (Red Hat 9.2.1-1)
REM options -cpp -mtune=generic -march=x86-64 -g -O0 -fpre-include=/usr/include/finclude/math-vector-fortran.h
REM seed -1031789055 943592426 -1956049934 370832654 1627947949 730412099 -1012689 2699660 -2054942922 -702517692 892648023 1140302795 -361999886 -986806426 -858002359 -1136862574 -1220180577 -1760417355 1846125353 405712347 955565218 1839931706 -1552317906 1249279543 -759438219 -1830209027 -1344911213 909538007 1645956703 -495400852 -1465967172 -519463150 994721309
REM
CELL 1.54180   50.00000   50.00000   50.00000   90.00000   90.00000   90.00000
LATT -1
SFAC C  
C      1  0.4418890000000  0.6020700000000  0.4421430000000 1.0
C      1  0.4712410000000  0.5941350000000  0.5817280000000 1.0
C      1  0.5765710000000  0.6066740000000  0.4814490000000 1.0
C      1  0.4439070000000  0.4035720000000  0.5623620000000 1.0
C      1  0.4718820000000  0.4029280000000  0.4208970000000 1.0
C      1  0.5823330000000  0.4039790000000  0.5128660000000 1.0
C      1  0.4882760000000  0.5888250000000  0.5631490000000 1.0
C      1  0.5540920000000  0.5946790000000  0.4777590000000 1.0
C      1  0.4495510000000  0.5916110000000  0.4643880000000 1.0
C      1  0.4881090000000  0.4111640000000  0.4391060000000 1.0
C      1  0.5584130000000  0.4116350000000  0.5185300000000 1.0
C      1  0.4521700000000  0.4115980000000  0.5393350000000 1.0
C      1  0.5486770000000  0.4259420000000  0.4309880000000 1.0
C      1  0.4150590000000  0.4269790000000  0.4895060000000 1.0
C      1  0.5356650000000  0.4301090000000  0.5759840000000 1.0
C      1  0.5498120000000  0.5694420000000  0.5667570000000 1.0
C      1  0.4113710000000  0.5603090000000  0.5003820000000 1.0
C      1  0.5415540000000  0.5639590000000  0.4273060000000 1.0
C      1  0.4862280000000  0.4758980000000  0.5203510000000 1.0
C      1  0.5244060000000  0.4758260000000  0.4999460000000 1.0
C      1  0.4868110000000  0.4764180000000  0.4776990000000 1.0
C      1  0.4841140000000  0.5245070000000  0.4789160000000 1.0
C      1  0.5254550000000  0.5250200000000  0.4984370000000 1.0
C      1  0.4884540000000  0.5245330000000  0.5234350000000 1.0
C      1  0.4613430000000  0.4597860000000  0.5384350000000 1.0
C      1  0.5525840000000  0.4587430000000  0.5098300000000 1.0
C      1  0.4837570000000  0.4611120000000  0.4471590000000 1.0
C      1  0.4590120000000  0.5424380000000  0.4638290000000 1.0
C      1  0.5522080000000  0.5413970000000  0.4839810000000 1.0
C      1  0.4940880000000  0.5411970000000  0.5506050000000 1.0
C      1  0.5221950000000  0.5933690000000  0.5252270000000 1.0
C      1  0.5059860000000  0.5916070000000  0.4660320000000 1.0
C      1  0.4622080000000  0.5899090000000  0.5129300000000 1.0
C      1  0.5219720000000  0.4081460000000  0.4753990000000 1.0
C      1  0.5097180000000  0.4086930000000  0.5316180000000 1.0
C      1  0.4675920000000  0.4087920000000  0.4918060000000 1.0
C      1  0.5305690000000  0.4715060000000  0.6076820000000 1.0
C      1  0.5801540000000  0.4649740000000  0.4207770000000 1.0
C      1  0.3896780000000  0.4677660000000  0.4709760000000 1.0
C      1  0.5343330000000  0.5228500000000  0.4035170000000 1.0
C      1  0.5813000000000  0.5287010000000  0.5775110000000 1.0
C      1  0.3916700000000  0.5202750000000  0.5201130000000 1.0
C      1  0.5881770000000  0.4755910000000  0.5538780000000 1.0
C      1  0.5085180000000  0.4508860000000  0.3983910000000 1.0
C      1  0.4033220000000  0.4703190000000  0.5462690000000 1.0
C      1  0.5919420000000  0.5370030000000  0.4458140000000 1.0
C      1  0.5059880000000  0.5245180000000  0.6013050000000 1.0
C      1  0.4056800000000  0.5431930000000  0.4492370000000 1.0
C      1  0.4910770000000  0.5578480000000  0.4459100000000 1.0
C      1  0.4608980000000  0.5600800000000  0.5409150000000 1.0
C      1  0.5590410000000  0.5547190000000  0.5207750000000 1.0
C      1  0.4899990000000  0.4421080000000  0.5599100000000 1.0
C      1  0.4571290000000  0.4348330000000  0.4606140000000 1.0
C      1  0.5517670000000  0.4346290000000  0.4783530000000 1.0
C      1  0.5743500000000  0.4305740000000  0.4532090000000 1.0
C      1  0.4239360000000  0.4341030000000  0.4572190000000 1.0
C      1  0.5047860000000  0.4354350000000  0.5898170000000 1.0
C      1  0.5772130000000  0.5644290000000  0.5467560000000 1.0
C      1  0.4143250000000  0.5648020000000  0.5291300000000 1.0
C      1  0.5161080000000  0.5692610000000  0.4137270000000 1.0
C      1  0.4939570000000  0.5557600000000  0.4779700000000 1.0
C      1  0.4812840000000  0.5552500000000  0.5157750000000 1.0
C      1  0.5270240000000  0.5567990000000  0.5104940000000 1.0
C      1  0.4967410000000  0.4459350000000  0.5268120000000 1.0
C      1  0.4785590000000  0.4461810000000  0.4837070000000 1.0
C      1  0.5216140000000  0.4456250000000  0.4887760000000 1.0
C      1  0.5075580000000  0.5342490000000  0.4309060000000 1.0
C      1  0.4302300000000  0.5244620000000  0.5291380000000 1.0
C      1  0.5622770000000  0.5217240000000  0.5431040000000 1.0
C      1  0.5113200000000  0.4749750000000  0.5728630000000 1.0
C      1  0.4276980000000  0.4774480000000  0.4773530000000 1.0
C      1  0.5539080000000  0.4800340000000  0.4463040000000 1.0
C      1  0.4907590000000  0.4164950000000  0.4715690000000 1.0
C      1  0.4795730000000  0.4168380000000  0.5215670000000 1.0
C      1  0.5285220000000  0.4164030000000  0.5053080000000 1.0
C      1  0.4906510000000  0.5846210000000  0.5304770000000 1.0
C      1  0.4770170000000  0.5850190000000  0.4826010000000 1.0
C      1  0.5256700000000  0.5861440000000  0.4932890000000 1.0
C      1  0.5215290000000  0.5545740000000  0.5424620000000 1.0
C      1  0.5250460000000  0.5534290000000  0.4704240000000 1.0
C      1  0.4580060000000  0.5520940000000  0.4946340000000 1.0
C      1  0.5111160000000  0.4486990000000  0.4595470000000 1.0
C      1  0.5280590000000  0.4483340000000  0.5292350000000 1.0
C      1  0.4594270000000  0.4486260000000  0.5081890000000 1.0
C      1  0.5557210000000  0.5059660000000  0.4667770000000 1.0
C      1  0.4417230000000  0.5067240000000  0.4683690000000 1.0
C      1  0.5036550000000  0.5061370000000  0.5660900000000 1.0
C      1  0.5584250000000  0.4916060000000  0.5311330000000 1.0
C      1  0.4436120000000  0.4952800000000  0.5372220000000 1.0
C      1  0.4966820000000  0.4950500000000  0.4312140000000 1.0
C      1  0.4140140000000  0.4567430000000  0.5752800000000 1.0
C      1  0.6094770000000  0.4590440000000  0.5333220000000 1.0
C      1  0.4791020000000  0.4392440000000  0.3906740000000 1.0
C      1  0.4148470000000  0.5664350000000  0.4284920000000 1.0
C      1  0.6078040000000  0.5577850000000  0.4651230000000 1.0
C      1  0.4746770000000  0.5361170000000  0.6064720000000 1.0
C      1  0.5766750000000  0.5508460000000  0.4704340000000 1.0
C      1  0.4357540000000  0.5537930000000  0.4497090000000 1.0
C      1  0.4870250000000  0.5403230000000  0.5776840000000 1.0
C      1  0.5783700000000  0.4594490000000  0.5255750000000 1.0
C      1  0.4345410000000  0.4588370000000  0.5508360000000 1.0
C      1  0.4836220000000  0.4544850000000  0.4186740000000 1.0
C      1  0.4141530000000  0.4613740000000  0.4503840000000 1.0
C      1  0.5045070000000  0.4587140000000  0.6084420000000 1.0
C      1  0.5906630000000  0.4544170000000  0.4461000000000 1.0
C      1  0.4047360000000  0.5378230000000  0.5442740000000 1.0
C      1  0.5074440000000  0.5407580000000  0.3984680000000 1.0
C      1  0.5946000000000  0.5414060000000  0.5550790000000 1.0
C      1  0.4972270000000  0.5084360000000  0.4022290000000 1.0
C      1  0.4226090000000  0.5218220000000  0.5683130000000 1.0
C      1  0.5954850000000  0.5199950000000  0.5330390000000 1.0
C      1  0.4871420000000  0.4811280000000  0.5978710000000 1.0
C      1  0.4193290000000  0.4906550000000  0.4351510000000 1.0
C      1  0.5999980000000  0.4713450000000  0.4671810000000 1.0
C      1  0.5335630000000  0.4742990000000  0.5467930000000 1.0
C      1  0.5207070000000  0.4758870000000  0.4441350000000 1.0
C      1  0.4408960000000  0.4766040000000  0.5087590000000 1.0
C      1  0.5312610000000  0.5258280000000  0.4538180000000 1.0
C      1  0.5298110000000  0.5240650000000  0.5531330000000 1.0
C      1  0.4416360000000  0.5251610000000  0.4970090000000 1.0
C      1  0.4991170000000  0.5857300000000  0.4331990000000 1.0
C      1  0.4385280000000  0.5780700000000  0.5344270000000 1.0
C      1  0.5517030000000  0.5840370000000  0.5354170000000 1.0
C      1  0.5076030000000  0.4132830000000  0.5645010000000 1.0
C      1  0.4393470000000  0.4085730000000  0.4732870000000 1.0
C      1  0.5512780000000  0.4062820000000  0.4592950000000 1.0
C      1  0.5281590000000  0.4935960000000  0.4010880000000 1.0
C      1  0.3906230000000  0.4936160000000  0.5253230000000 1.0
C      1  0.5810870000000  0.5006200000000  0.5758010000000 1.0
C      1  0.5287020000000  0.4996230000000  0.6064970000000 1.0
C      1  0.3979220000000  0.4966220000000  0.4589040000000 1.0
C      1  0.5745770000000  0.4951950000000  0.4238330000000 1.0
C      1  0.5570100000000  0.5429380000000  0.5845280000000 1.0
C      1  0.5528020000000  0.5381350000000  0.4189670000000 1.0
C      1  0.3974080000000  0.5345690000000  0.4952640000000 1.0
C      1  0.5548760000000  0.4512800000000  0.4130770000000 1.0
C      1  0.5483780000000  0.4570250000000  0.5900230000000 1.0
C      1  0.3932320000000  0.4505170000000  0.4936270000000 1.0
C      1  0.6018570000000  0.5043190000000  0.5106220000000 1.0
C      1  0.4647400000000  0.5030460000000  0.4078650000000 1.0
C      1  0.4418410000000  0.5085280000000  0.5822180000000 1.0
C      1  0.6030110000000  0.4879210000000  0.4887340000000 1.0
C      1  0.4631830000000  0.4950330000000  0.5930880000000 1.0
C      1  0.4400930000000  0.4981420000000  0.4180940000000 1.0
C      1  0.5594510000000  0.4677280000000  0.4775270000000 1.0
C      1  0.4529670000000  0.4686440000000  0.4578600000000 1.0
C      1  0.4799840000000  0.4741120000000  0.5596180000000 1.0
C      1  0.5639000000000  0.5244940000000  0.5092000000000 1.0
C      1  0.4552920000000  0.5319180000000  0.5476920000000 1.0
C      1  0.4759160000000  0.5279350000000  0.4399970000000 1.0
C      1  0.5186980000000  0.4226950000000  0.4438910000000 1.0
C      1  0.4417660000000  0.4227180000000  0.5101400000000 1.0
C      1  0.5395170000000  0.4224390000000  0.5431260000000 1.0
C      1  0.5194020000000  0.5824440000000  0.5580640000000 1.0
C      1  0.4388120000000  0.5771070000000  0.4912780000000 1.0
C      1  0.5363480000000  0.5788740000000  0.4555590000000 1.0
C      1  0.3904140000000  0.4629760000000  0.5174880000000 1.0
C      1  0.5683520000000  0.4715350000000  0.5793560000000 1.0
C      1  0.5322280000000  0.4658700000000  0.4026830000000 1.0
C      1  0.3975540000000  0.5240160000000  0.4683990000000 1.0
C      1  0.5756950000000  0.5234330000000  0.4275100000000 1.0
C      1  0.5380330000000  0.5284830000000  0.5969600000000 1.0
C      1  0.4626150000000  0.4923320000000  0.4884780000000 1.0
C      1  0.5074340000000  0.4922970000000  0.5373720000000 1.0
C      1  0.5276140000000  0.4913910000000  0.4734340000000 1.0
C      1  0.4639560000000  0.5084470000000  0.5157310000000 1.0
C      1  0.5036670000000  0.5080050000000  0.4604600000000 1.0
C      1  0.5308470000000  0.5073830000000  0.5235040000000 1.0
C      1  0.4712500000000  0.5052690000000  0.5553270000000 1.0
C      1  0.4671920000000  0.4977330000000  0.4474300000000 1.0
C      1  0.5646410000000  0.4947000000000  0.4976530000000 1.0
C      1  0.4996560000000  0.5010950000000  0.4995600000000 1.0
END
