TITL C-2782226-7400-330 -7.26580034350181e-05 125000 -819.020485941798 0 0 139 (C1) n - 1
REM
REM in /home/nfs/bkarasulu/CARBON/AIRSS/Generating-Clusters/REBO/Higher-Symm/SD-CG/HFTN-CG
REM
REM
REM
REM
REM
REM ./C.cell (12c818d87b63d06a65506943cc24bca4)
REM
REM compiler GCC version 9.2.1 20190827 (Red Hat 9.2.1-1)
REM options -cpp -mtune=generic -march=x86-64 -g -O0 -fpre-include=/usr/include/finclude/math-vector-fortran.h
REM seed 1462335140 133171318 25735135 -1157379392 -1860971135 28249587 1046896710 1116047955 -1654972313 -510558833 -313697276 -1877608718 -551191857 599032741 132488968 802915734 679563885 -1475477644 541535616 -1165438945 102110730 461378703 286045985 -446059252 1097868974 -915437518 -494248244 1595528865 811203129 1954180771 1978312199 1374400390 1747111604
REM
CELL 1.54180   50.00000   50.00000   50.00000   90.00000   90.00000   90.00000
LATT -1
SFAC C  
C      1  0.5886590000000  0.4954260000000  0.4792320000000 1.0
C      1  0.4114480000000  0.4827100000000  0.5061380000000 1.0
C      1  0.5861710000000  0.5062550000000  0.5176440000000 1.0
C      1  0.4136380000000  0.5210810000000  0.4923150000000 1.0
C      1  0.5690720000000  0.5666720000000  0.5072410000000 1.0
C      1  0.4285200000000  0.5055660000000  0.4275990000000 1.0
C      1  0.5688680000000  0.4369110000000  0.4898500000000 1.0
C      1  0.4363080000000  0.5077000000000  0.5649400000000 1.0
C      1  0.5448380000000  0.4038010000000  0.5148330000000 1.0
C      1  0.4557030000000  0.5071050000000  0.6114690000000 1.0
C      1  0.5468070000000  0.6057670000000  0.4843780000000 1.0
C      1  0.4652520000000  0.4780930000000  0.4039920000000 1.0
C      1  0.4697830000000  0.4336890000000  0.5664230000000 1.0
C      1  0.5393810000000  0.5636360000000  0.5623450000000 1.0
C      1  0.4641750000000  0.5610320000000  0.4369230000000 1.0
C      1  0.5343670000000  0.4308160000000  0.4420670000000 1.0
C      1  0.4661140000000  0.5313330000000  0.5274190000000 1.0
C      1  0.5304170000000  0.5263890000000  0.4671950000000 1.0
C      1  0.4562530000000  0.4672380000000  0.4669960000000 1.0
C      1  0.5333790000000  0.4727190000000  0.5241340000000 1.0
C      1  0.5277360000000  0.4692760000000  0.5791870000000 1.0
C      1  0.4733650000000  0.5825530000000  0.5261400000000 1.0
C      1  0.5295040000000  0.5312390000000  0.4246000000000 1.0
C      1  0.4692200000000  0.4196430000000  0.4690250000000 1.0
C      1  0.5803500000000  0.4264420000000  0.4654690000000 1.0
C      1  0.4224580000000  0.4451070000000  0.5800700000000 1.0
C      1  0.5812230000000  0.5730140000000  0.5344300000000 1.0
C      1  0.4201000000000  0.5343120000000  0.4291260000000 1.0
C      1  0.4707670000000  0.4583550000000  0.5143690000000 1.0
C      1  0.5224550000000  0.5133070000000  0.5474770000000 1.0
C      1  0.4755540000000  0.5473140000000  0.4853730000000 1.0
C      1  0.5331610000000  0.4829940000000  0.4567610000000 1.0
C      1  0.4183720000000  0.4497940000000  0.5113950000000 1.0
C      1  0.5829800000000  0.5125190000000  0.5509270000000 1.0
C      1  0.4162960000000  0.5549760000000  0.4929760000000 1.0
C      1  0.5846670000000  0.4926830000000  0.4506300000000 1.0
C      1  0.4185480000000  0.5641250000000  0.5197950000000 1.0
C      1  0.5785620000000  0.5213470000000  0.4397690000000 1.0
C      1  0.4161230000000  0.4389510000000  0.4794290000000 1.0
C      1  0.5682340000000  0.4846180000000  0.5599190000000 1.0
C      1  0.5495240000000  0.5240170000000  0.5325050000000 1.0
C      1  0.4467050000000  0.5357870000000  0.4754660000000 1.0
C      1  0.5526620000000  0.4578010000000  0.4650620000000 1.0
C      1  0.4461150000000  0.4656930000000  0.5368110000000 1.0
C      1  0.5073040000000  0.3905470000000  0.4762090000000 1.0
C      1  0.4968990000000  0.4815510000000  0.6132110000000 1.0
C      1  0.5122920000000  0.6122420000000  0.5206580000000 1.0
C      1  0.4898110000000  0.5198680000000  0.3973610000000 1.0
C      1  0.5086010000000  0.4919510000000  0.5283040000000 1.0
C      1  0.4896620000000  0.5309070000000  0.5070340000000 1.0
C      1  0.5101550000000  0.5033120000000  0.4701200000000 1.0
C      1  0.4881570000000  0.4745710000000  0.4907590000000 1.0
C      1  0.5349790000000  0.4485810000000  0.5605410000000 1.0
C      1  0.4633600000000  0.5594690000000  0.5446120000000 1.0
C      1  0.5416140000000  0.5536370000000  0.4395220000000 1.0
C      1  0.4596950000000  0.4403760000000  0.4482140000000 1.0
C      1  0.5451590000000  0.5270300000000  0.5773420000000 1.0
C      1  0.4529530000000  0.5865710000000  0.4739880000000 1.0
C      1  0.5465320000000  0.4727430000000  0.4206000000000 1.0
C      1  0.4566710000000  0.4158750000000  0.5232260000000 1.0
C      1  0.5693240000000  0.5623380000000  0.5564060000000 1.0
C      1  0.4366900000000  0.5517200000000  0.4480550000000 1.0
C      1  0.5653080000000  0.4387940000000  0.4405660000000 1.0
C      1  0.4406520000000  0.4426150000000  0.5593720000000 1.0
C      1  0.4771710000000  0.4757360000000  0.4424210000000 1.0
C      1  0.5112520000000  0.4471260000000  0.5285690000000 1.0
C      1  0.4776370000000  0.5251900000000  0.5589260000000 1.0
C      1  0.5207870000000  0.5539320000000  0.4757890000000 1.0
C      1  0.5670070000000  0.5882370000000  0.4833890000000 1.0
C      1  0.4414820000000  0.4773000000000  0.4162750000000 1.0
C      1  0.5647740000000  0.4156710000000  0.5233160000000 1.0
C      1  0.4359030000000  0.5072460000000  0.5927710000000 1.0
C      1  0.5132950000000  0.5524100000000  0.5089980000000 1.0
C      1  0.4873760000000  0.5073060000000  0.4504660000000 1.0
C      1  0.5079550000000  0.4506170000000  0.4945040000000 1.0
C      1  0.4839030000000  0.4776220000000  0.5393320000000 1.0
C      1  0.5401150000000  0.4482600000000  0.5015610000000 1.0
C      1  0.4625860000000  0.4992250000000  0.5509550000000 1.0
C      1  0.5447580000000  0.5496380000000  0.5123390000000 1.0
C      1  0.4552410000000  0.5005940000000  0.4455380000000 1.0
C      1  0.4874840000000  0.4611280000000  0.5634240000000 1.0
C      1  0.5179470000000  0.5465200000000  0.5416180000000 1.0
C      1  0.4806500000000  0.5382170000000  0.4546870000000 1.0
C      1  0.5215150000000  0.4280910000000  0.4728250000000 1.0
C      1  0.4962960000000  0.4352780000000  0.5876520000000 1.0
C      1  0.5096350000000  0.5763860000000  0.5562960000000 1.0
C      1  0.4939740000000  0.5613550000000  0.4250150000000 1.0
C      1  0.5033390000000  0.4200180000000  0.4381270000000 1.0
C      1  0.4895810000000  0.4917190000000  0.3997210000000 1.0
C      1  0.5185250000000  0.4079090000000  0.5001400000000 1.0
C      1  0.4837350000000  0.5058680000000  0.6075280000000 1.0
C      1  0.5207850000000  0.6040660000000  0.4949980000000 1.0
C      1  0.5541080000000  0.5169330000000  0.4591400000000 1.0
C      1  0.4389080000000  0.4616930000000  0.4872880000000 1.0
C      1  0.5575310000000  0.4909900000000  0.5292820000000 1.0
C      1  0.4425580000000  0.5291090000000  0.5084450000000 1.0
C      1  0.4319420000000  0.5502140000000  0.5406670000000 1.0
C      1  0.5696910000000  0.5511280000000  0.4463780000000 1.0
C      1  0.4266240000000  0.4460590000000  0.4512690000000 1.0
C      1  0.5601350000000  0.4556220000000  0.5483820000000 1.0
C      1  0.4825220000000  0.5814050000000  0.4574140000000 1.0
C      1  0.5194300000000  0.4519060000000  0.4218810000000 1.0
C      1  0.4803920000000  0.4113120000000  0.5453790000000 1.0
C      1  0.5177210000000  0.5448090000000  0.5813560000000 1.0
C      1  0.5851860000000  0.4745150000000  0.5055650000000 1.0
C      1  0.4119200000000  0.5084490000000  0.5234610000000 1.0
C      1  0.5837240000000  0.5270000000000  0.4906940000000 1.0
C      1  0.4159600000000  0.4923030000000  0.4742550000000 1.0
C      1  0.4220410000000  0.5232040000000  0.5455510000000 1.0
C      1  0.5788420000000  0.5571980000000  0.4757640000000 1.0
C      1  0.4223650000000  0.4766070000000  0.4447780000000 1.0
C      1  0.5744640000000  0.4472090000000  0.5219580000000 1.0
C      1  0.4315490000000  0.4295610000000  0.5310220000000 1.0
C      1  0.5702280000000  0.5345400000000  0.5649770000000 1.0
C      1  0.4280400000000  0.5706580000000  0.4719910000000 1.0
C      1  0.5746090000000  0.4707560000000  0.4346100000000 1.0
C      1  0.5038540000000  0.5822290000000  0.4840790000000 1.0
C      1  0.5157040000000  0.4816290000000  0.4084790000000 1.0
C      1  0.4959420000000  0.4201430000000  0.5172670000000 1.0
C      1  0.4942810000000  0.5225390000000  0.5871670000000 1.0
C      1  0.4702690000000  0.4286680000000  0.4975980000000 1.0
C      1  0.5393210000000  0.4964280000000  0.5718130000000 1.0
C      1  0.4743880000000  0.5774030000000  0.4962310000000 1.0
C      1  0.5330110000000  0.5022210000000  0.4285520000000 1.0
C      1  0.4909150000000  0.4049300000000  0.4583440000000 1.0
C      1  0.5083910000000  0.4616740000000  0.5974930000000 1.0
C      1  0.4967700000000  0.5954320000000  0.5372300000000 1.0
C      1  0.5046590000000  0.5387770000000  0.4121680000000 1.0
C      1  0.5082320000000  0.4278720000000  0.5564740000000 1.0
C      1  0.4877310000000  0.5558820000000  0.5678520000000 1.0
C      1  0.5142260000000  0.5718720000000  0.4474760000000 1.0
C      1  0.4871490000000  0.4482780000000  0.4297630000000 1.0
C      1  0.5536510000000  0.5216740000000  0.5004980000000 1.0
C      1  0.4454130000000  0.5050590000000  0.4740750000000 1.0
C      1  0.5565700000000  0.4745860000000  0.4916680000000 1.0
C      1  0.4512810000000  0.4924340000000  0.5216100000000 1.0
C      1  0.4620770000000  0.4935060000000  0.4961140000000 1.0
C      1  0.5426680000000  0.4980580000000  0.4924530000000 1.0
C      1  0.5004110000000  0.5038120000000  0.5004110000000 1.0
END
