TITL C-2782238-9940-817 -0.00263870835623424 125000 -339.874463190796 0 0 60 (C1) n - 1
REM
REM in /home/nfs/bkarasulu/CARBON/AIRSS/Generating-Clusters/REBO/Higher-Symm/SD-CG/HFTN-CG
REM
REM
REM
REM
REM
REM ./C.cell (12c818d87b63d06a65506943cc24bca4)
REM
REM compiler GCC version 9.2.1 20190827 (Red Hat 9.2.1-1)
REM options -cpp -mtune=generic -march=x86-64 -g -O0 -fpre-include=/usr/include/finclude/math-vector-fortran.h
REM seed 1506580977 33773798 -476679505 -870315240 816404311 -1685575263 1444375834 -1502924905 2026946833 -1428393144 2085070440 -1140880524 450214241 -885164581 -1903893681 -491528829 1178762069 -243077978 -127920677 -379104753 -708520665 -467785443 -1216378758 1177751854 -1028103499 562219089 899526994 -811298892 1519932438 -1150715268 -524330901 1146802268 2105088166
REM
CELL 1.54180   50.00000   50.00000   50.00000   90.00000   90.00000   90.00000
LATT -1
SFAC C  
C      1  0.4610900000000  0.4561690000000  0.5495060000000 1.0
C      1  0.4637170000000  0.4402340000000  0.4711060000000 1.0
C      1  0.4600460000000  0.5091130000000  0.4339430000000 1.0
C      1  0.4609780000000  0.5671920000000  0.4840130000000 1.0
C      1  0.4627190000000  0.5334560000000  0.5589770000000 1.0
C      1  0.5069180000000  0.5320470000000  0.5351210000000 1.0
C      1  0.5093810000000  0.4792940000000  0.5519000000000 1.0
C      1  0.5057520000000  0.4389100000000  0.4903100000000 1.0
C      1  0.5066640000000  0.4914320000000  0.4464030000000 1.0
C      1  0.5055460000000  0.5430840000000  0.4769050000000 1.0
C      1  0.5428720000000  0.5513280000000  0.4880620000000 1.0
C      1  0.5451460000000  0.5288070000000  0.5455780000000 1.0
C      1  0.5439140000000  0.4675190000000  0.5407710000000 1.0
C      1  0.5417200000000  0.4538350000000  0.4816220000000 1.0
C      1  0.5440960000000  0.5047480000000  0.4485560000000 1.0
C      1  0.5576310000000  0.4900350000000  0.4762470000000 1.0
C      1  0.5573280000000  0.5209610000000  0.4825180000000 1.0
C      1  0.5571920000000  0.5245140000000  0.5139270000000 1.0
C      1  0.5579120000000  0.4957730000000  0.5271520000000 1.0
C      1  0.5571230000000  0.4745700000000  0.5037970000000 1.0
C      1  0.5090970000000  0.4863320000000  0.5208870000000 1.0
C      1  0.5087840000000  0.4708200000000  0.4966100000000 1.0
C      1  0.5081850000000  0.4900420000000  0.4746520000000 1.0
C      1  0.5078030000000  0.5167320000000  0.4859610000000 1.0
C      1  0.5083610000000  0.5140300000000  0.5142040000000 1.0
C      1  0.4870490000000  0.4202840000000  0.5118700000000 1.0
C      1  0.4904350000000  0.4750480000000  0.4277430000000 1.0
C      1  0.4941650000000  0.5571930000000  0.4531370000000 1.0
C      1  0.4940590000000  0.5568380000000  0.5359800000000 1.0
C      1  0.4901950000000  0.4813270000000  0.5752170000000 1.0
C      1  0.4501730000000  0.4523670000000  0.4924490000000 1.0
C      1  0.4465170000000  0.4942380000000  0.4537400000000 1.0
C      1  0.4474010000000  0.5433230000000  0.4777900000000 1.0
C      1  0.4472710000000  0.5322510000000  0.5353280000000 1.0
C      1  0.4480760000000  0.4796480000000  0.5409790000000 1.0
C      1  0.5388740000000  0.5520870000000  0.5218870000000 1.0
C      1  0.5427430000000  0.4969140000000  0.5577260000000 1.0
C      1  0.5387170000000  0.4476030000000  0.5137090000000 1.0
C      1  0.5408200000000  0.4718720000000  0.4528780000000 1.0
C      1  0.5401990000000  0.5371960000000  0.4579110000000 1.0
C      1  0.4771700000000  0.5586830000000  0.5592360000000 1.0
C      1  0.4721310000000  0.4602490000000  0.5755850000000 1.0
C      1  0.4802790000000  0.4180350000000  0.4808560000000 1.0
C      1  0.4713410000000  0.4914010000000  0.4143610000000 1.0
C      1  0.4754590000000  0.5771610000000  0.4612900000000 1.0
C      1  0.4687810000000  0.5171200000000  0.4773140000000 1.0
C      1  0.4679660000000  0.5286370000000  0.5085830000000 1.0
C      1  0.4711290000000  0.5012550000000  0.5284920000000 1.0
C      1  0.4710090000000  0.4731720000000  0.5092970000000 1.0
C      1  0.4687760000000  0.4840160000000  0.4773420000000 1.0
C      1  0.5169170000000  0.5182310000000  0.5619190000000 1.0
C      1  0.5144290000000  0.4501750000000  0.5366630000000 1.0
C      1  0.5143740000000  0.4529190000000  0.4613540000000 1.0
C      1  0.5156790000000  0.5218770000000  0.4400800000000 1.0
C      1  0.5136610000000  0.5626380000000  0.5016560000000 1.0
C      1  0.4804070000000  0.5604410000000  0.5076210000000 1.0
C      1  0.4842180000000  0.5093260000000  0.5589270000000 1.0
C      1  0.4836770000000  0.4474560000000  0.5278060000000 1.0
C      1  0.4829050000000  0.4610380000000  0.4565080000000 1.0
C      1  0.4830190000000  0.5270030000000  0.4480360000000 1.0
END
