TITL C-2782226-7400-1231 -0.00126533802192388 125000 -1067.21011083763 0 0 186 (C1) n - 1
REM
REM in /home/nfs/bkarasulu/CARBON/AIRSS/Generating-Clusters/REBO/Higher-Symm/SD-CG/HFTN-CG
REM
REM
REM
REM
REM
REM ./C.cell (12c818d87b63d06a65506943cc24bca4)
REM
REM compiler GCC version 9.2.1 20190827 (Red Hat 9.2.1-1)
REM options -cpp -mtune=generic -march=x86-64 -g -O0 -fpre-include=/usr/include/finclude/math-vector-fortran.h
REM seed -999636584 -526823024 -1649120044 1608569894 1554896533 1331174437 -135345367 289202339 311751799 1818971763 621495207 14067629 -2126034218 1775139310 545441520 531270985 -467701310 230374807 2013633577 -1969973744 926328157 1627846059 1189813272 1973532049 1772529240 -1678134913 -1944197246 -435271760 833288222 2041866653 1891689808 -1616112736 1629322925
REM
CELL 1.54180   50.00000   50.00000   50.00000   90.00000   90.00000   90.00000
LATT -1
SFAC C  
C      1  0.5926950000000  0.4715820000000  0.5524960000000 1.0
C      1  0.4146540000000  0.4710170000000  0.5445790000000 1.0
C      1  0.5154940000000  0.4539650000000  0.4781960000000 1.0
C      1  0.4841040000000  0.4520060000000  0.4731620000000 1.0
C      1  0.4530870000000  0.5202790000000  0.4735330000000 1.0
C      1  0.5447880000000  0.5219100000000  0.4776510000000 1.0
C      1  0.4623260000000  0.4776070000000  0.3818720000000 1.0
C      1  0.5356760000000  0.4819430000000  0.3845970000000 1.0
C      1  0.4837020000000  0.4984240000000  0.4926800000000 1.0
C      1  0.5162480000000  0.4957390000000  0.4988380000000 1.0
C      1  0.5201770000000  0.5292810000000  0.4138000000000 1.0
C      1  0.4728300000000  0.5273860000000  0.4079590000000 1.0
C      1  0.4815430000000  0.4652800000000  0.5009180000000 1.0
C      1  0.5209720000000  0.4637540000000  0.5054900000000 1.0
C      1  0.4104040000000  0.5704590000000  0.5469570000000 1.0
C      1  0.5933080000000  0.5687370000000  0.5501950000000 1.0
C      1  0.4569570000000  0.5419600000000  0.5140100000000 1.0
C      1  0.5476130000000  0.5371210000000  0.5184250000000 1.0
C      1  0.4846090000000  0.4217030000000  0.5518120000000 1.0
C      1  0.5173540000000  0.4203400000000  0.5555390000000 1.0
C      1  0.5136140000000  0.3923130000000  0.5275230000000 1.0
C      1  0.4837830000000  0.3921030000000  0.5254090000000 1.0
C      1  0.4820290000000  0.5354810000000  0.4741790000000 1.0
C      1  0.5134910000000  0.5333870000000  0.4798050000000 1.0
C      1  0.4114840000000  0.4568750000000  0.4614790000000 1.0
C      1  0.5891740000000  0.4582230000000  0.4653570000000 1.0
C      1  0.4833980000000  0.4990520000000  0.4588100000000 1.0
C      1  0.5158940000000  0.4973250000000  0.4647530000000 1.0
C      1  0.4209680000000  0.4269910000000  0.4754510000000 1.0
C      1  0.5756910000000  0.4285540000000  0.4759110000000 1.0
C      1  0.5841210000000  0.4885260000000  0.5736270000000 1.0
C      1  0.4245190000000  0.4885480000000  0.5651840000000 1.0
C      1  0.5128090000000  0.4343400000000  0.4519200000000 1.0
C      1  0.4824340000000  0.4333610000000  0.4451610000000 1.0
C      1  0.4836530000000  0.5001280000000  0.3956360000000 1.0
C      1  0.5130830000000  0.5018680000000  0.3987050000000 1.0
C      1  0.5576230000000  0.4444140000000  0.5840120000000 1.0
C      1  0.4478780000000  0.4427940000000  0.5786620000000 1.0
C      1  0.4781250000000  0.4374720000000  0.4069460000000 1.0
C      1  0.5110740000000  0.4385650000000  0.4124530000000 1.0
C      1  0.4337160000000  0.5627930000000  0.4520370000000 1.0
C      1  0.5615630000000  0.5640240000000  0.4555820000000 1.0
C      1  0.5153600000000  0.4790180000000  0.5350520000000 1.0
C      1  0.4807570000000  0.4835160000000  0.5296430000000 1.0
C      1  0.4876010000000  0.5647530000000  0.5482600000000 1.0
C      1  0.5200110000000  0.5562580000000  0.5484490000000 1.0
C      1  0.5627290000000  0.5018380000000  0.5965770000000 1.0
C      1  0.4439640000000  0.5031440000000  0.5891230000000 1.0
C      1  0.4461540000000  0.4228260000000  0.5060030000000 1.0
C      1  0.5548400000000  0.4203030000000  0.5087650000000 1.0
C      1  0.4804180000000  0.5558240000000  0.3999950000000 1.0
C      1  0.5093420000000  0.5571970000000  0.4087060000000 1.0
C      1  0.4152110000000  0.4338680000000  0.5089580000000 1.0
C      1  0.5864430000000  0.4294240000000  0.5089280000000 1.0
C      1  0.5152960000000  0.5752630000000  0.5763160000000 1.0
C      1  0.4837410000000  0.5833970000000  0.5766300000000 1.0
C      1  0.5477550000000  0.4501180000000  0.5341180000000 1.0
C      1  0.4551620000000  0.4528280000000  0.5306770000000 1.0
C      1  0.5571770000000  0.4875970000000  0.5441730000000 1.0
C      1  0.4487600000000  0.4921970000000  0.5322760000000 1.0
C      1  0.4041580000000  0.4594470000000  0.4946220000000 1.0
C      1  0.5974340000000  0.4580440000000  0.4984210000000 1.0
C      1  0.5198950000000  0.5461580000000  0.5085430000000 1.0
C      1  0.4860490000000  0.5506260000000  0.5028310000000 1.0
C      1  0.5465410000000  0.5610770000000  0.5778440000000 1.0
C      1  0.4556200000000  0.5643360000000  0.5746350000000 1.0
C      1  0.4014540000000  0.5145960000000  0.4422840000000 1.0
C      1  0.5936730000000  0.5145030000000  0.4451660000000 1.0
C      1  0.3740650000000  0.5270320000000  0.5092780000000 1.0
C      1  0.6269380000000  0.5255030000000  0.5101530000000 1.0
C      1  0.5506160000000  0.5307970000000  0.4237230000000 1.0
C      1  0.4434310000000  0.5267370000000  0.4198410000000 1.0
C      1  0.5746000000000  0.5566810000000  0.5105900000000 1.0
C      1  0.4265630000000  0.5569390000000  0.5072180000000 1.0
C      1  0.4534950000000  0.4330120000000  0.4303040000000 1.0
C      1  0.5389410000000  0.4365380000000  0.4323680000000 1.0
C      1  0.4574360000000  0.5546750000000  0.4326100000000 1.0
C      1  0.5352430000000  0.5560590000000  0.4391460000000 1.0
C      1  0.4126230000000  0.4822590000000  0.4382430000000 1.0
C      1  0.5827220000000  0.4820480000000  0.4414910000000 1.0
C      1  0.4442650000000  0.5052960000000  0.4455140000000 1.0
C      1  0.5534710000000  0.5079900000000  0.4485260000000 1.0
C      1  0.3813110000000  0.5364760000000  0.4833320000000 1.0
C      1  0.6175350000000  0.5348590000000  0.4849860000000 1.0
C      1  0.5154720000000  0.4723650000000  0.5684120000000 1.0
C      1  0.4835700000000  0.4750170000000  0.5626040000000 1.0
C      1  0.5636740000000  0.5356120000000  0.5922510000000 1.0
C      1  0.4407050000000  0.5365660000000  0.5851480000000 1.0
C      1  0.5996350000000  0.4891960000000  0.4881970000000 1.0
C      1  0.3963930000000  0.4900030000000  0.4854440000000 1.0
C      1  0.4414480000000  0.5459890000000  0.5424080000000 1.0
C      1  0.5636050000000  0.5426850000000  0.5463010000000 1.0
C      1  0.4414020000000  0.4973920000000  0.4935530000000 1.0
C      1  0.5558030000000  0.4995690000000  0.4967590000000 1.0
C      1  0.4888770000000  0.4220070000000  0.5833350000000 1.0
C      1  0.5180820000000  0.4201960000000  0.5885500000000 1.0
C      1  0.4034280000000  0.4843890000000  0.5183290000000 1.0
C      1  0.5984700000000  0.4830700000000  0.5217580000000 1.0
C      1  0.4234140000000  0.4942340000000  0.4682350000000 1.0
C      1  0.5724930000000  0.4938930000000  0.4714950000000 1.0
C      1  0.4850910000000  0.5508140000000  0.5855890000000 1.0
C      1  0.5184290000000  0.5437950000000  0.5868430000000 1.0
C      1  0.4408020000000  0.5780360000000  0.5471010000000 1.0
C      1  0.5623180000000  0.5747830000000  0.5509460000000 1.0
C      1  0.4496980000000  0.5811910000000  0.5140870000000 1.0
C      1  0.5497610000000  0.5784720000000  0.5194050000000 1.0
C      1  0.4843170000000  0.5785030000000  0.4838030000000 1.0
C      1  0.5164160000000  0.5719930000000  0.4881310000000 1.0
C      1  0.4429220000000  0.4496340000000  0.4849540000000 1.0
C      1  0.5566990000000  0.4507070000000  0.4933240000000 1.0
C      1  0.5339990000000  0.4402120000000  0.6002510000000 1.0
C      1  0.4718640000000  0.4413670000000  0.5949660000000 1.0
C      1  0.5189150000000  0.5270090000000  0.4477260000000 1.0
C      1  0.4765470000000  0.5278960000000  0.4420640000000 1.0
C      1  0.4871220000000  0.5158760000000  0.5219280000000 1.0
C      1  0.5185200000000  0.5113490000000  0.5281390000000 1.0
C      1  0.4432810000000  0.5803600000000  0.4801650000000 1.0
C      1  0.5553550000000  0.5803100000000  0.4853960000000 1.0
C      1  0.6031700000000  0.5156940000000  0.5268800000000 1.0
C      1  0.3997330000000  0.5171950000000  0.5231870000000 1.0
C      1  0.5274850000000  0.4714270000000  0.4542880000000 1.0
C      1  0.4732250000000  0.4716560000000  0.4515550000000 1.0
C      1  0.4011630000000  0.5571340000000  0.4861260000000 1.0
C      1  0.5990960000000  0.5565240000000  0.4888450000000 1.0
C      1  0.5477340000000  0.4180440000000  0.4596380000000 1.0
C      1  0.4504350000000  0.4178520000000  0.4608640000000 1.0
C      1  0.4716390000000  0.4976850000000  0.5928040000000 1.0
C      1  0.5352980000000  0.4935420000000  0.5957980000000 1.0
C      1  0.4560380000000  0.4619370000000  0.5571770000000 1.0
C      1  0.5457670000000  0.4656900000000  0.5625570000000 1.0
C      1  0.4868710000000  0.4693530000000  0.5961210000000 1.0
C      1  0.5186660000000  0.4672060000000  0.6017330000000 1.0
C      1  0.5165990000000  0.4687820000000  0.4250750000000 1.0
C      1  0.4844550000000  0.4667000000000  0.4221780000000 1.0
C      1  0.4819640000000  0.5936160000000  0.4530260000000 1.0
C      1  0.5136010000000  0.5936240000000  0.4615090000000 1.0
C      1  0.5973180000000  0.5378890000000  0.5477880000000 1.0
C      1  0.4073920000000  0.5401740000000  0.5430340000000 1.0
C      1  0.5860890000000  0.5221970000000  0.5720950000000 1.0
C      1  0.4190980000000  0.5220740000000  0.5651220000000 1.0
C      1  0.5928230000000  0.4465120000000  0.5368420000000 1.0
C      1  0.4175860000000  0.4426450000000  0.5396540000000 1.0
C      1  0.5248310000000  0.4107430000000  0.5026000000000 1.0
C      1  0.4752810000000  0.4118830000000  0.5007010000000 1.0
C      1  0.5363850000000  0.4938560000000  0.4226350000000 1.0
C      1  0.4607870000000  0.4910460000000  0.4193230000000 1.0
C      1  0.4438540000000  0.4653650000000  0.3938380000000 1.0
C      1  0.5537800000000  0.4691930000000  0.3964930000000 1.0
C      1  0.4500990000000  0.5162370000000  0.5520500000000 1.0
C      1  0.5551030000000  0.5145260000000  0.5596910000000 1.0
C      1  0.5557700000000  0.4594450000000  0.4603840000000 1.0
C      1  0.4444720000000  0.4631360000000  0.4548480000000 1.0
C      1  0.4787030000000  0.5333030000000  0.5495080000000 1.0
C      1  0.5269910000000  0.5276530000000  0.5512720000000 1.0
C      1  0.5166140000000  0.5815450000000  0.5266680000000 1.0
C      1  0.4823930000000  0.5844990000000  0.5232830000000 1.0
C      1  0.4777240000000  0.6084020000000  0.4994550000000 1.0
C      1  0.5102100000000  0.6031240000000  0.5015800000000 1.0
C      1  0.4360460000000  0.4274120000000  0.5548910000000 1.0
C      1  0.5601320000000  0.4289830000000  0.5574030000000 1.0
C      1  0.3875090000000  0.5135990000000  0.4672250000000 1.0
C      1  0.6089110000000  0.5124200000000  0.4695080000000 1.0
C      1  0.5833780000000  0.5407050000000  0.4435510000000 1.0
C      1  0.4115130000000  0.5406100000000  0.4388140000000 1.0
C      1  0.5132220000000  0.5783070000000  0.4335960000000 1.0
C      1  0.4796220000000  0.5772020000000  0.4262810000000 1.0
C      1  0.4589540000000  0.6065460000000  0.4722720000000 1.0
C      1  0.5369510000000  0.6051100000000  0.4808460000000 1.0
C      1  0.5696760000000  0.5110550000000  0.5228080000000 1.0
C      1  0.4329990000000  0.5176290000000  0.5159740000000 1.0
C      1  0.4324370000000  0.4587140000000  0.4233440000000 1.0
C      1  0.5602230000000  0.4613860000000  0.4262820000000 1.0
C      1  0.4830060000000  0.4120970000000  0.4712350000000 1.0
C      1  0.5173940000000  0.4105490000000  0.4739150000000 1.0
C      1  0.5181540000000  0.4360570000000  0.5246490000000 1.0
C      1  0.4837320000000  0.4376450000000  0.5213600000000 1.0
C      1  0.4425720000000  0.4696400000000  0.5074580000000 1.0
C      1  0.5584050000000  0.4738010000000  0.5138120000000 1.0
C      1  0.4883960000000  0.5187910000000  0.5788380000000 1.0
C      1  0.5194830000000  0.5128930000000  0.5800680000000 1.0
C      1  0.5610010000000  0.5465630000000  0.4820730000000 1.0
C      1  0.4388810000000  0.5462820000000  0.4786850000000 1.0
C      1  0.4572960000000  0.4115800000000  0.5361970000000 1.0
C      1  0.5427520000000  0.4074510000000  0.5378280000000 1.0
C      1  0.5653290000000  0.5051120000000  0.4107180000000 1.0
C      1  0.4297940000000  0.4995810000000  0.4089210000000 1.0
END
