TITL C-2782232-2968-1276 -0.00340106852218697 125000 -291.533192842763 0 0 52 (C1) n - 1
REM
REM in /home/nfs/bkarasulu/CARBON/AIRSS/Generating-Clusters/REBO/Higher-Symm/SD-CG/HFTN-CG
REM
REM
REM
REM
REM
REM ./C.cell (12c818d87b63d06a65506943cc24bca4)
REM
REM compiler GCC version 9.2.1 20190827 (Red Hat 9.2.1-1)
REM options -cpp -mtune=generic -march=x86-64 -g -O0 -fpre-include=/usr/include/finclude/math-vector-fortran.h
REM seed 1212647041 -931924145 -2066924397 -168818516 -464390521 -1653463562 -1040800139 -1041650668 -363778022 1968426579 293698024 114495785 1518453854 -632815625 769874088 -129955665 -1475111363 -2046776765 528241047 1860575707 -593224137 910488516 -1298407134 -633358709 -1866674074 271874490 -84562353 739205880 1277296646 -1622637775 -999590529 1956328329 -1794525737
REM
CELL 1.54180   50.00000   50.00000   50.00000   90.00000   90.00000   90.00000
LATT -1
SFAC C  
C      1  0.4662340000000  0.4346490000000  0.4664650000000 1.0
C      1  0.4370060000000  0.4705140000000  0.4655690000000 1.0
C      1  0.4651070000000  0.4687900000000  0.4354870000000 1.0
C      1  0.5276460000000  0.4283300000000  0.5407640000000 1.0
C      1  0.5294220000000  0.6047100000000  0.4907020000000 1.0
C      1  0.4603530000000  0.5560040000000  0.5268900000000 1.0
C      1  0.6008170000000  0.4909130000000  0.5110730000000 1.0
C      1  0.5260200000000  0.5232340000000  0.4642680000000 1.0
C      1  0.4187190000000  0.5385160000000  0.5260060000000 1.0
C      1  0.5305920000000  0.4491010000000  0.5578580000000 1.0
C      1  0.5378720000000  0.5161890000000  0.4041110000000 1.0
C      1  0.4667450000000  0.5325480000000  0.5648000000000 1.0
C      1  0.4946660000000  0.5109090000000  0.4357700000000 1.0
C      1  0.5131120000000  0.4330960000000  0.4880180000000 1.0
C      1  0.4404540000000  0.4910900000000  0.5126230000000 1.0
C      1  0.5149240000000  0.5089260000000  0.5651890000000 1.0
C      1  0.5157510000000  0.4774740000000  0.4344410000000 1.0
C      1  0.4861930000000  0.4846070000000  0.5647610000000 1.0
C      1  0.4840850000000  0.4370780000000  0.5146910000000 1.0
C      1  0.4932550000000  0.5649030000000  0.4892370000000 1.0
C      1  0.5114580000000  0.5663500000000  0.5242680000000 1.0
C      1  0.5552390000000  0.4848640000000  0.4835960000000 1.0
C      1  0.5527800000000  0.5150170000000  0.5089730000000 1.0
C      1  0.4452930000000  0.5179330000000  0.4839180000000 1.0
C      1  0.5498540000000  0.5309310000000  0.5310860000000 1.0
C      1  0.5340950000000  0.5286340000000  0.5591480000000 1.0
C      1  0.5306970000000  0.5550030000000  0.5406900000000 1.0
C      1  0.4580440000000  0.5348070000000  0.4666440000000 1.0
C      1  0.4461580000000  0.4727490000000  0.5321820000000 1.0
C      1  0.5540520000000  0.4621840000000  0.4680160000000 1.0
C      1  0.4812300000000  0.5330920000000  0.4445430000000 1.0
C      1  0.4649430000000  0.4673770000000  0.5578900000000 1.0
C      1  0.5330620000000  0.4581830000000  0.4439390000000 1.0
C      1  0.4809220000000  0.5574690000000  0.4657410000000 1.0
C      1  0.4663180000000  0.4476790000000  0.5325740000000 1.0
C      1  0.5326620000000  0.4381370000000  0.4692320000000 1.0
C      1  0.4529390000000  0.4861490000000  0.4826630000000 1.0
C      1  0.4863810000000  0.4817860000000  0.4487060000000 1.0
C      1  0.4839170000000  0.4477780000000  0.4839040000000 1.0
C      1  0.5760320000000  0.4959790000000  0.5027580000000 1.0
C      1  0.5293360000000  0.5059830000000  0.4861690000000 1.0
C      1  0.4308190000000  0.5202120000000  0.5109210000000 1.0
C      1  0.5179550000000  0.4760670000000  0.5588110000000 1.0
C      1  0.5200480000000  0.5042660000000  0.4198930000000 1.0
C      1  0.4849080000000  0.5149340000000  0.5534260000000 1.0
C      1  0.5122820000000  0.4253910000000  0.5177290000000 1.0
C      1  0.5144330000000  0.5845230000000  0.4994520000000 1.0
C      1  0.4851550000000  0.5476650000000  0.5162540000000 1.0
C      1  0.4904190000000  0.5184480000000  0.5215680000000 1.0
C      1  0.4837340000000  0.4793150000000  0.4803190000000 1.0
C      1  0.5066850000000  0.4899620000000  0.5310290000000 1.0
C      1  0.5028450000000  0.4964760000000  0.4984890000000 1.0
END
