TITL C-2782237-5345-1308 -0.00111980406300746 125000 -551.951618535088 0 0 100 (C1) n - 1
REM
REM in /home/nfs/bkarasulu/CARBON/AIRSS/Generating-Clusters/REBO/Higher-Symm/SD-CG/HFTN-CG
REM
REM
REM
REM
REM
REM ./C.cell (12c818d87b63d06a65506943cc24bca4)
REM
REM compiler GCC version 9.2.1 20190827 (Red Hat 9.2.1-1)
REM options -cpp -mtune=generic -march=x86-64 -g -O0 -fpre-include=/usr/include/finclude/math-vector-fortran.h
REM seed -1529997390 -303503447 -1516750417 -605896300 1077831365 1954929540 -1243555662 -1449294280 130198300 -1424014348 -485128959 -633494782 -846766214 323921845 -1917444105 -1261790959 1527356832 1744687282 -1155830841 346725973 1269762533 -901938250 1716111344 334995134 685418015 -1763782173 2014561544 -466370658 724506652 -412092819 -830332189 -1068265685 1922748722
REM
CELL 1.54180   50.00000   50.00000   50.00000   90.00000   90.00000   90.00000
LATT -1
SFAC C  
C      1  0.5661890000000  0.5187060000000  0.4688170000000 1.0
C      1  0.5161270000000  0.4695560000000  0.5635300000000 1.0
C      1  0.4709360000000  0.5696830000000  0.5208080000000 1.0
C      1  0.4416020000000  0.4785470000000  0.4675110000000 1.0
C      1  0.5659930000000  0.4774740000000  0.5350320000000 1.0
C      1  0.4358580000000  0.5322490000000  0.5348090000000 1.0
C      1  0.4779910000000  0.5359620000000  0.5621170000000 1.0
C      1  0.5245700000000  0.5304840000000  0.4367440000000 1.0
C      1  0.4788700000000  0.4664680000000  0.4353610000000 1.0
C      1  0.5341210000000  0.4383190000000  0.5239240000000 1.0
C      1  0.4691090000000  0.4343820000000  0.4811520000000 1.0
C      1  0.5320400000000  0.5682780000000  0.4740110000000 1.0
C      1  0.4535630000000  0.4920080000000  0.4932510000000 1.0
C      1  0.4861980000000  0.4946780000000  0.4440570000000 1.0
C      1  0.4978310000000  0.4389650000000  0.4877980000000 1.0
C      1  0.5605460000000  0.5143250000000  0.4979460000000 1.0
C      1  0.4398460000000  0.5184300000000  0.5091720000000 1.0
C      1  0.5618480000000  0.4826220000000  0.5051180000000 1.0
C      1  0.5148770000000  0.5045880000000  0.4509440000000 1.0
C      1  0.4801930000000  0.5062390000000  0.5579670000000 1.0
C      1  0.5117280000000  0.4984730000000  0.5591150000000 1.0
C      1  0.5061680000000  0.5561180000000  0.4852220000000 1.0
C      1  0.4990390000000  0.5630720000000  0.5148540000000 1.0
C      1  0.5042280000000  0.4401960000000  0.5195460000000 1.0
C      1  0.5455480000000  0.4264020000000  0.4939530000000 1.0
C      1  0.4147590000000  0.4757420000000  0.5406670000000 1.0
C      1  0.4947990000000  0.5438530000000  0.4290410000000 1.0
C      1  0.4564880000000  0.5768420000000  0.4934520000000 1.0
C      1  0.5461580000000  0.5756100000000  0.5040210000000 1.0
C      1  0.4577940000000  0.4201550000000  0.5087310000000 1.0
C      1  0.5730400000000  0.5097260000000  0.5433540000000 1.0
C      1  0.4273820000000  0.5087370000000  0.4609500000000 1.0
C      1  0.5768300000000  0.4903120000000  0.4561530000000 1.0
C      1  0.5088500000000  0.4540930000000  0.4271990000000 1.0
C      1  0.4869870000000  0.4597070000000  0.5738550000000 1.0
C      1  0.5086790000000  0.5476990000000  0.5714900000000 1.0
C      1  0.4948300000000  0.5122380000000  0.4172180000000 1.0
C      1  0.5155450000000  0.4106150000000  0.4952840000000 1.0
C      1  0.4040360000000  0.4834140000000  0.5100770000000 1.0
C      1  0.5078490000000  0.4847200000000  0.4119440000000 1.0
C      1  0.4853550000000  0.4909020000000  0.5880750000000 1.0
C      1  0.5053830000000  0.5171670000000  0.5868590000000 1.0
C      1  0.4862140000000  0.5941790000000  0.4932280000000 1.0
C      1  0.5154840000000  0.5904370000000  0.5032610000000 1.0
C      1  0.4894260000000  0.4098660000000  0.5137710000000 1.0
C      1  0.5907540000000  0.5083730000000  0.5143360000000 1.0
C      1  0.4153310000000  0.5042730000000  0.4926410000000 1.0
C      1  0.5904190000000  0.4901660000000  0.4875060000000 1.0
C      1  0.4619760000000  0.4713810000000  0.5128960000000 1.0
C      1  0.4672720000000  0.5103940000000  0.4627060000000 1.0
C      1  0.5159030000000  0.4569160000000  0.4716960000000 1.0
C      1  0.5384790000000  0.5284130000000  0.5141920000000 1.0
C      1  0.4622660000000  0.5290080000000  0.4892690000000 1.0
C      1  0.5429970000000  0.4658090000000  0.4880410000000 1.0
C      1  0.5324960000000  0.4835410000000  0.4620430000000 1.0
C      1  0.4651140000000  0.4856220000000  0.5424190000000 1.0
C      1  0.5302600000000  0.5152910000000  0.5429740000000 1.0
C      1  0.4874070000000  0.5364470000000  0.4712100000000 1.0
C      1  0.5143650000000  0.5423070000000  0.5323300000000 1.0
C      1  0.4849810000000  0.4597610000000  0.5340770000000 1.0
C      1  0.4102840000000  0.4729910000000  0.4662950000000 1.0
C      1  0.4634620000000  0.4663860000000  0.4083160000000 1.0
C      1  0.4515850000000  0.4254830000000  0.4553440000000 1.0
C      1  0.5747330000000  0.5445660000000  0.4530090000000 1.0
C      1  0.4136810000000  0.5298970000000  0.5489470000000 1.0
C      1  0.5924550000000  0.4622640000000  0.5408280000000 1.0
C      1  0.5387400000000  0.5249460000000  0.4125880000000 1.0
C      1  0.4771080000000  0.5462670000000  0.5929520000000 1.0
C      1  0.5410540000000  0.4529410000000  0.5757370000000 1.0
C      1  0.5284260000000  0.5918210000000  0.4586890000000 1.0
C      1  0.4569890000000  0.5831180000000  0.5468290000000 1.0
C      1  0.5459830000000  0.4092460000000  0.5299910000000 1.0
C      1  0.4568510000000  0.4745720000000  0.5798950000000 1.0
C      1  0.4743730000000  0.5843510000000  0.4654950000000 1.0
C      1  0.5880370000000  0.4615760000000  0.4710450000000 1.0
C      1  0.5357800000000  0.5316390000000  0.5846650000000 1.0
C      1  0.4656720000000  0.5292500000000  0.4183170000000 1.0
C      1  0.5365370000000  0.4711750000000  0.4168580000000 1.0
C      1  0.5307820000000  0.4137450000000  0.4655530000000 1.0
C      1  0.4695670000000  0.4133790000000  0.5400620000000 1.0
C      1  0.5314770000000  0.5878800000000  0.5325010000000 1.0
C      1  0.4171600000000  0.5357160000000  0.4792420000000 1.0
C      1  0.5830990000000  0.5381970000000  0.5266330000000 1.0
C      1  0.4165940000000  0.4544260000000  0.5162080000000 1.0
C      1  0.5681080000000  0.4454670000000  0.4816770000000 1.0
C      1  0.4373290000000  0.4787930000000  0.5570980000000 1.0
C      1  0.4851930000000  0.5625620000000  0.4518670000000 1.0
C      1  0.4399280000000  0.5517890000000  0.4871220000000 1.0
C      1  0.5607120000000  0.5509670000000  0.5139460000000 1.0
C      1  0.4428880000000  0.4473510000000  0.5098680000000 1.0
C      1  0.5532350000000  0.5211150000000  0.5648580000000 1.0
C      1  0.4482560000000  0.5198390000000  0.4379740000000 1.0
C      1  0.5529430000000  0.4800840000000  0.4384640000000 1.0
C      1  0.5194890000000  0.4348580000000  0.4489730000000 1.0
C      1  0.4775550000000  0.4349440000000  0.5553910000000 1.0
C      1  0.5209500000000  0.5691890000000  0.5501550000000 1.0
C      1  0.4586450000000  0.5492630000000  0.5439520000000 1.0
C      1  0.5434670000000  0.5450890000000  0.4570020000000 1.0
C      1  0.5424600000000  0.4595880000000  0.5440800000000 1.0
C      1  0.4595160000000  0.4566940000000  0.4572380000000 1.0
END
