TITL C-2782230-7391-397 -0.00200994486922534 125000 -81.8040757098173 0 0 16 (D2) n - 1
REM
REM in /home/nfs/bkarasulu/CARBON/AIRSS/Generating-Clusters/REBO/Higher-Symm/SD-CG/HFTN-CG
REM
REM
REM
REM
REM
REM ./C.cell (12c818d87b63d06a65506943cc24bca4)
REM
REM compiler GCC version 9.2.1 20190827 (Red Hat 9.2.1-1)
REM options -cpp -mtune=generic -march=x86-64 -g -O0 -fpre-include=/usr/include/finclude/math-vector-fortran.h
REM seed -1649278190 1020484854 -90042601 -279485452 1143586457 -997020555 -1977243802 2097223546 -1449604193 -1950273041 1990718966 1984932337 453547817 772032213 692282069 802014696 -984664254 -1615503160 1102178839 -818308958 -1582842324 1667734809 1793699997 1800703210 617421020 -1628017639 -1603392258 -1912649701 -845939359 -790466610 -231486832 -594428310 703361308
REM
CELL 1.54180   50.00000   50.00000   50.00000   90.00000   90.00000   90.00000
LATT -1
SFAC C  
C      1  0.4987540000000  0.4514760000000  0.4885970000000 1.0
C      1  0.5012170000000  0.4907100000000  0.5489730000000 1.0
C      1  0.4990370000000  0.5485290000000  0.5114090000000 1.0
C      1  0.5009920000000  0.5092850000000  0.4510210000000 1.0
C      1  0.5050370000000  0.4278100000000  0.4813160000000 1.0
C      1  0.4949210000000  0.4877560000000  0.5735540000000 1.0
C      1  0.5054660000000  0.5721660000000  0.5186560000000 1.0
C      1  0.4945760000000  0.5122680000000  0.4264750000000 1.0
C      1  0.4623270000000  0.4872150000000  0.4978860000000 1.0
C      1  0.5376650000000  0.4967120000000  0.5125580000000 1.0
C      1  0.4623980000000  0.5129550000000  0.5023190000000 1.0
C      1  0.5376100000000  0.5031170000000  0.4872370000000 1.0
C      1  0.4915470000000  0.4786260000000  0.4969500000000 1.0
C      1  0.5084390000000  0.4941000000000  0.5207750000000 1.0
C      1  0.4916610000000  0.5214130000000  0.5030960000000 1.0
C      1  0.5083530000000  0.5058620000000  0.4791800000000 1.0
END
