TITL C-2782225-7408-695 -0.000926363138176957 125000 -762.444728171968 0 0 136 (C1) n - 1
REM
REM in /home/nfs/bkarasulu/CARBON/AIRSS/Generating-Clusters/REBO/Higher-Symm/SD-CG/HFTN-CG
REM
REM
REM
REM
REM
REM ./C.cell (12c818d87b63d06a65506943cc24bca4)
REM
REM compiler GCC version 9.2.1 20190827 (Red Hat 9.2.1-1)
REM options -cpp -mtune=generic -march=x86-64 -g -O0 -fpre-include=/usr/include/finclude/math-vector-fortran.h
REM seed 1745033757 1866296819 588731003 2028765580 -381005065 1717043571 -1053045667 -427212396 647798907 1474824716 475181195 -915015397 -2110930327 -279188021 1045791584 509174660 -939973869 -1520014120 2117535937 -2029591484 -558482157 1537063742 304635422 -1705348306 -154063941 -1027427520 -637530471 -932213942 598008540 1100630835 1380625119 -1630765588 -1033001374
REM
CELL 1.54180   50.00000   50.00000   50.00000   90.00000   90.00000   90.00000
LATT -1
SFAC C  
C      1  0.5626620000000  0.4672200000000  0.4650600000000 1.0
C      1  0.4643040000000  0.5491990000000  0.4625770000000 1.0
C      1  0.4637130000000  0.4743560000000  0.5572900000000 1.0
C      1  0.5413070000000  0.5264530000000  0.5217430000000 1.0
C      1  0.4404990000000  0.5286380000000  0.4675470000000 1.0
C      1  0.4397070000000  0.4635010000000  0.5367770000000 1.0
C      1  0.4670260000000  0.4452230000000  0.5406220000000 1.0
C      1  0.5379920000000  0.4474550000000  0.4589040000000 1.0
C      1  0.5223230000000  0.5485190000000  0.5368830000000 1.0
C      1  0.4668590000000  0.5203570000000  0.4473930000000 1.0
C      1  0.5303540000000  0.5199210000000  0.5514590000000 1.0
C      1  0.5384340000000  0.4774870000000  0.4443740000000 1.0
C      1  0.4643710000000  0.5022260000000  0.4120800000000 1.0
C      1  0.4202250000000  0.4594870000000  0.5010340000000 1.0
C      1  0.4985170000000  0.4172080000000  0.4613000000000 1.0
C      1  0.4593760000000  0.4997230000000  0.5903460000000 1.0
C      1  0.5424280000000  0.4983460000000  0.4104910000000 1.0
C      1  0.5381930000000  0.5013840000000  0.5858450000000 1.0
C      1  0.4176850000000  0.5398400000000  0.4982260000000 1.0
C      1  0.5847890000000  0.5407290000000  0.5005250000000 1.0
C      1  0.5803200000000  0.4608220000000  0.5003200000000 1.0
C      1  0.5010320000000  0.5822370000000  0.5375910000000 1.0
C      1  0.5026320000000  0.5806260000000  0.4642440000000 1.0
C      1  0.5005340000000  0.4235020000000  0.5393790000000 1.0
C      1  0.5440110000000  0.4365850000000  0.5688420000000 1.0
C      1  0.5701670000000  0.5415080000000  0.4354860000000 1.0
C      1  0.4356290000000  0.5663090000000  0.5418650000000 1.0
C      1  0.5433250000000  0.5625700000000  0.4324320000000 1.0
C      1  0.4573530000000  0.5630290000000  0.5680530000000 1.0
C      1  0.4572010000000  0.4381170000000  0.4326320000000 1.0
C      1  0.5694900000000  0.4588280000000  0.5645430000000 1.0
C      1  0.4316250000000  0.4606540000000  0.4369780000000 1.0
C      1  0.4313610000000  0.5409130000000  0.5644500000000 1.0
C      1  0.4347670000000  0.4335770000000  0.4577800000000 1.0
C      1  0.5655930000000  0.4321940000000  0.5428250000000 1.0
C      1  0.5661670000000  0.5674190000000  0.4574580000000 1.0
C      1  0.5094600000000  0.5143960000000  0.4700560000000 1.0
C      1  0.4669120000000  0.5018800000000  0.5191660000000 1.0
C      1  0.5110580000000  0.4660560000000  0.4966270000000 1.0
C      1  0.5109140000000  0.4884980000000  0.5361920000000 1.0
C      1  0.4904320000000  0.4899170000000  0.4652560000000 1.0
C      1  0.4931530000000  0.5138040000000  0.5319060000000 1.0
C      1  0.4668030000000  0.4956560000000  0.4858350000000 1.0
C      1  0.5308900000000  0.4895040000000  0.5108260000000 1.0
C      1  0.5351990000000  0.5014670000000  0.4803590000000 1.0
C      1  0.5154480000000  0.5358270000000  0.4927610000000 1.0
C      1  0.4868930000000  0.5345640000000  0.5077900000000 1.0
C      1  0.4800990000000  0.4693250000000  0.4981010000000 1.0
C      1  0.4743310000000  0.5810810000000  0.5079090000000 1.0
C      1  0.5085020000000  0.4726520000000  0.5857350000000 1.0
C      1  0.5887640000000  0.5062340000000  0.4706500000000 1.0
C      1  0.4737830000000  0.4180760000000  0.4931920000000 1.0
C      1  0.5240360000000  0.4194290000000  0.5069610000000 1.0
C      1  0.5314180000000  0.5852410000000  0.4930820000000 1.0
C      1  0.5093630000000  0.5323520000000  0.4145420000000 1.0
C      1  0.4929090000000  0.5316250000000  0.5873410000000 1.0
C      1  0.4929520000000  0.4736550000000  0.4162940000000 1.0
C      1  0.5851280000000  0.4938390000000  0.5258740000000 1.0
C      1  0.4127430000000  0.4950250000000  0.4667640000000 1.0
C      1  0.4143590000000  0.5039960000000  0.5333740000000 1.0
C      1  0.4887260000000  0.5588240000000  0.4439930000000 1.0
C      1  0.4373180000000  0.4898240000000  0.5686470000000 1.0
C      1  0.5597010000000  0.4366830000000  0.4918190000000 1.0
C      1  0.4883770000000  0.4417130000000  0.5651240000000 1.0
C      1  0.5115740000000  0.4404520000000  0.4404850000000 1.0
C      1  0.5094040000000  0.5627560000000  0.5630860000000 1.0
C      1  0.4389250000000  0.5072620000000  0.4338910000000 1.0
C      1  0.5599110000000  0.5092620000000  0.5611790000000 1.0
C      1  0.5656180000000  0.4917980000000  0.4326330000000 1.0
C      1  0.5654080000000  0.5655660000000  0.5094880000000 1.0
C      1  0.4386700000000  0.5637070000000  0.4911980000000 1.0
C      1  0.4367370000000  0.4322790000000  0.5096560000000 1.0
C      1  0.4763880000000  0.5972840000000  0.4780820000000 1.0
C      1  0.4777330000000  0.4791070000000  0.5991830000000 1.0
C      1  0.5956780000000  0.4727160000000  0.4720620000000 1.0
C      1  0.4769830000000  0.4042070000000  0.5241930000000 1.0
C      1  0.5236470000000  0.4012230000000  0.4780070000000 1.0
C      1  0.5285270000000  0.5978140000000  0.5247750000000 1.0
C      1  0.4784130000000  0.5308200000000  0.3999120000000 1.0
C      1  0.5245450000000  0.5290030000000  0.6005400000000 1.0
C      1  0.5244900000000  0.4766970000000  0.4035190000000 1.0
C      1  0.6002570000000  0.5246100000000  0.5264100000000 1.0
C      1  0.4060900000000  0.5288950000000  0.4676290000000 1.0
C      1  0.4067100000000  0.4707930000000  0.5304650000000 1.0
C      1  0.4183840000000  0.4614770000000  0.4686480000000 1.0
C      1  0.4663170000000  0.4206820000000  0.4604460000000 1.0
C      1  0.4595670000000  0.4693420000000  0.4193500000000 1.0
C      1  0.4195410000000  0.5376900000000  0.5322280000000 1.0
C      1  0.5837200000000  0.5397070000000  0.4669350000000 1.0
C      1  0.5811360000000  0.4608260000000  0.5325930000000 1.0
C      1  0.4672320000000  0.5793100000000  0.5398760000000 1.0
C      1  0.5345450000000  0.5799910000000  0.4603640000000 1.0
C      1  0.5328780000000  0.4225300000000  0.5397770000000 1.0
C      1  0.4594240000000  0.5321300000000  0.5821830000000 1.0
C      1  0.5422650000000  0.5314020000000  0.4184710000000 1.0
C      1  0.5420480000000  0.4677390000000  0.5827810000000 1.0
C      1  0.4377050000000  0.4872730000000  0.5119240000000 1.0
C      1  0.5156460000000  0.4396070000000  0.4801470000000 1.0
C      1  0.4914590000000  0.5105380000000  0.4311340000000 1.0
C      1  0.4295510000000  0.5086700000000  0.4918720000000 1.0
C      1  0.5654280000000  0.5168460000000  0.5099360000000 1.0
C      1  0.5656430000000  0.4904790000000  0.4911060000000 1.0
C      1  0.5127900000000  0.5645000000000  0.5109480000000 1.0
C      1  0.4845200000000  0.5590280000000  0.4837680000000 1.0
C      1  0.4853090000000  0.4416820000000  0.5149390000000 1.0
C      1  0.4882230000000  0.4877070000000  0.5617360000000 1.0
C      1  0.5130610000000  0.4890130000000  0.4396190000000 1.0
C      1  0.5088590000000  0.5091830000000  0.5703080000000 1.0
C      1  0.5231380000000  0.4480260000000  0.4117580000000 1.0
C      1  0.4148270000000  0.5222170000000  0.4375790000000 1.0
C      1  0.4484580000000  0.4123280000000  0.5236030000000 1.0
C      1  0.5237280000000  0.5569230000000  0.5895960000000 1.0
C      1  0.4782560000000  0.5573190000000  0.4144210000000 1.0
C      1  0.4761380000000  0.4503270000000  0.5920330000000 1.0
C      1  0.4108470000000  0.4758450000000  0.5615060000000 1.0
C      1  0.5923240000000  0.4780530000000  0.4406920000000 1.0
C      1  0.5866100000000  0.5233760000000  0.5534660000000 1.0
C      1  0.4490590000000  0.5846590000000  0.4771890000000 1.0
C      1  0.5558110000000  0.5858650000000  0.5247330000000 1.0
C      1  0.5509880000000  0.4147540000000  0.4779230000000 1.0
C      1  0.4561400000000  0.4469590000000  0.4886830000000 1.0
C      1  0.4866800000000  0.4606930000000  0.4474110000000 1.0
C      1  0.4455240000000  0.4895730000000  0.4607920000000 1.0
C      1  0.4585680000000  0.5512370000000  0.5128590000000 1.0
C      1  0.5438130000000  0.5534570000000  0.4886350000000 1.0
C      1  0.5374410000000  0.4501960000000  0.5114330000000 1.0
C      1  0.4877300000000  0.5388140000000  0.5544090000000 1.0
C      1  0.5139320000000  0.5389220000000  0.4475940000000 1.0
C      1  0.5149530000000  0.4596930000000  0.5547070000000 1.0
C      1  0.4452530000000  0.5095740000000  0.5440780000000 1.0
C      1  0.5581440000000  0.5105870000000  0.4575540000000 1.0
C      1  0.5535230000000  0.4894720000000  0.5363310000000 1.0
C      1  0.5403180000000  0.4617840000000  0.5378960000000 1.0
C      1  0.4610050000000  0.5359410000000  0.5390510000000 1.0
C      1  0.5415600000000  0.5366630000000  0.4625900000000 1.0
C      1  0.4609630000000  0.4630810000000  0.4635480000000 1.0
END
