TITL C-2782239-8622-1340 -0.000489719937937494 125000 -270.481832176964 0 0 48 (C1) n - 1
REM
REM in /home/nfs/bkarasulu/CARBON/AIRSS/Generating-Clusters/REBO/Higher-Symm/SD-CG/HFTN-CG
REM
REM
REM
REM
REM
REM ./C.cell (12c818d87b63d06a65506943cc24bca4)
REM
REM compiler GCC version 9.2.1 20190827 (Red Hat 9.2.1-1)
REM options -cpp -mtune=generic -march=x86-64 -g -O0 -fpre-include=/usr/include/finclude/math-vector-fortran.h
REM seed 1690540994 528485559 -2117736334 -1665569498 1823854652 -8384756 102568512 618032374 -1828556397 1960784408 304354058 1778693675 -1202626485 1090318060 -1778341543 367425190 598785277 934051169 -1069609391 1507829325 502391191 -1710001969 2103146023 910086074 -1145673111 -1303220200 56498204 781725344 837757813 1664253126 -1565566311 608149365 1263331311
REM
CELL 1.54180   50.00000   50.00000   50.00000   90.00000   90.00000   90.00000
LATT -1
SFAC C  
C      1  0.5355980000000  0.4388630000000  0.5169180000000 1.0
C      1  0.4688380000000  0.4379890000000  0.5236000000000 1.0
C      1  0.4965800000000  0.4389340000000  0.4619730000000 1.0
C      1  0.5160990000000  0.4612530000000  0.4441650000000 1.0
C      1  0.5405620000000  0.4619230000000  0.5422530000000 1.0
C      1  0.4430910000000  0.4584960000000  0.5140360000000 1.0
C      1  0.4857130000000  0.4692720000000  0.4524530000000 1.0
C      1  0.5489410000000  0.4692470000000  0.5117000000000 1.0
C      1  0.4650010000000  0.4687510000000  0.5362380000000 1.0
C      1  0.4538990000000  0.4334130000000  0.4932590000000 1.0
C      1  0.5301200000000  0.4330730000000  0.4644900000000 1.0
C      1  0.5165470000000  0.4332730000000  0.5446700000000 1.0
C      1  0.5102810000000  0.5400780000000  0.4652650000000 1.0
C      1  0.5250020000000  0.5395920000000  0.5260920000000 1.0
C      1  0.4648420000000  0.5399110000000  0.5083960000000 1.0
C      1  0.4825520000000  0.5686660000000  0.5071320000000 1.0
C      1  0.5029090000000  0.5688170000000  0.4814190000000 1.0
C      1  0.5149980000000  0.5685670000000  0.5118940000000 1.0
C      1  0.4838400000000  0.5138950000000  0.5110280000000 1.0
C      1  0.4981020000000  0.5141920000000  0.4802360000000 1.0
C      1  0.5176700000000  0.5139260000000  0.5079430000000 1.0
C      1  0.4872650000000  0.5443330000000  0.4410340000000 1.0
C      1  0.5576020000000  0.5435690000000  0.5180260000000 1.0
C      1  0.4554890000000  0.5437060000000  0.5406390000000 1.0
C      1  0.4844570000000  0.4269540000000  0.4886730000000 1.0
C      1  0.5184520000000  0.4268000000000  0.4930100000000 1.0
C      1  0.4978530000000  0.4265110000000  0.5202810000000 1.0
C      1  0.4637140000000  0.5710240000000  0.5331830000000 1.0
C      1  0.4898540000000  0.5715720000000  0.4520580000000 1.0
C      1  0.5469750000000  0.5709210000000  0.5151600000000 1.0
C      1  0.4438090000000  0.5383920000000  0.4858380000000 1.0
C      1  0.5402570000000  0.5382060000000  0.4581140000000 1.0
C      1  0.5160310000000  0.5375590000000  0.5555760000000 1.0
C      1  0.5636500000000  0.5332880000000  0.4712880000000 1.0
C      1  0.4928200000000  0.5327240000000  0.5691000000000 1.0
C      1  0.4437430000000  0.5338590000000  0.4589220000000 1.0
C      1  0.4692360000000  0.5239450000000  0.5556890000000 1.0
C      1  0.4670960000000  0.5248430000000  0.4452640000000 1.0
C      1  0.5637340000000  0.5241100000000  0.4982720000000 1.0
C      1  0.5136170000000  0.4617340000000  0.5592460000000 1.0
C      1  0.4404930000000  0.4613630000000  0.4809220000000 1.0
C      1  0.5445100000000  0.4610740000000  0.4585300000000 1.0
C      1  0.5519770000000  0.4763150000000  0.4797520000000 1.0
C      1  0.4912190000000  0.4764120000000  0.5546680000000 1.0
C      1  0.4554490000000  0.4773270000000  0.4627970000000 1.0
C      1  0.4792310000000  0.5006830000000  0.4597140000000 1.0
C      1  0.5447770000000  0.5004440000000  0.5015680000000 1.0
C      1  0.4755020000000  0.5002040000000  0.5375130000000 1.0
END
