TITL C-2782234-8014-32 -0.00108317636066074 125000 -529.749818947445 0 0 92 (C1) n - 1
REM
REM in /home/nfs/bkarasulu/CARBON/AIRSS/Generating-Clusters/REBO/Higher-Symm/SD-CG/HFTN-CG
REM
REM
REM
REM
REM
REM ./C.cell (12c818d87b63d06a65506943cc24bca4)
REM
REM compiler GCC version 9.2.1 20190827 (Red Hat 9.2.1-1)
REM options -cpp -mtune=generic -march=x86-64 -g -O0 -fpre-include=/usr/include/finclude/math-vector-fortran.h
REM seed -968833114 -1095056500 1931586335 -303938363 534510662 -340264460 -1236806823 -2055893914 121064486 -210665794 -74754299 -1792794164 1718206588 659458923 1247901807 -1857821153 -216620492 420116283 1038159337 -240107836 1100027115 -1558126405 -574165011 988106533 719951925 -1257287138 -1331351489 658811695 -1696635039 679519466 -535078851 -1406939425 1474171507
REM
CELL 1.54180   50.00000   50.00000   50.00000   90.00000   90.00000   90.00000
LATT -1
SFAC C  
C      1  0.5034730000000  0.5441740000000  0.4671930000000 1.0
C      1  0.5314530000000  0.4885360000000  0.4800140000000 1.0
C      1  0.4578430000000  0.4827230000000  0.4722450000000 1.0
C      1  0.5051110000000  0.5194840000000  0.3864750000000 1.0
C      1  0.5250730000000  0.4598110000000  0.4010870000000 1.0
C      1  0.4561420000000  0.5239390000000  0.3792070000000 1.0
C      1  0.4714530000000  0.5103960000000  0.5819330000000 1.0
C      1  0.5267770000000  0.5196910000000  0.5741630000000 1.0
C      1  0.5013510000000  0.4623200000000  0.5787390000000 1.0
C      1  0.4611270000000  0.4432020000000  0.5073850000000 1.0
C      1  0.4795040000000  0.5634530000000  0.4929020000000 1.0
C      1  0.5688140000000  0.4871900000000  0.5004770000000 1.0
C      1  0.5493020000000  0.4433490000000  0.5747890000000 1.0
C      1  0.4372820000000  0.4820550000000  0.5602970000000 1.0
C      1  0.5265710000000  0.5661410000000  0.5587400000000 1.0
C      1  0.5839340000000  0.5166830000000  0.5080670000000 1.0
C      1  0.4792110000000  0.4228790000000  0.5165580000000 1.0
C      1  0.4481700000000  0.5524120000000  0.4969170000000 1.0
C      1  0.4650520000000  0.5280400000000  0.4037060000000 1.0
C      1  0.5113350000000  0.5117190000000  0.4114080000000 1.0
C      1  0.5082840000000  0.4650260000000  0.4213840000000 1.0
C      1  0.4311550000000  0.5294770000000  0.4979810000000 1.0
C      1  0.5629940000000  0.5422130000000  0.5005510000000 1.0
C      1  0.5071650000000  0.4223520000000  0.5107620000000 1.0
C      1  0.5136460000000  0.4176570000000  0.5586080000000 1.0
C      1  0.4282970000000  0.5282130000000  0.5448000000000 1.0
C      1  0.5620580000000  0.5503660000000  0.5491670000000 1.0
C      1  0.4281010000000  0.4647300000000  0.4373430000000 1.0
C      1  0.4914850000000  0.5899740000000  0.4491420000000 1.0
C      1  0.5683710000000  0.4698660000000  0.4527570000000 1.0
C      1  0.4784330000000  0.5307380000000  0.4825120000000 1.0
C      1  0.5508370000000  0.5134060000000  0.4870970000000 1.0
C      1  0.4720000000000  0.4572720000000  0.4855820000000 1.0
C      1  0.5679950000000  0.4764930000000  0.5506940000000 1.0
C      1  0.4457250000000  0.4565390000000  0.5509030000000 1.0
C      1  0.4767530000000  0.5608640000000  0.5424720000000 1.0
C      1  0.4490220000000  0.5460300000000  0.5505940000000 1.0
C      1  0.5641340000000  0.5268920000000  0.5623570000000 1.0
C      1  0.4910420000000  0.4261180000000  0.5653980000000 1.0
C      1  0.4197310000000  0.4534280000000  0.4141720000000 1.0
C      1  0.4834660000000  0.6118820000000  0.4362150000000 1.0
C      1  0.5856720000000  0.4632670000000  0.4331260000000 1.0
C      1  0.4929780000000  0.5676350000000  0.5212330000000 1.0
C      1  0.5672220000000  0.4661610000000  0.5255530000000 1.0
C      1  0.4396990000000  0.4542940000000  0.5231600000000 1.0
C      1  0.5305280000000  0.4966290000000  0.4314160000000 1.0
C      1  0.4792000000000  0.4681170000000  0.4323770000000 1.0
C      1  0.4805970000000  0.5462600000000  0.4250820000000 1.0
C      1  0.5132400000000  0.5429070000000  0.4975770000000 1.0
C      1  0.5334310000000  0.4670490000000  0.5011170000000 1.0
C      1  0.4511290000000  0.4865060000000  0.5029460000000 1.0
C      1  0.4956380000000  0.5124440000000  0.5501870000000 1.0
C      1  0.5207180000000  0.4901240000000  0.5480570000000 1.0
C      1  0.4883300000000  0.4796430000000  0.5453480000000 1.0
C      1  0.5698620000000  0.4623010000000  0.4802080000000 1.0
C      1  0.4108030000000  0.4714090000000  0.4589010000000 1.0
C      1  0.5008510000000  0.5826440000000  0.4768710000000 1.0
C      1  0.4563360000000  0.5015120000000  0.5548050000000 1.0
C      1  0.5233950000000  0.5407130000000  0.5525270000000 1.0
C      1  0.5281290000000  0.4545250000000  0.5639180000000 1.0
C      1  0.5479550000000  0.4395440000000  0.4880390000000 1.0
C      1  0.4181370000000  0.4879060000000  0.4804150000000 1.0
C      1  0.5285810000000  0.5736360000000  0.4772410000000 1.0
C      1  0.4940300000000  0.5608460000000  0.4440570000000 1.0
C      1  0.5447080000000  0.4844880000000  0.4508810000000 1.0
C      1  0.4546130000000  0.4712050000000  0.4433980000000 1.0
C      1  0.5042870000000  0.4730180000000  0.4540180000000 1.0
C      1  0.4674670000000  0.5187060000000  0.4348250000000 1.0
C      1  0.5038390000000  0.5117470000000  0.4441770000000 1.0
C      1  0.5490330000000  0.4979050000000  0.5615250000000 1.0
C      1  0.4754150000000  0.4534910000000  0.5585820000000 1.0
C      1  0.4775280000000  0.5345510000000  0.5619440000000 1.0
C      1  0.5561580000000  0.4398820000000  0.5194070000000 1.0
C      1  0.4209630000000  0.4807840000000  0.5127000000000 1.0
C      1  0.5238120000000  0.5635890000000  0.5189690000000 1.0
C      1  0.5513030000000  0.5576150000000  0.5243260000000 1.0
C      1  0.5274980000000  0.4286840000000  0.5335440000000 1.0
C      1  0.4236880000000  0.5138250000000  0.5210510000000 1.0
C      1  0.5018090000000  0.5169100000000  0.5954930000000 1.0
C      1  0.5204220000000  0.4890830000000  0.5880090000000 1.0
C      1  0.4876370000000  0.4859130000000  0.5977310000000 1.0
C      1  0.5449560000000  0.5511630000000  0.4751610000000 1.0
C      1  0.5159320000000  0.4342230000000  0.4867200000000 1.0
C      1  0.4315930000000  0.5126420000000  0.4752030000000 1.0
C      1  0.5299020000000  0.5244540000000  0.4625900000000 1.0
C      1  0.4977560000000  0.4518610000000  0.4752770000000 1.0
C      1  0.4608550000000  0.5141010000000  0.4633150000000 1.0
C      1  0.5257970000000  0.4627580000000  0.5309520000000 1.0
C      1  0.4699510000000  0.4972700000000  0.5237740000000 1.0
C      1  0.5119000000000  0.5259990000000  0.5250680000000 1.0
C      1  0.4900770000000  0.5115190000000  0.5051880000000 1.0
C      1  0.5019250000000  0.4991820000000  0.4757890000000 1.0
END
