TITL C-2782237-5345-822 -0.000606532764677922 125000 -769.249490982261 0 0 133 (C1) n - 1
REM
REM in /home/nfs/bkarasulu/CARBON/AIRSS/Generating-Clusters/REBO/Higher-Symm/SD-CG/HFTN-CG
REM
REM
REM
REM
REM
REM ./C.cell (12c818d87b63d06a65506943cc24bca4)
REM
REM compiler GCC version 9.2.1 20190827 (Red Hat 9.2.1-1)
REM options -cpp -mtune=generic -march=x86-64 -g -O0 -fpre-include=/usr/include/finclude/math-vector-fortran.h
REM seed -826936274 -2131544622 153955332 246967812 1018755588 -1552497042 -1836919252 -437677706 2043075037 -1512190219 439415322 -1845849140 1914566296 -1034743012 2098933058 604676414 -1756295518 425670705 -418367136 895261658 -32075601 1058192711 1675769438 1668466891 -1789753247 1255834045 -1369897279 -137046006 -454881051 898364510 -1957446193 819310434 1832084141
REM
CELL 1.54180   50.00000   50.00000   50.00000   90.00000   90.00000   90.00000
LATT -1
SFAC C  
C      1  0.5930190000000  0.4527240000000  0.4771890000000 1.0
C      1  0.4082290000000  0.4512840000000  0.4810770000000 1.0
C      1  0.5400810000000  0.4936770000000  0.4204660000000 1.0
C      1  0.4569300000000  0.4912840000000  0.4161950000000 1.0
C      1  0.5128870000000  0.5130890000000  0.5286060000000 1.0
C      1  0.4858370000000  0.4980170000000  0.5241370000000 1.0
C      1  0.4424460000000  0.5615990000000  0.5045090000000 1.0
C      1  0.5623240000000  0.5646270000000  0.5064080000000 1.0
C      1  0.4737880000000  0.5182400000000  0.4434220000000 1.0
C      1  0.5249700000000  0.5234370000000  0.4449220000000 1.0
C      1  0.5226080000000  0.5626570000000  0.5024890000000 1.0
C      1  0.4835070000000  0.5555410000000  0.5023010000000 1.0
C      1  0.5486020000000  0.5110400000000  0.5861720000000 1.0
C      1  0.4592610000000  0.5086220000000  0.5865650000000 1.0
C      1  0.4024640000000  0.5307150000000  0.4933660000000 1.0
C      1  0.5986150000000  0.5302320000000  0.4938930000000 1.0
C      1  0.5857720000000  0.5434550000000  0.5167700000000 1.0
C      1  0.4149720000000  0.5451840000000  0.5159750000000 1.0
C      1  0.4434970000000  0.4147920000000  0.4902810000000 1.0
C      1  0.5630310000000  0.4120650000000  0.4888500000000 1.0
C      1  0.4866630000000  0.5056590000000  0.5576180000000 1.0
C      1  0.5199320000000  0.5127970000000  0.5589790000000 1.0
C      1  0.5746380000000  0.5108730000000  0.5646740000000 1.0
C      1  0.4287240000000  0.5131860000000  0.5710890000000 1.0
C      1  0.4490460000000  0.4823810000000  0.5364200000000 1.0
C      1  0.5485890000000  0.4787090000000  0.5308200000000 1.0
C      1  0.5684850000000  0.4511970000000  0.5285190000000 1.0
C      1  0.4418520000000  0.4517370000000  0.5291410000000 1.0
C      1  0.4855250000000  0.4612780000000  0.4162860000000 1.0
C      1  0.5165000000000  0.4620860000000  0.4132310000000 1.0
C      1  0.4592250000000  0.5797950000000  0.4822740000000 1.0
C      1  0.5491430000000  0.5865060000000  0.4849450000000 1.0
C      1  0.5706110000000  0.5069610000000  0.5102670000000 1.0
C      1  0.4251270000000  0.5065310000000  0.5157470000000 1.0
C      1  0.4742660000000  0.4496970000000  0.5186930000000 1.0
C      1  0.5361490000000  0.4411780000000  0.5247880000000 1.0
C      1  0.5152530000000  0.5526970000000  0.5324880000000 1.0
C      1  0.4837950000000  0.5427170000000  0.5326170000000 1.0
C      1  0.5943670000000  0.4998810000000  0.4948050000000 1.0
C      1  0.4026710000000  0.5002130000000  0.4949330000000 1.0
C      1  0.4455750000000  0.4437040000000  0.4419690000000 1.0
C      1  0.5498140000000  0.4486160000000  0.4517610000000 1.0
C      1  0.4088990000000  0.4791160000000  0.4776870000000 1.0
C      1  0.5883440000000  0.4800650000000  0.4756550000000 1.0
C      1  0.4385280000000  0.4556680000000  0.5775310000000 1.0
C      1  0.5483570000000  0.4564280000000  0.5745400000000 1.0
C      1  0.5460430000000  0.5518110000000  0.4620570000000 1.0
C      1  0.4555170000000  0.5478310000000  0.4623340000000 1.0
C      1  0.4864800000000  0.5677500000000  0.5557680000000 1.0
C      1  0.5164330000000  0.5794910000000  0.5539040000000 1.0
C      1  0.5137610000000  0.5089440000000  0.4733450000000 1.0
C      1  0.4836710000000  0.5019770000000  0.4716570000000 1.0
C      1  0.4198810000000  0.4613760000000  0.5527440000000 1.0
C      1  0.5728330000000  0.4610230000000  0.5579350000000 1.0
C      1  0.5436630000000  0.5606420000000  0.5591230000000 1.0
C      1  0.4553090000000  0.5548490000000  0.5576190000000 1.0
C      1  0.4779820000000  0.4262570000000  0.5582700000000 1.0
C      1  0.5079630000000  0.4189450000000  0.5581620000000 1.0
C      1  0.4314760000000  0.4861710000000  0.4592940000000 1.0
C      1  0.5639890000000  0.4874700000000  0.4586680000000 1.0
C      1  0.5516460000000  0.5178270000000  0.4653240000000 1.0
C      1  0.4469090000000  0.5141250000000  0.4642150000000 1.0
C      1  0.4685690000000  0.4389530000000  0.4654580000000 1.0
C      1  0.5263500000000  0.4483040000000  0.4738880000000 1.0
C      1  0.5181830000000  0.5419430000000  0.4795390000000 1.0
C      1  0.4843170000000  0.5355820000000  0.4774780000000 1.0
C      1  0.5510660000000  0.5330130000000  0.5003920000000 1.0
C      1  0.4469010000000  0.5280400000000  0.4997370000000 1.0
C      1  0.4048680000000  0.5411710000000  0.4663960000000 1.0
C      1  0.5963620000000  0.5415800000000  0.4673930000000 1.0
C      1  0.4897940000000  0.5835200000000  0.4843360000000 1.0
C      1  0.5190360000000  0.5898560000000  0.4823870000000 1.0
C      1  0.5141780000000  0.5491610000000  0.5983960000000 1.0
C      1  0.4897080000000  0.5478070000000  0.5946070000000 1.0
C      1  0.4875330000000  0.4167420000000  0.4750390000000 1.0
C      1  0.5147310000000  0.4193790000000  0.4775700000000 1.0
C      1  0.4200430000000  0.4846150000000  0.4292400000000 1.0
C      1  0.5783360000000  0.4878750000000  0.4288230000000 1.0
C      1  0.5175290000000  0.5367800000000  0.4157600000000 1.0
C      1  0.4867110000000  0.5320920000000  0.4158170000000 1.0
C      1  0.4584730000000  0.4996600000000  0.5118530000000 1.0
C      1  0.5377460000000  0.5048880000000  0.5141050000000 1.0
C      1  0.4826710000000  0.5004990000000  0.4089600000000 1.0
C      1  0.5147360000000  0.5039840000000  0.4117750000000 1.0
C      1  0.4737320000000  0.5333850000000  0.5728550000000 1.0
C      1  0.5329480000000  0.5382700000000  0.5773740000000 1.0
C      1  0.5931710000000  0.4741880000000  0.4128490000000 1.0
C      1  0.4063690000000  0.4698070000000  0.4132030000000 1.0
C      1  0.4854190000000  0.5802520000000  0.4349740000000 1.0
C      1  0.5104530000000  0.5827880000000  0.4369800000000 1.0
C      1  0.4360690000000  0.5139060000000  0.4310220000000 1.0
C      1  0.5622270000000  0.5170090000000  0.4321560000000 1.0
C      1  0.4250240000000  0.5420190000000  0.4473010000000 1.0
C      1  0.5762740000000  0.5436000000000  0.4485880000000 1.0
C      1  0.4527180000000  0.5338630000000  0.5313270000000 1.0
C      1  0.5461620000000  0.5392310000000  0.5327380000000 1.0
C      1  0.5486260000000  0.5787900000000  0.5307640000000 1.0
C      1  0.4573500000000  0.5733240000000  0.5293950000000 1.0
C      1  0.4611930000000  0.4776370000000  0.4715700000000 1.0
C      1  0.5300510000000  0.4852780000000  0.4593980000000 1.0
C      1  0.5166910000000  0.5084600000000  0.5984740000000 1.0
C      1  0.4917040000000  0.5073510000000  0.5972100000000 1.0
C      1  0.5116310000000  0.4705570000000  0.4442590000000 1.0
C      1  0.4814520000000  0.4643060000000  0.4497300000000 1.0
C      1  0.4857040000000  0.4734940000000  0.5675870000000 1.0
C      1  0.5109730000000  0.4628800000000  0.5623250000000 1.0
C      1  0.5275830000000  0.5589770000000  0.4369200000000 1.0
C      1  0.4723040000000  0.5534950000000  0.4354430000000 1.0
C      1  0.5718290000000  0.4343900000000  0.4644190000000 1.0
C      1  0.4292210000000  0.4318520000000  0.4654960000000 1.0
C      1  0.5813610000000  0.4373910000000  0.5029200000000 1.0
C      1  0.4272780000000  0.4400410000000  0.5042240000000 1.0
C      1  0.4676300000000  0.4506910000000  0.5701790000000 1.0
C      1  0.5242530000000  0.4381350000000  0.5741240000000 1.0
C      1  0.4966710000000  0.4704090000000  0.5152980000000 1.0
C      1  0.5191220000000  0.4650790000000  0.5341130000000 1.0
C      1  0.4888290000000  0.5813870000000  0.5242550000000 1.0
C      1  0.5195160000000  0.5910770000000  0.5221370000000 1.0
C      1  0.5865800000000  0.4852950000000  0.5622940000000 1.0
C      1  0.4169790000000  0.4944070000000  0.5451000000000 1.0
C      1  0.5467110000000  0.4634820000000  0.4269520000000 1.0
C      1  0.4540200000000  0.4610290000000  0.4209090000000 1.0
C      1  0.5756420000000  0.5290960000000  0.5430830000000 1.0
C      1  0.4231340000000  0.5334120000000  0.5452590000000 1.0
C      1  0.4705210000000  0.4102180000000  0.4977610000000 1.0
C      1  0.5309870000000  0.4059740000000  0.4980910000000 1.0
C      1  0.4565380000000  0.4524880000000  0.4921780000000 1.0
C      1  0.5480630000000  0.4418770000000  0.4956670000000 1.0
C      1  0.4849570000000  0.4196060000000  0.5256130000000 1.0
C      1  0.5185610000000  0.4144640000000  0.5271480000000 1.0
C      1  0.4477050000000  0.4852880000000  0.5684240000000 1.0
C      1  0.5424050000000  0.4873420000000  0.5627060000000 1.0
C      1  0.5068160000000  0.4691090000000  0.4875880000000 1.0
END
