TITL C-2782231-7322-1013 -0.00444777450785979 125000 -755.418670670043 0 0 136 (C1) n - 1
REM
REM in /home/nfs/bkarasulu/CARBON/AIRSS/Generating-Clusters/REBO/Higher-Symm/SD-CG/HFTN-CG
REM
REM
REM
REM
REM
REM ./C.cell (12c818d87b63d06a65506943cc24bca4)
REM
REM compiler GCC version 9.2.1 20190827 (Red Hat 9.2.1-1)
REM options -cpp -mtune=generic -march=x86-64 -g -O0 -fpre-include=/usr/include/finclude/math-vector-fortran.h
REM seed 964187558 1297099386 -583112986 1914220177 -57456395 383890230 2037777218 1292425801 1906293603 1941795341 1217840279 -529123078 -1910102235 706447419 704748895 -778270804 -204077804 -1688853182 -285816153 207089206 1771199969 905169099 521296412 -631493520 -1203621145 -486910524 1594463956 1754602132 2110812370 -1043736917 -1118491552 1334809589 -604382188
REM
CELL 1.54180   50.00000   50.00000   50.00000   90.00000   90.00000   90.00000
LATT -1
SFAC C  
C      1  0.5196320000000  0.5015170000000  0.4070530000000 1.0
C      1  0.4084450000000  0.5146680000000  0.5016430000000 1.0
C      1  0.5019880000000  0.3978600000000  0.5160030000000 1.0
C      1  0.5127200000000  0.4966380000000  0.6003670000000 1.0
C      1  0.4862920000000  0.4968580000000  0.3988790000000 1.0
C      1  0.4794680000000  0.5009460000000  0.5921750000000 1.0
C      1  0.4044100000000  0.4810750000000  0.4968360000000 1.0
C      1  0.5950240000000  0.4832810000000  0.5012280000000 1.0
C      1  0.5919980000000  0.5172300000000  0.4968630000000 1.0
C      1  0.5024790000000  0.5943080000000  0.4827990000000 1.0
C      1  0.4973580000000  0.5896480000000  0.5160670000000 1.0
C      1  0.4988830000000  0.4063020000000  0.4825230000000 1.0
C      1  0.4935720000000  0.4343220000000  0.4424900000000 1.0
C      1  0.4479170000000  0.4878600000000  0.4307130000000 1.0
C      1  0.4265360000000  0.4478990000000  0.4941820000000 1.0
C      1  0.4984290000000  0.5710260000000  0.5514210000000 1.0
C      1  0.5065520000000  0.5748980000000  0.4481860000000 1.0
C      1  0.5031140000000  0.4318060000000  0.5556430000000 1.0
C      1  0.4426380000000  0.5126860000000  0.5762530000000 1.0
C      1  0.5553900000000  0.5124610000000  0.4211360000000 1.0
C      1  0.5561000000000  0.4941520000000  0.5666990000000 1.0
C      1  0.4261930000000  0.5524530000000  0.5116410000000 1.0
C      1  0.5727940000000  0.5553230000000  0.4867210000000 1.0
C      1  0.5639340000000  0.4410830000000  0.5082170000000 1.0
C      1  0.4587520000000  0.5098770000000  0.4522890000000 1.0
C      1  0.4550120000000  0.4567250000000  0.5093570000000 1.0
C      1  0.5083490000000  0.4573820000000  0.4618960000000 1.0
C      1  0.4523560000000  0.4886710000000  0.5566900000000 1.0
C      1  0.5457150000000  0.4896720000000  0.4424220000000 1.0
C      1  0.5366370000000  0.5109230000000  0.5443980000000 1.0
C      1  0.4474330000000  0.5440150000000  0.4877220000000 1.0
C      1  0.5550530000000  0.5449460000000  0.5120390000000 1.0
C      1  0.5433060000000  0.4603450000000  0.4906750000000 1.0
C      1  0.5099610000000  0.5405470000000  0.5428850000000 1.0
C      1  0.4897440000000  0.5476610000000  0.4562100000000 1.0
C      1  0.4878240000000  0.4557120000000  0.5368910000000 1.0
C      1  0.5054630000000  0.4075450000000  0.5633660000000 1.0
C      1  0.5604820000000  0.5197330000000  0.3971360000000 1.0
C      1  0.4024530000000  0.5572720000000  0.5198400000000 1.0
C      1  0.5084480000000  0.6000350000000  0.4436930000000 1.0
C      1  0.5019730000000  0.5960750000000  0.5552610000000 1.0
C      1  0.4912690000000  0.4104510000000  0.4336580000000 1.0
C      1  0.5648890000000  0.4900240000000  0.5903310000000 1.0
C      1  0.4430030000000  0.4803330000000  0.4067770000000 1.0
C      1  0.4367930000000  0.5213990000000  0.5995930000000 1.0
C      1  0.4017620000000  0.4413240000000  0.4938640000000 1.0
C      1  0.5871200000000  0.4311860000000  0.5124990000000 1.0
C      1  0.5955170000000  0.5613940000000  0.4766210000000 1.0
C      1  0.5296800000000  0.5872680000000  0.5109680000000 1.0
C      1  0.5074400000000  0.5290090000000  0.5911980000000 1.0
C      1  0.5883820000000  0.5099250000000  0.5299690000000 1.0
C      1  0.5303390000000  0.4105420000000  0.4909590000000 1.0
C      1  0.4698090000000  0.4075400000000  0.5091760000000 1.0
C      1  0.4696550000000  0.5876880000000  0.4876770000000 1.0
C      1  0.5119000000000  0.4691140000000  0.4115070000000 1.0
C      1  0.4875200000000  0.4680990000000  0.5887910000000 1.0
C      1  0.4913720000000  0.5290430000000  0.4093020000000 1.0
C      1  0.5886980000000  0.4897220000000  0.4684360000000 1.0
C      1  0.4105020000000  0.4868530000000  0.5298670000000 1.0
C      1  0.4118080000000  0.5087530000000  0.4691980000000 1.0
C      1  0.4854600000000  0.4372940000000  0.4876260000000 1.0
C      1  0.4886020000000  0.4949940000000  0.4309970000000 1.0
C      1  0.4365100000000  0.4877390000000  0.4925250000000 1.0
C      1  0.4880430000000  0.5582960000000  0.5150940000000 1.0
C      1  0.5094860000000  0.5615510000000  0.4879390000000 1.0
C      1  0.5041630000000  0.4302370000000  0.5136350000000 1.0
C      1  0.4836920000000  0.5132100000000  0.5604860000000 1.0
C      1  0.5149570000000  0.5146730000000  0.4383420000000 1.0
C      1  0.5099930000000  0.4934880000000  0.5679280000000 1.0
C      1  0.4393770000000  0.5150130000000  0.5136220000000 1.0
C      1  0.5605990000000  0.5176100000000  0.4837970000000 1.0
C      1  0.5630670000000  0.4912860000000  0.5054940000000 1.0
C      1  0.4739710000000  0.5401800000000  0.4289760000000 1.0
C      1  0.4298960000000  0.4708890000000  0.5433770000000 1.0
C      1  0.5430740000000  0.4308000000000  0.4757010000000 1.0
C      1  0.4732410000000  0.4552740000000  0.5679510000000 1.0
C      1  0.5254280000000  0.4565570000000  0.4331290000000 1.0
C      1  0.5251820000000  0.5395970000000  0.5714640000000 1.0
C      1  0.4310400000000  0.5256690000000  0.4563580000000 1.0
C      1  0.5679820000000  0.5245700000000  0.5436570000000 1.0
C      1  0.5692400000000  0.4733070000000  0.4560440000000 1.0
C      1  0.5426180000000  0.5687040000000  0.5284540000000 1.0
C      1  0.4575170000000  0.5683270000000  0.4708450000000 1.0
C      1  0.4586370000000  0.4283200000000  0.5253430000000 1.0
C      1  0.4739000000000  0.5345950000000  0.5926150000000 1.0
C      1  0.5927430000000  0.4764760000000  0.5345380000000 1.0
C      1  0.5360220000000  0.5914610000000  0.4777710000000 1.0
C      1  0.4793980000000  0.4639050000000  0.4044980000000 1.0
C      1  0.5207600000000  0.4640200000000  0.5948460000000 1.0
C      1  0.5247070000000  0.5352930000000  0.4059350000000 1.0
C      1  0.5939180000000  0.5229290000000  0.4631210000000 1.0
C      1  0.4063580000000  0.5201970000000  0.5352920000000 1.0
C      1  0.4086380000000  0.4753500000000  0.4634960000000 1.0
C      1  0.5341310000000  0.4059450000000  0.5243200000000 1.0
C      1  0.4655090000000  0.4052590000000  0.4754050000000 1.0
C      1  0.4636190000000  0.5893580000000  0.5211060000000 1.0
C      1  0.5463770000000  0.4320300000000  0.5427610000000 1.0
C      1  0.5462090000000  0.5508170000000  0.4274910000000 1.0
C      1  0.4257210000000  0.5429460000000  0.5518740000000 1.0
C      1  0.5501990000000  0.5685580000000  0.4567130000000 1.0
C      1  0.4470170000000  0.5679950000000  0.5419550000000 1.0
C      1  0.4518870000000  0.4272000000000  0.4529580000000 1.0
C      1  0.5406210000000  0.4523840000000  0.5695650000000 1.0
C      1  0.4595850000000  0.4497650000000  0.4285000000000 1.0
C      1  0.4530270000000  0.5508650000000  0.5710370000000 1.0
C      1  0.4332270000000  0.4559950000000  0.4496970000000 1.0
C      1  0.5662970000000  0.4594560000000  0.5480120000000 1.0
C      1  0.5736880000000  0.5453710000000  0.4471850000000 1.0
C      1  0.5210570000000  0.4950990000000  0.4634560000000 1.0
C      1  0.4652930000000  0.5151780000000  0.4912980000000 1.0
C      1  0.5032200000000  0.4733760000000  0.5147440000000 1.0
C      1  0.5099740000000  0.4977450000000  0.5347300000000 1.0
C      1  0.4882030000000  0.5010210000000  0.4642730000000 1.0
C      1  0.4761990000000  0.4938980000000  0.5356190000000 1.0
C      1  0.4657800000000  0.4859190000000  0.5092710000000 1.0
C      1  0.5333180000000  0.4894710000000  0.4892920000000 1.0
C      1  0.5348390000000  0.5193940000000  0.5054800000000 1.0
C      1  0.4899530000000  0.5333620000000  0.4844720000000 1.0
C      1  0.5088380000000  0.5310140000000  0.5130820000000 1.0
C      1  0.5035620000000  0.4630470000000  0.4911950000000 1.0
C      1  0.4473390000000  0.4822390000000  0.4646600000000 1.0
C      1  0.4562940000000  0.4433740000000  0.4797380000000 1.0
C      1  0.4838780000000  0.4671860000000  0.4434530000000 1.0
C      1  0.4451980000000  0.5180400000000  0.5425060000000 1.0
C      1  0.5553130000000  0.5190990000000  0.4546340000000 1.0
C      1  0.5549210000000  0.4870360000000  0.5333580000000 1.0
C      1  0.4598710000000  0.5501790000000  0.5174830000000 1.0
C      1  0.5385760000000  0.5527080000000  0.4837280000000 1.0
C      1  0.5306650000000  0.4443240000000  0.5162710000000 1.0
C      1  0.4793640000000  0.5436770000000  0.5546470000000 1.0
C      1  0.5197850000000  0.5444470000000  0.4440480000000 1.0
C      1  0.5129960000000  0.4644310000000  0.5564420000000 1.0
C      1  0.5488210000000  0.4505920000000  0.4523420000000 1.0
C      1  0.4506530000000  0.5486270000000  0.4481760000000 1.0
C      1  0.4502770000000  0.4482520000000  0.5480780000000 1.0
C      1  0.5482170000000  0.5482750000000  0.5513100000000 1.0
END
