TITL C-2782228-2999-482 -0.0967851482701609 125000 -795.701146504827 0 0 139 (C1) n - 1
REM
REM in /home/nfs/bkarasulu/CARBON/AIRSS/Generating-Clusters/REBO/Higher-Symm/SD-CG/HFTN-CG
REM
REM
REM
REM
REM
REM ./C.cell (12c818d87b63d06a65506943cc24bca4)
REM
REM compiler GCC version 9.2.1 20190827 (Red Hat 9.2.1-1)
REM options -cpp -mtune=generic -march=x86-64 -g -O0 -fpre-include=/usr/include/finclude/math-vector-fortran.h
REM seed 868912091 119698738 -1547907291 -467221358 719237913 -131513416 816796581 762153728 1475968582 -1650787415 1521080855 1344242506 1781717017 1997718503 9278971 588946727 538871793 -787221293 -1186712937 -1666498197 -884419041 794680168 455974181 -981797285 -695190810 1537614945 -1004311303 -1773237412 1753827588 -1649201172 1039930128 -113567083 253021936
REM
CELL 1.54180   50.00000   50.00000   50.00000   90.00000   90.00000   90.00000
LATT -1
SFAC C  
C      1  0.5302730000000  0.5911850000000  0.5017250000000 1.0
C      1  0.4791960000000  0.5790140000000  0.5534120000000 1.0
C      1  0.4850370000000  0.5309090000000  0.5916550000000 1.0
C      1  0.5684310000000  0.4247200000000  0.5270230000000 1.0
C      1  0.4702460000000  0.4838600000000  0.4889080000000 1.0
C      1  0.4130250000000  0.5568730000000  0.5367180000000 1.0
C      1  0.4303500000000  0.5059870000000  0.5076910000000 1.0
C      1  0.4927640000000  0.4439880000000  0.4743510000000 1.0
C      1  0.5057310000000  0.5734330000000  0.5438790000000 1.0
C      1  0.4296190000000  0.5611970000000  0.4763260000000 1.0
C      1  0.5227530000000  0.4652750000000  0.5782200000000 1.0
C      1  0.5240490000000  0.5619400000000  0.4247430000000 1.0
C      1  0.5271200000000  0.4824030000000  0.4883510000000 1.0
C      1  0.4408660000000  0.4796900000000  0.5720800000000 1.0
C      1  0.5830420000000  0.4971900000000  0.4567910000000 1.0
C      1  0.4859570000000  0.5325440000000  0.5259010000000 1.0
C      1  0.4251910000000  0.4648260000000  0.5455980000000 1.0
C      1  0.4753630000000  0.5387700000000  0.4308160000000 1.0
C      1  0.5346710000000  0.4659050000000  0.4548520000000 1.0
C      1  0.4539130000000  0.5693770000000  0.5685480000000 1.0
C      1  0.4150240000000  0.4899060000000  0.4580510000000 1.0
C      1  0.5025860000000  0.5748930000000  0.4901940000000 1.0
C      1  0.4741650000000  0.5086820000000  0.5430740000000 1.0
C      1  0.5798860000000  0.4423720000000  0.5460730000000 1.0
C      1  0.5280530000000  0.5580450000000  0.4798380000000 1.0
C      1  0.5090370000000  0.5442030000000  0.5426660000000 1.0
C      1  0.5081350000000  0.5100020000000  0.5489610000000 1.0
C      1  0.4874270000000  0.6110580000000  0.5158610000000 1.0
C      1  0.4207420000000  0.5074130000000  0.5739950000000 1.0
C      1  0.5394590000000  0.5263000000000  0.5138190000000 1.0
C      1  0.4575300000000  0.5391170000000  0.5771080000000 1.0
C      1  0.4369500000000  0.4937420000000  0.4339810000000 1.0
C      1  0.4393400000000  0.4213090000000  0.4630770000000 1.0
C      1  0.5219080000000  0.4369210000000  0.4103520000000 1.0
C      1  0.5046190000000  0.4649640000000  0.5427070000000 1.0
C      1  0.4183960000000  0.5334230000000  0.5583350000000 1.0
C      1  0.4550220000000  0.4232850000000  0.5466830000000 1.0
C      1  0.5333950000000  0.5432390000000  0.5798350000000 1.0
C      1  0.4716550000000  0.4291920000000  0.5216210000000 1.0
C      1  0.5014900000000  0.5799140000000  0.4387210000000 1.0
C      1  0.4991490000000  0.5487100000000  0.4527920000000 1.0
C      1  0.5706000000000  0.5039840000000  0.4277860000000 1.0
C      1  0.4472150000000  0.5382060000000  0.5445760000000 1.0
C      1  0.5458100000000  0.5310680000000  0.4743230000000 1.0
C      1  0.4882150000000  0.4046750000000  0.5117910000000 1.0
C      1  0.5625890000000  0.4663260000000  0.4969990000000 1.0
C      1  0.5992460000000  0.4768000000000  0.4792010000000 1.0
C      1  0.4050880000000  0.5195040000000  0.4666270000000 1.0
C      1  0.5049650000000  0.5400910000000  0.4145070000000 1.0
C      1  0.5947230000000  0.4860810000000  0.5619810000000 1.0
C      1  0.5681290000000  0.4325410000000  0.4979630000000 1.0
C      1  0.5432840000000  0.4558170000000  0.5609680000000 1.0
C      1  0.5630790000000  0.5858170000000  0.5090100000000 1.0
C      1  0.5126440000000  0.5090130000000  0.4752790000000 1.0
C      1  0.5491540000000  0.5039900000000  0.4907450000000 1.0
C      1  0.4962410000000  0.4434120000000  0.4193650000000 1.0
C      1  0.5727090000000  0.5271510000000  0.4602920000000 1.0
C      1  0.4844780000000  0.5829190000000  0.4668450000000 1.0
C      1  0.4787630000000  0.4549830000000  0.5427090000000 1.0
C      1  0.5622030000000  0.5395450000000  0.5649980000000 1.0
C      1  0.4498940000000  0.4943160000000  0.5294990000000 1.0
C      1  0.4643150000000  0.4400710000000  0.5699540000000 1.0
C      1  0.4327370000000  0.5760640000000  0.5452810000000 1.0
C      1  0.5738230000000  0.5263820000000  0.5125620000000 1.0
C      1  0.4719430000000  0.5082990000000  0.4458790000000 1.0
C      1  0.5847040000000  0.4715450000000  0.5401280000000 1.0
C      1  0.4887210000000  0.4124280000000  0.4726680000000 1.0
C      1  0.4340200000000  0.5142140000000  0.4832510000000 1.0
C      1  0.5168360000000  0.4945860000000  0.5763810000000 1.0
C      1  0.4965450000000  0.4470640000000  0.5775030000000 1.0
C      1  0.4686310000000  0.5998920000000  0.4990360000000 1.0
C      1  0.5650500000000  0.4828740000000  0.4095870000000 1.0
C      1  0.5685150000000  0.5604700000000  0.4601350000000 1.0
C      1  0.5673190000000  0.4469680000000  0.4477900000000 1.0
C      1  0.5339380000000  0.4523570000000  0.5035920000000 1.0
C      1  0.4184310000000  0.4962550000000  0.5438570000000 1.0
C      1  0.5218450000000  0.4723280000000  0.4289280000000 1.0
C      1  0.4403940000000  0.4295730000000  0.4944570000000 1.0
C      1  0.5447930000000  0.4362720000000  0.4244990000000 1.0
C      1  0.5206170000000  0.5121920000000  0.4207390000000 1.0
C      1  0.5297650000000  0.4480930000000  0.5316030000000 1.0
C      1  0.4512220000000  0.5855690000000  0.4734270000000 1.0
C      1  0.4390280000000  0.5277960000000  0.4346540000000 1.0
C      1  0.3980630000000  0.5268710000000  0.4970060000000 1.0
C      1  0.5422160000000  0.5125180000000  0.5693820000000 1.0
C      1  0.5102440000000  0.5949910000000  0.5243430000000 1.0
C      1  0.4931230000000  0.5203490000000  0.4978240000000 1.0
C      1  0.4955250000000  0.4630340000000  0.4480670000000 1.0
C      1  0.4641130000000  0.4223600000000  0.4510600000000 1.0
C      1  0.5932740000000  0.5778060000000  0.5071040000000 1.0
C      1  0.5426400000000  0.4267970000000  0.4554350000000 1.0
C      1  0.4251520000000  0.5412350000000  0.4552220000000 1.0
C      1  0.5453220000000  0.4142080000000  0.4837280000000 1.0
C      1  0.4672110000000  0.4420430000000  0.4304820000000 1.0
C      1  0.4884230000000  0.4986460000000  0.5889870000000 1.0
C      1  0.5147700000000  0.4284410000000  0.5556270000000 1.0
C      1  0.4096270000000  0.4722770000000  0.5131600000000 1.0
C      1  0.5880770000000  0.4464300000000  0.4740570000000 1.0
C      1  0.4886880000000  0.5039260000000  0.4165280000000 1.0
C      1  0.4322230000000  0.4477050000000  0.5183430000000 1.0
C      1  0.5635880000000  0.5138480000000  0.5426830000000 1.0
C      1  0.4162990000000  0.5504840000000  0.5049290000000 1.0
C      1  0.4394280000000  0.5792500000000  0.4420090000000 1.0
C      1  0.5519730000000  0.5824540000000  0.4769760000000 1.0
C      1  0.5167510000000  0.4100540000000  0.5267150000000 1.0
C      1  0.5439890000000  0.4165890000000  0.5684630000000 1.0
C      1  0.4724480000000  0.5666530000000  0.5013260000000 1.0
C      1  0.5618800000000  0.4751010000000  0.4663050000000 1.0
C      1  0.4192490000000  0.4739320000000  0.4813720000000 1.0
C      1  0.5574780000000  0.4852770000000  0.5249050000000 1.0
C      1  0.5161830000000  0.4077160000000  0.4927830000000 1.0
C      1  0.5820850000000  0.5009610000000  0.4962840000000 1.0
C      1  0.5979150000000  0.4780510000000  0.5129680000000 1.0
C      1  0.4455490000000  0.5417790000000  0.5167970000000 1.0
C      1  0.5460700000000  0.4107740000000  0.5383880000000 1.0
C      1  0.4452400000000  0.4613790000000  0.4832310000000 1.0
C      1  0.4576780000000  0.4665460000000  0.5225830000000 1.0
C      1  0.5504190000000  0.5235360000000  0.4273200000000 1.0
C      1  0.5387790000000  0.4742490000000  0.4076260000000 1.0
C      1  0.5081820000000  0.5454000000000  0.5913800000000 1.0
C      1  0.5488370000000  0.5509580000000  0.4346270000000 1.0
C      1  0.4993680000000  0.4881370000000  0.5061000000000 1.0
C      1  0.5137250000000  0.5233060000000  0.4518410000000 1.0
C      1  0.4800320000000  0.4538440000000  0.5001730000000 1.0
C      1  0.4609570000000  0.5066210000000  0.5714270000000 1.0
C      1  0.4684400000000  0.5702190000000  0.4396320000000 1.0
C      1  0.4593320000000  0.5769800000000  0.5299440000000 1.0
C      1  0.4591260000000  0.5009050000000  0.4089230000000 1.0
C      1  0.4653040000000  0.4753090000000  0.4386710000000 1.0
C      1  0.4716770000000  0.4701950000000  0.5833690000000 1.0
C      1  0.5474710000000  0.5554110000000  0.5058900000000 1.0
C      1  0.5259040000000  0.4984900000000  0.5249160000000 1.0
C      1  0.4616950000000  0.4051040000000  0.4917590000000 1.0
C      1  0.3984440000000  0.5035160000000  0.5187980000000 1.0
C      1  0.5786850000000  0.5533240000000  0.4922690000000 1.0
C      1  0.4658060000000  0.5375650000000  0.4923880000000 1.0
C      1  0.4630500000000  0.5100200000000  0.4738550000000 1.0
C      1  0.5660200000000  0.4378430000000  0.5725920000000 1.0
C      1  0.5224660000000  0.4452750000000  0.4747220000000 1.0
END
