TITL C-2782234-8014-363 0.00232365033908182 125000 -376.206674967272 0 0 67 (C1) n - 1
REM
REM in /home/nfs/bkarasulu/CARBON/AIRSS/Generating-Clusters/REBO/Higher-Symm/SD-CG/HFTN-CG
REM
REM
REM
REM
REM
REM ./C.cell (12c818d87b63d06a65506943cc24bca4)
REM
REM compiler GCC version 9.2.1 20190827 (Red Hat 9.2.1-1)
REM options -cpp -mtune=generic -march=x86-64 -g -O0 -fpre-include=/usr/include/finclude/math-vector-fortran.h
REM seed -13542473 -1580513905 -325890993 163999148 -1202446817 -1855014471 -1845879911 -1366301944 -899829445 -760439301 310806999 -227781958 -700767977 233209842 1185958679 -1135286212 -1118416791 -702636654 570460804 2071362115 -1749236919 142566095 2019129157 -2096159459 -1310397614 2093847259 -408927470 1975464 2046500889 -2053052217 1081609666 2136433392 -1437558212
REM
CELL 1.54180   50.00000   50.00000   50.00000   90.00000   90.00000   90.00000
LATT -1
SFAC C  
C      1  0.4837850000000  0.4778690000000  0.5180680000000 1.0
C      1  0.4849590000000  0.5259300000000  0.5256890000000 1.0
C      1  0.5373150000000  0.4969090000000  0.5086260000000 1.0
C      1  0.4767220000000  0.4674900000000  0.4892740000000 1.0
C      1  0.4848480000000  0.5312810000000  0.4946910000000 1.0
C      1  0.5295310000000  0.4964050000000  0.4793640000000 1.0
C      1  0.5133890000000  0.4804560000000  0.5207400000000 1.0
C      1  0.5140820000000  0.5268200000000  0.5213360000000 1.0
C      1  0.4626470000000  0.5002010000000  0.5069610000000 1.0
C      1  0.5150390000000  0.4693780000000  0.4902940000000 1.0
C      1  0.5161520000000  0.5358560000000  0.4896420000000 1.0
C      1  0.4758880000000  0.4965040000000  0.4778970000000 1.0
C      1  0.4375870000000  0.4782600000000  0.5149460000000 1.0
C      1  0.5152510000000  0.5666480000000  0.5219290000000 1.0
C      1  0.5536480000000  0.4534460000000  0.5254960000000 1.0
C      1  0.4309670000000  0.4739020000000  0.4758000000000 1.0
C      1  0.5190530000000  0.5692890000000  0.4822700000000 1.0
C      1  0.5515200000000  0.4580170000000  0.4717840000000 1.0
C      1  0.5646660000000  0.4786250000000  0.5168360000000 1.0
C      1  0.4869660000000  0.5657350000000  0.5233720000000 1.0
C      1  0.4484300000000  0.4531360000000  0.5220740000000 1.0
C      1  0.5693770000000  0.4779120000000  0.4744380000000 1.0
C      1  0.4887440000000  0.5648960000000  0.4835270000000 1.0
C      1  0.4489200000000  0.4516970000000  0.4821350000000 1.0
C      1  0.5279300000000  0.5355240000000  0.5461000000000 1.0
C      1  0.5235530000000  0.4685040000000  0.5482890000000 1.0
C      1  0.4591700000000  0.4988850000000  0.5411220000000 1.0
C      1  0.5171840000000  0.5357900000000  0.4560740000000 1.0
C      1  0.5243260000000  0.4650620000000  0.4553370000000 1.0
C      1  0.4578610000000  0.4952490000000  0.4521260000000 1.0
C      1  0.4715530000000  0.5357620000000  0.5497900000000 1.0
C      1  0.4753260000000  0.4684710000000  0.5473590000000 1.0
C      1  0.5415650000000  0.4981210000000  0.5426070000000 1.0
C      1  0.4823510000000  0.5350410000000  0.4606020000000 1.0
C      1  0.4750060000000  0.4642190000000  0.4547880000000 1.0
C      1  0.5428150000000  0.4964580000000  0.4513000000000 1.0
C      1  0.5747540000000  0.5092570000000  0.5109280000000 1.0
C      1  0.4728640000000  0.4385390000000  0.5165220000000 1.0
C      1  0.4601120000000  0.5551610000000  0.5147100000000 1.0
C      1  0.5691580000000  0.5055810000000  0.4817030000000 1.0
C      1  0.4736420000000  0.4285350000000  0.4862360000000 1.0
C      1  0.4560830000000  0.5551560000000  0.4833910000000 1.0
C      1  0.4247630000000  0.5087790000000  0.5126440000000 1.0
C      1  0.5288460000000  0.4427120000000  0.5182410000000 1.0
C      1  0.5416810000000  0.5546190000000  0.5137740000000 1.0
C      1  0.4309860000000  0.5023160000000  0.4828020000000 1.0
C      1  0.5267120000000  0.4392590000000  0.4856850000000 1.0
C      1  0.5490640000000  0.5563160000000  0.4828760000000 1.0
C      1  0.5154970000000  0.5271400000000  0.5716550000000 1.0
C      1  0.5136210000000  0.4756500000000  0.5783220000000 1.0
C      1  0.4720810000000  0.5012360000000  0.5699480000000 1.0
C      1  0.5168150000000  0.5276330000000  0.4244590000000 1.0
C      1  0.5142810000000  0.4784270000000  0.4298840000000 1.0
C      1  0.4724900000000  0.5044880000000  0.4246500000000 1.0
C      1  0.4864530000000  0.5274920000000  0.5740970000000 1.0
C      1  0.4853190000000  0.4757530000000  0.5777070000000 1.0
C      1  0.5283650000000  0.5007160000000  0.5712790000000 1.0
C      1  0.4876910000000  0.5278810000000  0.4302980000000 1.0
C      1  0.4862450000000  0.4786400000000  0.4294740000000 1.0
C      1  0.5301620000000  0.5024550000000  0.4226590000000 1.0
C      1  0.4998800000000  0.4461910000000  0.5357640000000 1.0
C      1  0.4452850000000  0.5282300000000  0.5293980000000 1.0
C      1  0.5494900000000  0.5273450000000  0.4650820000000 1.0
C      1  0.4982690000000  0.4424030000000  0.4672730000000 1.0
C      1  0.4503280000000  0.5252290000000  0.4680410000000 1.0
C      1  0.5547040000000  0.5268130000000  0.5285030000000 1.0
C      1  0.5020900000000  0.5028000000000  0.4726500000000 1.0
END
