TITL C-2782235-7892-203 -0.00303208700643785 125000 -400.795775850281 0 0 67 (C1) n - 1
REM
REM in /home/nfs/bkarasulu/CARBON/AIRSS/Generating-Clusters/REBO/Higher-Symm/SD-CG/HFTN-CG
REM
REM
REM
REM
REM
REM ./C.cell (12c818d87b63d06a65506943cc24bca4)
REM
REM compiler GCC version 9.2.1 20190827 (Red Hat 9.2.1-1)
REM options -cpp -mtune=generic -march=x86-64 -g -O0 -fpre-include=/usr/include/finclude/math-vector-fortran.h
REM seed -295220456 -355062074 1769189267 1176579727 -357113742 -580549797 -1053424491 -303055257 -1778088734 -1273296507 -722804283 -617257292 -291825706 -1835362291 417165491 -1455742835 -1496608635 -2092901252 851194972 -1462223476 -2009682533 1868258684 707564924 1504210880 2092115164 -1705879298 1522804671 -1132528358 1491974603 -550682613 195369639 -499411090 1126270629
REM
CELL 1.54180   50.00000   50.00000   50.00000   90.00000   90.00000   90.00000
LATT -1
SFAC C  
C      1  0.4849630000000  0.5615180000000  0.4450070000000 1.0
C      1  0.4601480000000  0.5188730000000  0.4458480000000 1.0
C      1  0.4704990000000  0.4499720000000  0.4559140000000 1.0
C      1  0.5393350000000  0.4472720000000  0.4566690000000 1.0
C      1  0.5481030000000  0.5162990000000  0.4547720000000 1.0
C      1  0.5742460000000  0.4739360000000  0.4795200000000 1.0
C      1  0.5328160000000  0.5588060000000  0.4798590000000 1.0
C      1  0.4422300000000  0.5687900000000  0.4856350000000 1.0
C      1  0.4325300000000  0.4797010000000  0.4733460000000 1.0
C      1  0.5026070000000  0.4207970000000  0.4788420000000 1.0
C      1  0.5207480000000  0.5188430000000  0.5685520000000 1.0
C      1  0.4925590000000  0.5258440000000  0.5691410000000 1.0
C      1  0.4737990000000  0.4995030000000  0.5655040000000 1.0
C      1  0.4931440000000  0.4720840000000  0.5667130000000 1.0
C      1  0.5240410000000  0.4863440000000  0.5654260000000 1.0
C      1  0.5478480000000  0.5317030000000  0.4806790000000 1.0
C      1  0.4930810000000  0.5592020000000  0.4766500000000 1.0
C      1  0.4408890000000  0.5167140000000  0.4730620000000 1.0
C      1  0.4727130000000  0.4320140000000  0.4791090000000 1.0
C      1  0.5560900000000  0.4479940000000  0.4803230000000 1.0
C      1  0.4327910000000  0.4793860000000  0.5073640000000 1.0
C      1  0.5037750000000  0.4280640000000  0.5115430000000 1.0
C      1  0.5756160000000  0.4790830000000  0.5133150000000 1.0
C      1  0.5434320000000  0.5645780000000  0.5120900000000 1.0
C      1  0.4582040000000  0.5680810000000  0.5157920000000 1.0
C      1  0.5369900000000  0.4733550000000  0.4448880000000 1.0
C      1  0.5207820000000  0.5178040000000  0.4433770000000 1.0
C      1  0.4606660000000  0.5487090000000  0.4395730000000 1.0
C      1  0.4725940000000  0.4942610000000  0.4417110000000 1.0
C      1  0.4962960000000  0.4544420000000  0.4436820000000 1.0
C      1  0.4816480000000  0.4849620000000  0.4861610000000 1.0
C      1  0.5076780000000  0.4785270000000  0.4857070000000 1.0
C      1  0.5252240000000  0.5025290000000  0.4841790000000 1.0
C      1  0.5043740000000  0.5269610000000  0.4842710000000 1.0
C      1  0.4743270000000  0.5144500000000  0.4830790000000 1.0
C      1  0.5399170000000  0.5337080000000  0.5531600000000 1.0
C      1  0.4829600000000  0.5486440000000  0.5552050000000 1.0
C      1  0.4485740000000  0.4983740000000  0.5498080000000 1.0
C      1  0.4862760000000  0.4476880000000  0.5510050000000 1.0
C      1  0.5456040000000  0.4714350000000  0.5513170000000 1.0
C      1  0.5537510000000  0.4949490000000  0.4940180000000 1.0
C      1  0.5152600000000  0.5472770000000  0.5067010000000 1.0
C      1  0.4616910000000  0.5427320000000  0.4947370000000 1.0
C      1  0.4584570000000  0.4675710000000  0.4905510000000 1.0
C      1  0.5170410000000  0.4502500000000  0.4897420000000 1.0
C      1  0.5146990000000  0.4347850000000  0.4530710000000 1.0
C      1  0.5576590000000  0.4900630000000  0.4546010000000 1.0
C      1  0.5151560000000  0.5484660000000  0.4525100000000 1.0
C      1  0.4392230000000  0.5484990000000  0.4622590000000 1.0
C      1  0.4550530000000  0.4731860000000  0.4512700000000 1.0
C      1  0.5024570000000  0.5639770000000  0.5404240000000 1.0
C      1  0.4442480000000  0.5223820000000  0.5351190000000 1.0
C      1  0.4623650000000  0.4501440000000  0.5344880000000 1.0
C      1  0.5365690000000  0.4483780000000  0.5364470000000 1.0
C      1  0.5588320000000  0.5177900000000  0.5376700000000 1.0
C      1  0.5091740000000  0.4361650000000  0.5380760000000 1.0
C      1  0.5656560000000  0.4884090000000  0.5396490000000 1.0
C      1  0.5313740000000  0.5590730000000  0.5410070000000 1.0
C      1  0.4572320000000  0.5479530000000  0.5414730000000 1.0
C      1  0.4435820000000  0.4741580000000  0.5349910000000 1.0
C      1  0.4648220000000  0.4419030000000  0.5064470000000 1.0
C      1  0.5438620000000  0.4460430000000  0.5081690000000 1.0
C      1  0.5587660000000  0.5228820000000  0.5093400000000 1.0
C      1  0.4897010000000  0.5685790000000  0.5092930000000 1.0
C      1  0.4426020000000  0.5191490000000  0.5069800000000 1.0
C      1  0.4998200000000  0.4963710000000  0.5435930000000 1.0
C      1  0.5059670000000  0.4871970000000  0.4400510000000 1.0
END
