TITL C-2782240-8521-1400 -0.00203252658269441 125000 -390.762280909855 0 0 66 (C1) n - 1
REM
REM in /home/nfs/bkarasulu/CARBON/AIRSS/Generating-Clusters/REBO/Higher-Symm/SD-CG/HFTN-CG
REM
REM
REM
REM
REM
REM ./C.cell (12c818d87b63d06a65506943cc24bca4)
REM
REM compiler GCC version 9.2.1 20190827 (Red Hat 9.2.1-1)
REM options -cpp -mtune=generic -march=x86-64 -g -O0 -fpre-include=/usr/include/finclude/math-vector-fortran.h
REM seed -550642219 2006848666 -1971601440 -232821999 -1584942932 -1446759681 1077845396 937408843 2016901341 459501935 2005636461 -2059441735 -1550233979 -657164868 -233047260 1992181193 -1351195937 -689142769 1299994895 1694178019 -1055242094 -25828256 -195806377 -1225372950 153894326 -2000217250 1002739548 -431374849 1824352007 518050600 -65931560 -1679410745 -1520394068
REM
CELL 1.54180   50.00000   50.00000   50.00000   90.00000   90.00000   90.00000
LATT -1
SFAC C  
C      1  0.4767660000000  0.5439880000000  0.5600790000000 1.0
C      1  0.4728630000000  0.4535190000000  0.5650450000000 1.0
C      1  0.4739230000000  0.4290790000000  0.4781160000000 1.0
C      1  0.4747660000000  0.4977260000000  0.4209540000000 1.0
C      1  0.4722440000000  0.5731460000000  0.4763260000000 1.0
C      1  0.5199680000000  0.4560240000000  0.5608460000000 1.0
C      1  0.5233930000000  0.5465920000000  0.5652340000000 1.0
C      1  0.5198940000000  0.5700230000000  0.4781380000000 1.0
C      1  0.5224390000000  0.4992200000000  0.4217100000000 1.0
C      1  0.5213360000000  0.4280220000000  0.4749670000000 1.0
C      1  0.4688200000000  0.5173960000000  0.5653800000000 1.0
C      1  0.4644570000000  0.4415340000000  0.5407690000000 1.0
C      1  0.4659770000000  0.4475070000000  0.4585970000000 1.0
C      1  0.4680350000000  0.5236050000000  0.4351710000000 1.0
C      1  0.4665270000000  0.5665410000000  0.5031220000000 1.0
C      1  0.5272200000000  0.4827270000000  0.5653310000000 1.0
C      1  0.5311940000000  0.5587840000000  0.5408100000000 1.0
C      1  0.5271790000000  0.5510680000000  0.4586190000000 1.0
C      1  0.5328170000000  0.4749390000000  0.4324210000000 1.0
C      1  0.5270530000000  0.4348850000000  0.5013670000000 1.0
C      1  0.4775690000000  0.5513390000000  0.5317120000000 1.0
C      1  0.4712000000000  0.4832330000000  0.5657420000000 1.0
C      1  0.4705260000000  0.4370060000000  0.5071170000000 1.0
C      1  0.4712380000000  0.4746110000000  0.4384320000000 1.0
C      1  0.4664070000000  0.5512050000000  0.4564500000000 1.0
C      1  0.5226640000000  0.4468340000000  0.5331010000000 1.0
C      1  0.5249910000000  0.5168750000000  0.5657230000000 1.0
C      1  0.5244300000000  0.5627630000000  0.5071980000000 1.0
C      1  0.5241340000000  0.5230560000000  0.4389440000000 1.0
C      1  0.5266920000000  0.4496000000000  0.4549820000000 1.0
C      1  0.5159760000000  0.4784610000000  0.4680200000000 1.0
C      1  0.5116980000000  0.5162750000000  0.4703420000000 1.0
C      1  0.5158000000000  0.5311010000000  0.5165900000000 1.0
C      1  0.5119230000000  0.5058980000000  0.5365460000000 1.0
C      1  0.5127780000000  0.4711940000000  0.5106130000000 1.0
C      1  0.4811210000000  0.5222370000000  0.4666790000000 1.0
C      1  0.4832040000000  0.4817410000000  0.4695270000000 1.0
C      1  0.4803470000000  0.4685490000000  0.5161250000000 1.0
C      1  0.4837660000000  0.4935030000000  0.5363110000000 1.0
C      1  0.4838000000000  0.5242480000000  0.5107760000000 1.0
C      1  0.4277350000000  0.4843550000000  0.4819330000000 1.0
C      1  0.4265230000000  0.5127530000000  0.4791230000000 1.0
C      1  0.4289740000000  0.5233550000000  0.5054900000000 1.0
C      1  0.4288010000000  0.5019460000000  0.5244700000000 1.0
C      1  0.4270980000000  0.4775810000000  0.5097610000000 1.0
C      1  0.5676470000000  0.5164430000000  0.4820620000000 1.0
C      1  0.5693860000000  0.4880370000000  0.4789700000000 1.0
C      1  0.5677880000000  0.4772180000000  0.5053250000000 1.0
C      1  0.5672350000000  0.4985140000000  0.5243610000000 1.0
C      1  0.5687730000000  0.5230490000000  0.5098920000000 1.0
C      1  0.5484660000000  0.5417290000000  0.5177860000000 1.0
C      1  0.5450050000000  0.4971340000000  0.5421670000000 1.0
C      1  0.5453070000000  0.4605850000000  0.5081450000000 1.0
C      1  0.5495260000000  0.4772910000000  0.4611270000000 1.0
C      1  0.5446340000000  0.5265030000000  0.4695600000000 1.0
C      1  0.4473560000000  0.4587790000000  0.5175230000000 1.0
C      1  0.4509470000000  0.5029130000000  0.5423480000000 1.0
C      1  0.4528250000000  0.5381510000000  0.5075740000000 1.0
C      1  0.4466780000000  0.5238320000000  0.4616180000000 1.0
C      1  0.4498280000000  0.4734410000000  0.4685410000000 1.0
C      1  0.4971850000000  0.5858610000000  0.4725960000000 1.0
C      1  0.4970180000000  0.4141260000000  0.4718280000000 1.0
C      1  0.4981430000000  0.5550030000000  0.5751720000000 1.0
C      1  0.4980640000000  0.4449390000000  0.5748440000000 1.0
C      1  0.4983370000000  0.4977780000000  0.4066260000000 1.0
C      1  0.4979680000000  0.4979220000000  0.4955550000000 1.0
END
