TITL C-2782228-2999-270 -0.000145208766979407 125000 -1139.14374429925 0 0 193 (C1) n - 1
REM
REM in /home/nfs/bkarasulu/CARBON/AIRSS/Generating-Clusters/REBO/Higher-Symm/SD-CG/HFTN-CG
REM
REM
REM
REM
REM
REM ./C.cell (12c818d87b63d06a65506943cc24bca4)
REM
REM compiler GCC version 9.2.1 20190827 (Red Hat 9.2.1-1)
REM options -cpp -mtune=generic -march=x86-64 -g -O0 -fpre-include=/usr/include/finclude/math-vector-fortran.h
REM seed 907415018 1711315470 1183938365 1712702729 1378429998 -550241803 -2128223883 53978481 913436517 1825222805 -1116384986 -772732745 -786058558 -505277952 -1883754319 1058076880 1991121058 -1083418864 -1377726229 -1609632230 -114444296 638907186 1462094266 -1922545137 -279779324 -180223037 -832288363 -718311319 2047808105 1258549424 1004879967 1614234529 -639790584
REM
CELL 1.54180   50.00000   50.00000   50.00000   90.00000   90.00000   90.00000
LATT -1
SFAC C  
C      1  0.5904020000000  0.5321260000000  0.4332490000000 1.0
C      1  0.5838520000000  0.5377520000000  0.4874420000000 1.0
C      1  0.4517390000000  0.5523670000000  0.5962130000000 1.0
C      1  0.5779890000000  0.4824440000000  0.4247150000000 1.0
C      1  0.5824980000000  0.4479910000000  0.5568900000000 1.0
C      1  0.4926130000000  0.4513250000000  0.5347230000000 1.0
C      1  0.4857480000000  0.3563130000000  0.4854960000000 1.0
C      1  0.4566000000000  0.5910310000000  0.5686860000000 1.0
C      1  0.5567310000000  0.4546710000000  0.5355220000000 1.0
C      1  0.5191410000000  0.4983000000000  0.5179580000000 1.0
C      1  0.4876390000000  0.4449690000000  0.5876700000000 1.0
C      1  0.4548190000000  0.4134340000000  0.4240620000000 1.0
C      1  0.5262180000000  0.4701320000000  0.5680980000000 1.0
C      1  0.4110770000000  0.4868010000000  0.5852860000000 1.0
C      1  0.4882390000000  0.4329330000000  0.4833430000000 1.0
C      1  0.5323680000000  0.5415400000000  0.3964750000000 1.0
C      1  0.4492270000000  0.5929940000000  0.4388940000000 1.0
C      1  0.5447020000000  0.5606080000000  0.5190050000000 1.0
C      1  0.5473890000000  0.4902870000000  0.5584230000000 1.0
C      1  0.5140090000000  0.5628970000000  0.3921280000000 1.0
C      1  0.4451140000000  0.4672260000000  0.4858820000000 1.0
C      1  0.4258240000000  0.4194260000000  0.5464350000000 1.0
C      1  0.5819150000000  0.5085930000000  0.4784200000000 1.0
C      1  0.5461630000000  0.5924250000000  0.5066290000000 1.0
C      1  0.5114850000000  0.5801830000000  0.4143920000000 1.0
C      1  0.4931980000000  0.5044060000000  0.5969090000000 1.0
C      1  0.3920270000000  0.5287110000000  0.4682720000000 1.0
C      1  0.4445380000000  0.5463190000000  0.5446280000000 1.0
C      1  0.4078660000000  0.4127490000000  0.5256450000000 1.0
C      1  0.5678710000000  0.4871000000000  0.5792570000000 1.0
C      1  0.4553330000000  0.4082950000000  0.5399660000000 1.0
C      1  0.4691780000000  0.4719400000000  0.5594420000000 1.0
C      1  0.5246170000000  0.5142370000000  0.3953900000000 1.0
C      1  0.4584230000000  0.5942000000000  0.4854710000000 1.0
C      1  0.4458050000000  0.4872910000000  0.3990150000000 1.0
C      1  0.4548190000000  0.4244610000000  0.4875350000000 1.0
C      1  0.5117390000000  0.5863470000000  0.4835500000000 1.0
C      1  0.4980640000000  0.4994020000000  0.4418410000000 1.0
C      1  0.5782290000000  0.5229700000000  0.5657280000000 1.0
C      1  0.5059560000000  0.5388430000000  0.4862180000000 1.0
C      1  0.4296550000000  0.5360840000000  0.4794430000000 1.0
C      1  0.5523010000000  0.4399480000000  0.5659840000000 1.0
C      1  0.4376890000000  0.5917080000000  0.4656590000000 1.0
C      1  0.4188030000000  0.4891710000000  0.4881220000000 1.0
C      1  0.5027070000000  0.5362860000000  0.5861740000000 1.0
C      1  0.5240160000000  0.5609190000000  0.4924820000000 1.0
C      1  0.4790970000000  0.5854580000000  0.5263020000000 1.0
C      1  0.5010790000000  0.5262770000000  0.4414710000000 1.0
C      1  0.4817080000000  0.4276500000000  0.5169550000000 1.0
C      1  0.4081730000000  0.5545260000000  0.5301640000000 1.0
C      1  0.5518580000000  0.5624870000000  0.4640070000000 1.0
C      1  0.4766300000000  0.4133010000000  0.4067340000000 1.0
C      1  0.4041580000000  0.5268580000000  0.5236530000000 1.0
C      1  0.5393580000000  0.4903500000000  0.4722060000000 1.0
C      1  0.4189550000000  0.5063960000000  0.4350810000000 1.0
C      1  0.4600990000000  0.4613160000000  0.5305970000000 1.0
C      1  0.4105720000000  0.4056780000000  0.4992620000000 1.0
C      1  0.5351550000000  0.4872640000000  0.4385230000000 1.0
C      1  0.4916850000000  0.5574420000000  0.5396240000000 1.0
C      1  0.4375500000000  0.3940820000000  0.4539550000000 1.0
C      1  0.5289740000000  0.4194140000000  0.5598170000000 1.0
C      1  0.4126290000000  0.5633760000000  0.5592060000000 1.0
C      1  0.5739140000000  0.4720850000000  0.4650320000000 1.0
C      1  0.4397190000000  0.5793940000000  0.5462350000000 1.0
C      1  0.5684860000000  0.5708560000000  0.4230450000000 1.0
C      1  0.5064350000000  0.4450070000000  0.5608870000000 1.0
C      1  0.5420490000000  0.4359440000000  0.4893700000000 1.0
C      1  0.5352170000000  0.4459780000000  0.5167710000000 1.0
C      1  0.5415110000000  0.5081120000000  0.5368510000000 1.0
C      1  0.5886690000000  0.4970440000000  0.5466610000000 1.0
C      1  0.4156550000000  0.4657770000000  0.5649050000000 1.0
C      1  0.5324310000000  0.4286030000000  0.4347780000000 1.0
C      1  0.4899610000000  0.5544240000000  0.3792830000000 1.0
C      1  0.4838800000000  0.5888330000000  0.4730970000000 1.0
C      1  0.4512560000000  0.5142330000000  0.4653130000000 1.0
C      1  0.5201200000000  0.6135870000000  0.5004910000000 1.0
C      1  0.5046980000000  0.4030560000000  0.4818650000000 1.0
C      1  0.4604230000000  0.4639530000000  0.4180710000000 1.0
C      1  0.4628690000000  0.5390900000000  0.6186750000000 1.0
C      1  0.4151620000000  0.4849720000000  0.4544600000000 1.0
C      1  0.5248840000000  0.4137250000000  0.5206570000000 1.0
C      1  0.5089520000000  0.5305430000000  0.5392880000000 1.0
C      1  0.5254410000000  0.5924700000000  0.5338280000000 1.0
C      1  0.4999370000000  0.6064550000000  0.5252100000000 1.0
C      1  0.4497430000000  0.4909670000000  0.5763100000000 1.0
C      1  0.4226400000000  0.5700980000000  0.5115090000000 1.0
C      1  0.4987870000000  0.4060080000000  0.5630020000000 1.0
C      1  0.4717630000000  0.4148990000000  0.5662500000000 1.0
C      1  0.4487350000000  0.5566340000000  0.4951950000000 1.0
C      1  0.4866950000000  0.4728790000000  0.6080710000000 1.0
C      1  0.5705020000000  0.5017740000000  0.4500370000000 1.0
C      1  0.5735290000000  0.5133810000000  0.4121220000000 1.0
C      1  0.4382760000000  0.5110920000000  0.4128300000000 1.0
C      1  0.5524880000000  0.4149030000000  0.5350920000000 1.0
C      1  0.6023640000000  0.5367530000000  0.5129640000000 1.0
C      1  0.5930160000000  0.5860540000000  0.4921330000000 1.0
C      1  0.4140020000000  0.4802960000000  0.5395710000000 1.0
C      1  0.5717600000000  0.4791620000000  0.5228900000000 1.0
C      1  0.5664870000000  0.5818630000000  0.4482680000000 1.0
C      1  0.5315820000000  0.4068840000000  0.4761120000000 1.0
C      1  0.5121440000000  0.4662010000000  0.5162200000000 1.0
C      1  0.5047470000000  0.4001670000000  0.5345090000000 1.0
C      1  0.5717510000000  0.4553650000000  0.4276310000000 1.0
C      1  0.5470730000000  0.5204220000000  0.4412610000000 1.0
C      1  0.4641110000000  0.5069470000000  0.5426020000000 1.0
C      1  0.5196780000000  0.5109230000000  0.4882610000000 1.0
C      1  0.4927850000000  0.5037350000000  0.5482540000000 1.0
C      1  0.4818300000000  0.5865720000000  0.4402030000000 1.0
C      1  0.5136650000000  0.4440850000000  0.6073930000000 1.0
C      1  0.4488000000000  0.5909110000000  0.5155820000000 1.0
C      1  0.5497790000000  0.5625010000000  0.5630040000000 1.0
C      1  0.4871380000000  0.4948130000000  0.5043230000000 1.0
C      1  0.5287140000000  0.4438650000000  0.4613090000000 1.0
C      1  0.5165130000000  0.5405760000000  0.6164560000000 1.0
C      1  0.5473980000000  0.4465650000000  0.4167140000000 1.0
C      1  0.4305430000000  0.4063990000000  0.4794760000000 1.0
C      1  0.4580470000000  0.4965250000000  0.4901230000000 1.0
C      1  0.4918010000000  0.5267650000000  0.5121020000000 1.0
C      1  0.4885430000000  0.3825070000000  0.4931900000000 1.0
C      1  0.4222680000000  0.5679740000000  0.4679720000000 1.0
C      1  0.4083510000000  0.5180230000000  0.4946800000000 1.0
C      1  0.6056170000000  0.5675930000000  0.5026060000000 1.0
C      1  0.4971970000000  0.4742150000000  0.3852760000000 1.0
C      1  0.5145000000000  0.5637150000000  0.4403400000000 1.0
C      1  0.4281570000000  0.4400990000000  0.5658230000000 1.0
C      1  0.4587110000000  0.4948390000000  0.4430330000000 1.0
C      1  0.4426930000000  0.5360580000000  0.5184000000000 1.0
C      1  0.5536410000000  0.4778010000000  0.6069630000000 1.0
C      1  0.5531490000000  0.5386110000000  0.5389890000000 1.0
C      1  0.5436070000000  0.4973960000000  0.4091700000000 1.0
C      1  0.5184300000000  0.5160000000000  0.5682380000000 1.0
C      1  0.4766860000000  0.4661220000000  0.4469530000000 1.0
C      1  0.4955110000000  0.5059740000000  0.3921750000000 1.0
C      1  0.5397660000000  0.5292940000000  0.5993280000000 1.0
C      1  0.4262240000000  0.5514670000000  0.4430020000000 1.0
C      1  0.6059840000000  0.5050930000000  0.5191850000000 1.0
C      1  0.4604830000000  0.5632830000000  0.4267130000000 1.0
C      1  0.5344980000000  0.6062110000000  0.4702050000000 1.0
C      1  0.4889550000000  0.5410790000000  0.4611370000000 1.0
C      1  0.5229640000000  0.5751910000000  0.5568290000000 1.0
C      1  0.4975250000000  0.4824500000000  0.5711870000000 1.0
C      1  0.5198860000000  0.4769550000000  0.6144100000000 1.0
C      1  0.4933140000000  0.4304440000000  0.4496560000000 1.0
C      1  0.4240740000000  0.5419880000000  0.5793690000000 1.0
C      1  0.4478780000000  0.5213980000000  0.5668560000000 1.0
C      1  0.5062080000000  0.4176190000000  0.4226470000000 1.0
C      1  0.4583040000000  0.5439450000000  0.4529890000000 1.0
C      1  0.5141430000000  0.5968140000000  0.4446260000000 1.0
C      1  0.5340520000000  0.5472390000000  0.4496570000000 1.0
C      1  0.5584190000000  0.5528490000000  0.4909650000000 1.0
C      1  0.5940300000000  0.5396130000000  0.4563990000000 1.0
C      1  0.5557630000000  0.5422580000000  0.4161760000000 1.0
C      1  0.5859270000000  0.5359490000000  0.5385770000000 1.0
C      1  0.4385640000000  0.4352500000000  0.4347940000000 1.0
C      1  0.5325950000000  0.4999750000000  0.5941030000000 1.0
C      1  0.4569250000000  0.4682780000000  0.5966460000000 1.0
C      1  0.4558440000000  0.5347470000000  0.4087560000000 1.0
C      1  0.4780180000000  0.3941020000000  0.5192300000000 1.0
C      1  0.5936660000000  0.4394560000000  0.5120170000000 1.0
C      1  0.5606190000000  0.4204230000000  0.4662610000000 1.0
C      1  0.5580150000000  0.5373340000000  0.5796630000000 1.0
C      1  0.5167780000000  0.4573710000000  0.4064600000000 1.0
C      1  0.5631880000000  0.4856670000000  0.4945670000000 1.0
C      1  0.4073080000000  0.5304640000000  0.4439190000000 1.0
C      1  0.4953550000000  0.4653610000000  0.4883420000000 1.0
C      1  0.5411970000000  0.4516680000000  0.5923490000000 1.0
C      1  0.5770850000000  0.4222560000000  0.5240920000000 1.0
C      1  0.5083840000000  0.4600860000000  0.4393030000000 1.0
C      1  0.4955260000000  0.5614840000000  0.5716520000000 1.0
C      1  0.4551540000000  0.4387670000000  0.5816890000000 1.0
C      1  0.4757710000000  0.5566110000000  0.5094810000000 1.0
C      1  0.5966350000000  0.4548320000000  0.4832190000000 1.0
C      1  0.4649120000000  0.4147450000000  0.4565220000000 1.0
C      1  0.4223590000000  0.4592320000000  0.4463250000000 1.0
C      1  0.5919860000000  0.4728710000000  0.5679160000000 1.0
C      1  0.6039690000000  0.4705670000000  0.5192330000000 1.0
C      1  0.5064880000000  0.4874670000000  0.4681960000000 1.0
C      1  0.4769510000000  0.5311080000000  0.3892480000000 1.0
C      1  0.4879840000000  0.5260960000000  0.6214290000000 1.0
C      1  0.5805270000000  0.4409780000000  0.4563200000000 1.0
C      1  0.4687930000000  0.4673220000000  0.3861450000000 1.0
C      1  0.6028840000000  0.4875950000000  0.4900930000000 1.0
C      1  0.4093050000000  0.5133720000000  0.5730240000000 1.0
C      1  0.4493750000000  0.4332190000000  0.5174750000000 1.0
C      1  0.4065580000000  0.5078960000000  0.5442270000000 1.0
C      1  0.5658950000000  0.5964920000000  0.4791730000000 1.0
C      1  0.4810770000000  0.4918030000000  0.4170940000000 1.0
C      1  0.4690750000000  0.5717270000000  0.5833810000000 1.0
C      1  0.5700430000000  0.5822500000000  0.5643580000000 1.0
C      1  0.4514290000000  0.4531000000000  0.4603500000000 1.0
C      1  0.4526330000000  0.5103680000000  0.5171870000000 1.0
C      1  0.4320030000000  0.4741240000000  0.5161470000000 1.0
C      1  0.4991030000000  0.4323180000000  0.3930160000000 1.0
END
