TITL C-2782239-8622-451 0.00340920216147452 125000 -600.061340310273 0 0 104 (C1) n - 1
REM
REM in /home/nfs/bkarasulu/CARBON/AIRSS/Generating-Clusters/REBO/Higher-Symm/SD-CG/HFTN-CG
REM
REM
REM
REM
REM
REM ./C.cell (12c818d87b63d06a65506943cc24bca4)
REM
REM compiler GCC version 9.2.1 20190827 (Red Hat 9.2.1-1)
REM options -cpp -mtune=generic -march=x86-64 -g -O0 -fpre-include=/usr/include/finclude/math-vector-fortran.h
REM seed -38015777 562140233 -1998058619 -2132042093 -721143346 1737541022 -1824556087 964187470 1702773036 725482772 -568820692 529272326 1984066357 -1535946872 1494955646 253007504 1738964012 -654152767 1631468633 170806182 2102304298 1399184153 1265781185 1629751572 1340851365 -218701913 333915038 1597773095 -1071883702 -1709175652 -1236152163 -1511458286 -1919747295
REM
CELL 1.54180   50.00000   50.00000   50.00000   90.00000   90.00000   90.00000
LATT -1
SFAC C  
C      1  0.5380530000000  0.5295080000000  0.4813950000000 1.0
C      1  0.5232970000000  0.4662130000000  0.5131390000000 1.0
C      1  0.5100740000000  0.4716060000000  0.5920830000000 1.0
C      1  0.4941620000000  0.5431730000000  0.4968390000000 1.0
C      1  0.4017890000000  0.5299030000000  0.4887500000000 1.0
C      1  0.4158360000000  0.5530130000000  0.5321000000000 1.0
C      1  0.4048950000000  0.5033000000000  0.5319150000000 1.0
C      1  0.4702670000000  0.5700730000000  0.5733540000000 1.0
C      1  0.5209790000000  0.5014540000000  0.5859150000000 1.0
C      1  0.4972890000000  0.5353660000000  0.5504060000000 1.0
C      1  0.4868300000000  0.4679920000000  0.4949550000000 1.0
C      1  0.5870390000000  0.5398250000000  0.5329450000000 1.0
C      1  0.5083810000000  0.4412810000000  0.5013820000000 1.0
C      1  0.5705980000000  0.5350970000000  0.4869430000000 1.0
C      1  0.4318130000000  0.4871020000000  0.4565880000000 1.0
C      1  0.5228680000000  0.5095930000000  0.4589450000000 1.0
C      1  0.4496430000000  0.4777760000000  0.5299930000000 1.0
C      1  0.5361940000000  0.4964760000000  0.5210810000000 1.0
C      1  0.5312270000000  0.5995570000000  0.4493930000000 1.0
C      1  0.5563230000000  0.5770520000000  0.5204180000000 1.0
C      1  0.4803640000000  0.4326340000000  0.4361410000000 1.0
C      1  0.4429430000000  0.4262020000000  0.4754850000000 1.0
C      1  0.5167790000000  0.5789150000000  0.4544870000000 1.0
C      1  0.4870450000000  0.4907280000000  0.5754640000000 1.0
C      1  0.4401370000000  0.4621720000000  0.4381840000000 1.0
C      1  0.4609260000000  0.5786430000000  0.5018870000000 1.0
C      1  0.4374490000000  0.4787810000000  0.4840500000000 1.0
C      1  0.4598880000000  0.5302660000000  0.5139500000000 1.0
C      1  0.5224810000000  0.4160170000000  0.5100890000000 1.0
C      1  0.5917360000000  0.5220100000000  0.5083290000000 1.0
C      1  0.4593960000000  0.5702380000000  0.5472810000000 1.0
C      1  0.5380320000000  0.5325240000000  0.5431900000000 1.0
C      1  0.5725170000000  0.4801210000000  0.5200140000000 1.0
C      1  0.5468700000000  0.4555610000000  0.5544940000000 1.0
C      1  0.4600290000000  0.4171130000000  0.4474960000000 1.0
C      1  0.4728040000000  0.4376950000000  0.5469370000000 1.0
C      1  0.5424540000000  0.5671740000000  0.4940430000000 1.0
C      1  0.5279770000000  0.4525420000000  0.5781270000000 1.0
C      1  0.5935960000000  0.4946310000000  0.5123190000000 1.0
C      1  0.5311270000000  0.4442270000000  0.4279210000000 1.0
C      1  0.4300340000000  0.4521850000000  0.4932190000000 1.0
C      1  0.4619800000000  0.4849180000000  0.5007930000000 1.0
C      1  0.5195550000000  0.4268950000000  0.5581360000000 1.0
C      1  0.5051120000000  0.5051120000000  0.5161250000000 1.0
C      1  0.4915830000000  0.5038020000000  0.4589020000000 1.0
C      1  0.5571800000000  0.4636530000000  0.4690680000000 1.0
C      1  0.5519370000000  0.4866540000000  0.4242430000000 1.0
C      1  0.5781570000000  0.5590530000000  0.5100950000000 1.0
C      1  0.5171990000000  0.5078540000000  0.5540510000000 1.0
C      1  0.5362770000000  0.5402880000000  0.4225720000000 1.0
C      1  0.4363560000000  0.4513080000000  0.5213790000000 1.0
C      1  0.4901960000000  0.5624690000000  0.4480380000000 1.0
C      1  0.4974660000000  0.4500930000000  0.5527850000000 1.0
C      1  0.4856440000000  0.4728920000000  0.4554450000000 1.0
C      1  0.4606730000000  0.4532600000000  0.4640650000000 1.0
C      1  0.4716410000000  0.4627620000000  0.4269570000000 1.0
C      1  0.4602390000000  0.4169270000000  0.5033360000000 1.0
C      1  0.5554960000000  0.4834360000000  0.5460620000000 1.0
C      1  0.4329660000000  0.5170250000000  0.4505100000000 1.0
C      1  0.4464190000000  0.5505470000000  0.4901660000000 1.0
C      1  0.5515560000000  0.5644660000000  0.4677340000000 1.0
C      1  0.4757230000000  0.5171480000000  0.4860190000000 1.0
C      1  0.5631590000000  0.4379080000000  0.4907890000000 1.0
C      1  0.4577780000000  0.5239930000000  0.4277230000000 1.0
C      1  0.4990250000000  0.5557730000000  0.5237810000000 1.0
C      1  0.4531040000000  0.4294780000000  0.5282860000000 1.0
C      1  0.5648610000000  0.5334170000000  0.5499370000000 1.0
C      1  0.4300060000000  0.4980230000000  0.5429860000000 1.0
C      1  0.4953210000000  0.5208230000000  0.5874250000000 1.0
C      1  0.4994200000000  0.5031720000000  0.4257540000000 1.0
C      1  0.5026810000000  0.4642460000000  0.6179940000000 1.0
C      1  0.4677740000000  0.5907130000000  0.5907790000000 1.0
C      1  0.5102500000000  0.4762580000000  0.5430170000000 1.0
C      1  0.4828440000000  0.5457690000000  0.5794110000000 1.0
C      1  0.5141150000000  0.5501590000000  0.4721320000000 1.0
C      1  0.5322220000000  0.4975190000000  0.4883240000000 1.0
C      1  0.5131400000000  0.4744580000000  0.4753810000000 1.0
C      1  0.5377520000000  0.5113280000000  0.4330400000000 1.0
C      1  0.5555620000000  0.5435440000000  0.4483020000000 1.0
C      1  0.5065790000000  0.5303810000000  0.4169060000000 1.0
C      1  0.3939370000000  0.5163950000000  0.5108690000000 1.0
C      1  0.5473450000000  0.4301100000000  0.5379930000000 1.0
C      1  0.4795470000000  0.4363230000000  0.4868820000000 1.0
C      1  0.4688080000000  0.4945000000000  0.5518600000000 1.0
C      1  0.5645340000000  0.4887060000000  0.4520810000000 1.0
C      1  0.4532540000000  0.4916980000000  0.4271570000000 1.0
C      1  0.5329860000000  0.4680090000000  0.4130150000000 1.0
C      1  0.4610690000000  0.5294460000000  0.4596850000000 1.0
C      1  0.5290650000000  0.4511170000000  0.4600140000000 1.0
C      1  0.5296480000000  0.5566660000000  0.5243360000000 1.0
C      1  0.4745010000000  0.5549280000000  0.4731830000000 1.0
C      1  0.5654410000000  0.4980880000000  0.5675530000000 1.0
C      1  0.5143930000000  0.4060300000000  0.5345480000000 1.0
C      1  0.5072190000000  0.4308480000000  0.4432590000000 1.0
C      1  0.4465880000000  0.5202850000000  0.5540350000000 1.0
C      1  0.4424290000000  0.5466140000000  0.5381990000000 1.0
C      1  0.4759380000000  0.5762960000000  0.5251540000000 1.0
C      1  0.5077110000000  0.4813780000000  0.4096320000000 1.0
C      1  0.4241680000000  0.5364360000000  0.4749070000000 1.0
C      1  0.5525050000000  0.4195820000000  0.5095040000000 1.0
C      1  0.5681160000000  0.5162080000000  0.4590260000000 1.0
C      1  0.4833170000000  0.5450190000000  0.4250630000000 1.0
C      1  0.4821530000000  0.5150960000000  0.5306700000000 1.0
C      1  0.5542390000000  0.4669550000000  0.5012820000000 1.0
END
