TITL C-2782236-320-755 -0.000958211547347499 125000 -236.695374765021 0 0 42 (C7) n - 1
REM
REM in /home/nfs/bkarasulu/CARBON/AIRSS/Generating-Clusters/REBO/Higher-Symm/SD-CG/HFTN-CG
REM
REM
REM
REM
REM
REM ./C.cell (12c818d87b63d06a65506943cc24bca4)
REM
REM compiler GCC version 9.2.1 20190827 (Red Hat 9.2.1-1)
REM options -cpp -mtune=generic -march=x86-64 -g -O0 -fpre-include=/usr/include/finclude/math-vector-fortran.h
REM seed 591923589 666280709 -975707032 -1176605855 1157327692 2015862080 630160277 -860882383 1136315314 -1547068523 1634930515 637047617 -1063736017 71209754 -2627042 -1070995959 1619838019 454775837 571256548 -121451998 1809332447 -1570008048 -1633746511 220071062 -493071384 1292247006 -1039651287 1988383366 1150199535 491010626 1413830252 1565103527 425233897
REM
CELL 1.54180   50.00000   50.00000   50.00000   90.00000   90.00000   90.00000
LATT -1
SFAC C  
C      1  0.5378390000000  0.4999680000000  0.5386720000000 1.0
C      1  0.5236270000000  0.5295860000000  0.5386500000000 1.0
C      1  0.4916090000000  0.5369400000000  0.5386310000000 1.0
C      1  0.4658960000000  0.5164940000000  0.5386290000000 1.0
C      1  0.4658510000000  0.4836420000000  0.5386470000000 1.0
C      1  0.4915060000000  0.4631240000000  0.5386700000000 1.0
C      1  0.5235440000000  0.4703890000000  0.5386810000000 1.0
C      1  0.4710440000000  0.5643940000000  0.5000960000000 1.0
C      1  0.4316010000000  0.5175110000000  0.5001020000000 1.0
C      1  0.4436640000000  0.4574410000000  0.5001390000000 1.0
C      1  0.4981490000000  0.4294200000000  0.5001800000000 1.0
C      1  0.5540280000000  0.4545470000000  0.5001920000000 1.0
C      1  0.5692230000000  0.5139010000000  0.5001680000000 1.0
C      1  0.5322920000000  0.5627870000000  0.5001250000000 1.0
C      1  0.5471600000000  0.5216750000000  0.4779520000000 1.0
C      1  0.5124530000000  0.5503730000000  0.4779200000000 1.0
C      1  0.4683760000000  0.5411300000000  0.4779050000000 1.0
C      1  0.4481210000000  0.5009070000000  0.4779160000000 1.0
C      1  0.4669390000000  0.4599920000000  0.4779470000000 1.0
C      1  0.5106610000000  0.4491950000000  0.4779730000000 1.0
C      1  0.5463630000000  0.4766460000000  0.4779750000000 1.0
C      1  0.4798930000000  0.5637070000000  0.5235930000000 1.0
C      1  0.4376610000000  0.5240140000000  0.5235940000000 1.0
C      1  0.4423630000000  0.4662470000000  0.5236270000000 1.0
C      1  0.4904590000000  0.4339060000000  0.5236670000000 1.0
C      1  0.5457310000000  0.4513450000000  0.5236830000000 1.0
C      1  0.5665590000000  0.5054310000000  0.5236650000000 1.0
C      1  0.5372580000000  0.5554370000000  0.5236240000000 1.0
C      1  0.4923140000000  0.5374430000000  0.4540380000000 1.0
C      1  0.4659220000000  0.5173100000000  0.4540360000000 1.0
C      1  0.4652080000000  0.4841240000000  0.4540530000000 1.0
C      1  0.4907100000000  0.4628740000000  0.4540760000000 1.0
C      1  0.5232230000000  0.4695630000000  0.4540880000000 1.0
C      1  0.5382650000000  0.4991530000000  0.4540790000000 1.0
C      1  0.5245090000000  0.5293630000000  0.4540570000000 1.0
C      1  0.4732590000000  0.5248750000000  0.5055390000000 1.0
C      1  0.4638800000000  0.4946060000000  0.5055500000000 1.0
C      1  0.4816980000000  0.4684000000000  0.5055720000000 1.0
C      1  0.5132960000000  0.4659920000000  0.5055880000000 1.0
C      1  0.5348790000000  0.4891950000000  0.5055860000000 1.0
C      1  0.5301960000000  0.5205360000000  0.5055680000000 1.0
C      1  0.5027720000000  0.5364150000000  0.5055460000000 1.0
END
