TITL C-2782232-2968-437 -0.0107519593569781 125000 -535.5461703565 0 0 97 (C1) n - 1
REM
REM in /home/nfs/bkarasulu/CARBON/AIRSS/Generating-Clusters/REBO/Higher-Symm/SD-CG/HFTN-CG
REM
REM
REM
REM
REM
REM ./C.cell (12c818d87b63d06a65506943cc24bca4)
REM
REM compiler GCC version 9.2.1 20190827 (Red Hat 9.2.1-1)
REM options -cpp -mtune=generic -march=x86-64 -g -O0 -fpre-include=/usr/include/finclude/math-vector-fortran.h
REM seed 29861090 15152564 -1799017389 -1280055338 -205990342 -1718932046 1695617326 723858681 1378886396 -1849334073 323145654 -1517208930 -282150116 -118420703 -1990873968 996277821 923780870 1309135223 -1212591480 -445056701 -1729755106 -860079071 -979434398 473825754 1744545340 -133420831 775121259 -423755449 -1470542348 -1570920960 1511722569 589674991 -2094640502
REM
CELL 1.54180   50.00000   50.00000   50.00000   90.00000   90.00000   90.00000
LATT -1
SFAC C  
C      1  0.5637130000000  0.4694410000000  0.4680650000000 1.0
C      1  0.5755820000000  0.5393470000000  0.5386510000000 1.0
C      1  0.5389440000000  0.4630830000000  0.5035190000000 1.0
C      1  0.5389030000000  0.5309080000000  0.4980320000000 1.0
C      1  0.4894420000000  0.4658220000000  0.5574170000000 1.0
C      1  0.4877310000000  0.5341440000000  0.4368720000000 1.0
C      1  0.4082090000000  0.5319160000000  0.5026500000000 1.0
C      1  0.4178400000000  0.4649120000000  0.4972080000000 1.0
C      1  0.5334430000000  0.5182930000000  0.4543630000000 1.0
C      1  0.5369730000000  0.4796440000000  0.5438480000000 1.0
C      1  0.4979370000000  0.5741710000000  0.5195970000000 1.0
C      1  0.4967200000000  0.4226160000000  0.4833510000000 1.0
C      1  0.5781890000000  0.5261680000000  0.4553350000000 1.0
C      1  0.5762910000000  0.4758990000000  0.5480620000000 1.0
C      1  0.4417990000000  0.5065140000000  0.5606850000000 1.0
C      1  0.4415330000000  0.4961930000000  0.4331930000000 1.0
C      1  0.5247610000000  0.4302440000000  0.4652460000000 1.0
C      1  0.5271960000000  0.5676830000000  0.5365010000000 1.0
C      1  0.5424810000000  0.4575860000000  0.4550860000000 1.0
C      1  0.5479630000000  0.5439960000000  0.5501850000000 1.0
C      1  0.4625890000000  0.4369770000000  0.5635960000000 1.0
C      1  0.4616320000000  0.5643910000000  0.4371700000000 1.0
C      1  0.4912250000000  0.5191700000000  0.5294400000000 1.0
C      1  0.4847830000000  0.4961090000000  0.4762970000000 1.0
C      1  0.5192230000000  0.4996420000000  0.5734190000000 1.0
C      1  0.5093850000000  0.4925220000000  0.4241330000000 1.0
C      1  0.5550580000000  0.4516480000000  0.5528540000000 1.0
C      1  0.5524630000000  0.5462870000000  0.4475180000000 1.0
C      1  0.4355930000000  0.5737230000000  0.5119900000000 1.0
C      1  0.4476790000000  0.4292260000000  0.4848960000000 1.0
C      1  0.4556380000000  0.4698720000000  0.4468480000000 1.0
C      1  0.4514460000000  0.5374370000000  0.5590480000000 1.0
C      1  0.4903750000000  0.5374040000000  0.5004290000000 1.0
C      1  0.4991560000000  0.4590810000000  0.5042690000000 1.0
C      1  0.4472070000000  0.5100980000000  0.4637600000000 1.0
C      1  0.4479170000000  0.4956260000000  0.5302110000000 1.0
C      1  0.4835230000000  0.4633140000000  0.4328500000000 1.0
C      1  0.4840730000000  0.5370870000000  0.5694820000000 1.0
C      1  0.5769330000000  0.5451140000000  0.5051480000000 1.0
C      1  0.5772290000000  0.4534140000000  0.4924970000000 1.0
C      1  0.4701250000000  0.4507190000000  0.4932360000000 1.0
C      1  0.4623520000000  0.5562770000000  0.5056970000000 1.0
C      1  0.4281170000000  0.5263910000000  0.4412350000000 1.0
C      1  0.4297660000000  0.4761400000000  0.5552120000000 1.0
C      1  0.5599880000000  0.5088030000000  0.4368110000000 1.0
C      1  0.5586810000000  0.4969980000000  0.5624010000000 1.0
C      1  0.4336150000000  0.5095240000000  0.5075440000000 1.0
C      1  0.4342310000000  0.4880360000000  0.4853460000000 1.0
C      1  0.4734880000000  0.5261810000000  0.4728970000000 1.0
C      1  0.4747890000000  0.4791590000000  0.5207470000000 1.0
C      1  0.4700290000000  0.4910920000000  0.4177430000000 1.0
C      1  0.4696820000000  0.5069170000000  0.5762980000000 1.0
C      1  0.4950110000000  0.5016640000000  0.5545910000000 1.0
C      1  0.4956950000000  0.5045170000000  0.4460300000000 1.0
C      1  0.5387490000000  0.5562500000000  0.4758170000000 1.0
C      1  0.5403310000000  0.4396790000000  0.5257540000000 1.0
C      1  0.4502550000000  0.4565450000000  0.5190610000000 1.0
C      1  0.4399420000000  0.5392320000000  0.4923120000000 1.0
C      1  0.5888210000000  0.5159590000000  0.5176940000000 1.0
C      1  0.5814370000000  0.4872630000000  0.4910660000000 1.0
C      1  0.5560140000000  0.4923650000000  0.4147970000000 1.0
C      1  0.5621370000000  0.5189050000000  0.5778680000000 1.0
C      1  0.5834190000000  0.5194600000000  0.4839570000000 1.0
C      1  0.5877410000000  0.4852850000000  0.5243330000000 1.0
C      1  0.5072610000000  0.5321930000000  0.4716060000000 1.0
C      1  0.5100400000000  0.4648200000000  0.5326450000000 1.0
C      1  0.4420540000000  0.5512040000000  0.4297790000000 1.0
C      1  0.4446420000000  0.4533340000000  0.5686550000000 1.0
C      1  0.4624860000000  0.4753350000000  0.4758960000000 1.0
C      1  0.4685990000000  0.5417360000000  0.5331580000000 1.0
C      1  0.5105020000000  0.4652540000000  0.4529280000000 1.0
C      1  0.5156230000000  0.5357580000000  0.5571700000000 1.0
C      1  0.5494240000000  0.5598980000000  0.5137010000000 1.0
C      1  0.5499770000000  0.4352290000000  0.4873400000000 1.0
C      1  0.5228080000000  0.5734760000000  0.4972780000000 1.0
C      1  0.5234040000000  0.4226120000000  0.5043790000000 1.0
C      1  0.4774930000000  0.4779600000000  0.5813950000000 1.0
C      1  0.4802750000000  0.5168910000000  0.4115470000000 1.0
C      1  0.5303340000000  0.4848420000000  0.4086750000000 1.0
C      1  0.5340380000000  0.4953830000000  0.5938490000000 1.0
C      1  0.5337180000000  0.5040480000000  0.4816960000000 1.0
C      1  0.5291390000000  0.4945230000000  0.5141100000000 1.0
C      1  0.4218440000000  0.4393350000000  0.4849380000000 1.0
C      1  0.4132200000000  0.5619860000000  0.5139640000000 1.0
C      1  0.4935100000000  0.4370880000000  0.4527000000000 1.0
C      1  0.4968580000000  0.5629350000000  0.5512960000000 1.0
C      1  0.4879860000000  0.5629660000000  0.4553210000000 1.0
C      1  0.4901900000000  0.4332890000000  0.5466270000000 1.0
C      1  0.4225680000000  0.4649960000000  0.5268600000000 1.0
C      1  0.4154480000000  0.5332330000000  0.4693660000000 1.0
C      1  0.5307280000000  0.5249420000000  0.5291610000000 1.0
C      1  0.5177700000000  0.4745300000000  0.4814840000000 1.0
C      1  0.5224020000000  0.4413240000000  0.5542920000000 1.0
C      1  0.5193840000000  0.5549650000000  0.4489160000000 1.0
C      1  0.4905870000000  0.5729120000000  0.4861940000000 1.0
C      1  0.4921230000000  0.4222250000000  0.5171950000000 1.0
C      1  0.4963580000000  0.4983750000000  0.5053670000000 1.0
END
