TITL C-2782229-3092-752 -0.00131727038289462 125000 -372.364389432516 0 0 69 (C2) n - 1
REM
REM in /home/nfs/bkarasulu/CARBON/AIRSS/Generating-Clusters/REBO/Higher-Symm/SD-CG/HFTN-CG
REM
REM
REM
REM
REM
REM ./C.cell (12c818d87b63d06a65506943cc24bca4)
REM
REM compiler GCC version 9.2.1 20190827 (Red Hat 9.2.1-1)
REM options -cpp -mtune=generic -march=x86-64 -g -O0 -fpre-include=/usr/include/finclude/math-vector-fortran.h
REM seed -978998326 1929231125 -1719590472 1209453323 1253264595 1483572643 -1473476543 -1331064149 -298313733 -927049110 1006440109 805871287 -1328548020 888909416 1777641098 -365505490 1433751725 -2071439757 -8442173 1792585466 929855751 1676398374 -451003114 -994496933 1263477228 -1661574262 645719887 842773215 -496254567 1769768997 -1471447387 -1545362056 -740278119
REM
CELL 1.54180   50.00000   50.00000   50.00000   90.00000   90.00000   90.00000
LATT -1
SFAC C  
C      1  0.5595580000000  0.5516380000000  0.5009330000000 1.0
C      1  0.5599190000000  0.4978920000000  0.4449600000000 1.0
C      1  0.5595530000000  0.4483770000000  0.4986060000000 1.0
C      1  0.5599190000000  0.5021230000000  0.5545790000000 1.0
C      1  0.4411990000000  0.5516620000000  0.4943710000000 1.0
C      1  0.4410270000000  0.4917460000000  0.4454470000000 1.0
C      1  0.4411940000000  0.4483640000000  0.5051690000000 1.0
C      1  0.4410280000000  0.5082790000000  0.5540920000000 1.0
C      1  0.4851220000000  0.4689160000000  0.5064570000000 1.0
C      1  0.4855340000000  0.5071850000000  0.5311700000000 1.0
C      1  0.4851250000000  0.5311060000000  0.4930820000000 1.0
C      1  0.4855330000000  0.4928360000000  0.4683690000000 1.0
C      1  0.5170280000000  0.4687930000000  0.5037580000000 1.0
C      1  0.5169980000000  0.5034090000000  0.5312030000000 1.0
C      1  0.5170310000000  0.5312250000000  0.4957810000000 1.0
C      1  0.5169980000000  0.4966100000000  0.4683360000000 1.0
C      1  0.4818660000000  0.5735910000000  0.5229190000000 1.0
C      1  0.4815140000000  0.5222910000000  0.4260220000000 1.0
C      1  0.4818590000000  0.4264310000000  0.4766210000000 1.0
C      1  0.4815120000000  0.4777310000000  0.5735170000000 1.0
C      1  0.5150440000000  0.5697720000000  0.5282500000000 1.0
C      1  0.5151020000000  0.5272980000000  0.4294230000000 1.0
C      1  0.5150370000000  0.4302470000000  0.4712890000000 1.0
C      1  0.5151000000000  0.4727210000000  0.5701170000000 1.0
C      1  0.4402360000000  0.4800560000000  0.4945280000000 1.0
C      1  0.4394680000000  0.4929660000000  0.5256990000000 1.0
C      1  0.4402380000000  0.5199700000000  0.5050120000000 1.0
C      1  0.4394690000000  0.5070600000000  0.4738410000000 1.0
C      1  0.5611100000000  0.4810440000000  0.4927310000000 1.0
C      1  0.5619050000000  0.4904420000000  0.5250500000000 1.0
C      1  0.5611120000000  0.5189700000000  0.5068080000000 1.0
C      1  0.5619060000000  0.5095730000000  0.4744890000000 1.0
C      1  0.4713920000000  0.4379850000000  0.5017180000000 1.0
C      1  0.4715950000000  0.5030720000000  0.5621250000000 1.0
C      1  0.4713980000000  0.5620380000000  0.4978210000000 1.0
C      1  0.4715950000000  0.4969510000000  0.4374140000000 1.0
C      1  0.5293090000000  0.4379470000000  0.4962640000000 1.0
C      1  0.5291750000000  0.4980740000000  0.5626120000000 1.0
C      1  0.5293150000000  0.5620710000000  0.5032760000000 1.0
C      1  0.5291750000000  0.5019430000000  0.4369270000000 1.0
C      1  0.5180470000000  0.4297320000000  0.5234720000000 1.0
C      1  0.5175450000000  0.5250760000000  0.5707150000000 1.0
C      1  0.5180530000000  0.5702870000000  0.4760670000000 1.0
C      1  0.5175420000000  0.4749430000000  0.4288240000000 1.0
C      1  0.4883630000000  0.4350190000000  0.5273980000000 1.0
C      1  0.4885120000000  0.5286610000000  0.5647800000000 1.0
C      1  0.4883690000000  0.5650030000000  0.4721410000000 1.0
C      1  0.4885090000000  0.4713610000000  0.4347590000000 1.0
C      1  0.4834290000000  0.5490110000000  0.5420080000000 1.0
C      1  0.4843380000000  0.5414990000000  0.4506120000000 1.0
C      1  0.4834240000000  0.4510110000000  0.4575310000000 1.0
C      1  0.4843340000000  0.4585220000000  0.5489270000000 1.0
C      1  0.5195970000000  0.5462120000000  0.5468730000000 1.0
C      1  0.5184830000000  0.5463770000000  0.4538670000000 1.0
C      1  0.5195930000000  0.4538070000000  0.4526660000000 1.0
C      1  0.5184790000000  0.4536420000000  0.5456720000000 1.0
C      1  0.4597150000000  0.5266290000000  0.5321180000000 1.0
C      1  0.4599070000000  0.5330440000000  0.4728140000000 1.0
C      1  0.4597120000000  0.4733950000000  0.4674210000000 1.0
C      1  0.4599040000000  0.4669800000000  0.5267250000000 1.0
C      1  0.5420610000000  0.5236310000000  0.5346990000000 1.0
C      1  0.5422930000000  0.5359300000000  0.4759380000000 1.0
C      1  0.5420590000000  0.4763850000000  0.4648400000000 1.0
C      1  0.5422890000000  0.4640860000000  0.5236010000000 1.0
C      1  0.5003270000000  0.4012570000000  0.4679210000000 1.0
C      1  0.4998820000000  0.4693090000000  0.5988040000000 1.0
C      1  0.4998850000000  0.5307110000000  0.4007350000000 1.0
C      1  0.5003360000000  0.5987630000000  0.5316180000000 1.0
C      1  0.5007480000000  0.5000100000000  0.4997700000000 1.0
END
