TITL C-2782239-8622-1383 0.000161927078609597 125000 -227.658979757959 0 0 40 (C2) n - 1
REM
REM in /home/nfs/bkarasulu/CARBON/AIRSS/Generating-Clusters/REBO/Higher-Symm/SD-CG/HFTN-CG
REM
REM
REM
REM
REM
REM ./C.cell (12c818d87b63d06a65506943cc24bca4)
REM
REM compiler GCC version 9.2.1 20190827 (Red Hat 9.2.1-1)
REM options -cpp -mtune=generic -march=x86-64 -g -O0 -fpre-include=/usr/include/finclude/math-vector-fortran.h
REM seed -92107512 -397494536 2062330652 1330123815 -2102388546 300749708 -1836681109 1391565178 140802070 -1019043743 23891003 -168170185 -659341500 -1608992775 -93589470 -1790835374 -1950622667 -190475893 1684627692 1160981496 2082053279 1326303231 1764352035 -1163172199 1227186892 843237988 976095036 657403833 -504098844 786518693 266039692 -2078681804 342910750
REM
CELL 1.54180   50.00000   50.00000   50.00000   90.00000   90.00000   90.00000
LATT -1
SFAC C  
C      1  0.4497000000000  0.4799250000000  0.5177410000000 1.0
C      1  0.4800590000000  0.5545520000000  0.5131840000000 1.0
C      1  0.5503000000000  0.5200790000000  0.5177360000000 1.0
C      1  0.5199410000000  0.4454500000000  0.5131950000000 1.0
C      1  0.4471460000000  0.4785510000000  0.4893150000000 1.0
C      1  0.4779270000000  0.5503480000000  0.4850290000000 1.0
C      1  0.5528540000000  0.5214470000000  0.4893100000000 1.0
C      1  0.5220720000000  0.4496490000000  0.4850390000000 1.0
C      1  0.4771840000000  0.4201720000000  0.5051060000000 1.0
C      1  0.4274720000000  0.5268980000000  0.5171400000000 1.0
C      1  0.5228160000000  0.5798300000000  0.5050880000000 1.0
C      1  0.5725280000000  0.4731050000000  0.5171440000000 1.0
C      1  0.4780460000000  0.4239180000000  0.4800450000000 1.0
C      1  0.4230290000000  0.5256540000000  0.4922340000000 1.0
C      1  0.5219540000000  0.5760780000000  0.4800290000000 1.0
C      1  0.5769710000000  0.4743450000000  0.4922390000000 1.0
C      1  0.4882710000000  0.4430960000000  0.5237010000000 1.0
C      1  0.4522750000000  0.5099220000000  0.5287750000000 1.0
C      1  0.5117290000000  0.5569090000000  0.5236890000000 1.0
C      1  0.5477250000000  0.4900840000000  0.5287760000000 1.0
C      1  0.4936160000000  0.4501480000000  0.4698620000000 1.0
C      1  0.4430840000000  0.5078190000000  0.4744900000000 1.0
C      1  0.5063840000000  0.5498450000000  0.4698520000000 1.0
C      1  0.5569160000000  0.4921750000000  0.4744910000000 1.0
C      1  0.5444220000000  0.4605130000000  0.4736630000000 1.0
C      1  0.4622030000000  0.4603720000000  0.4756720000000 1.0
C      1  0.4555770000000  0.5394810000000  0.4736550000000 1.0
C      1  0.5377970000000  0.5396230000000  0.4756630000000 1.0
C      1  0.5374060000000  0.4586800000000  0.5295130000000 1.0
C      1  0.4603400000000  0.4590970000000  0.5321600000000 1.0
C      1  0.4625940000000  0.5413260000000  0.5295050000000 1.0
C      1  0.5396610000000  0.5409090000000  0.5321510000000 1.0
C      1  0.5249910000000  0.4948390000000  0.4792620000000 1.0
C      1  0.4960460000000  0.4800100000000  0.4839060000000 1.0
C      1  0.4750090000000  0.5051560000000  0.4792610000000 1.0
C      1  0.5039540000000  0.5199870000000  0.4839020000000 1.0
C      1  0.5194110000000  0.4953180000000  0.5124170000000 1.0
C      1  0.4935070000000  0.4749310000000  0.5168260000000 1.0
C      1  0.4805890000000  0.5046850000000  0.5124160000000 1.0
C      1  0.5064930000000  0.5250730000000  0.5168200000000 1.0
END
