TITL C-2782229-3092-314 4.40519597822666e-05 125000 -931.676453984652 0 0 160 (C1) n - 1
REM
REM in /home/nfs/bkarasulu/CARBON/AIRSS/Generating-Clusters/REBO/Higher-Symm/SD-CG/HFTN-CG
REM
REM
REM
REM
REM
REM ./C.cell (12c818d87b63d06a65506943cc24bca4)
REM
REM compiler GCC version 9.2.1 20190827 (Red Hat 9.2.1-1)
REM options -cpp -mtune=generic -march=x86-64 -g -O0 -fpre-include=/usr/include/finclude/math-vector-fortran.h
REM seed -764323761 940037283 1221613835 263251610 1720572874 -909270896 1225405451 900283562 498109400 -1506512686 1090385901 467197233 2072862176 -56798600 1631287155 496090210 2029993616 1644663493 -1564215497 1013623078 764150172 1060328222 256187423 294843602 15595197 1262903017 64388121 -896745231 482660502 49707408 -407679244 -1481106780 -411483479
REM
CELL 1.54180   50.00000   50.00000   50.00000   90.00000   90.00000   90.00000
LATT -1
SFAC C  
C      1  0.5407300000000  0.4523050000000  0.4756770000000 1.0
C      1  0.4575400000000  0.4747780000000  0.5482970000000 1.0
C      1  0.5435610000000  0.5474060000000  0.5264840000000 1.0
C      1  0.4552710000000  0.5299640000000  0.4565440000000 1.0
C      1  0.4468190000000  0.4635290000000  0.5950820000000 1.0
C      1  0.5526590000000  0.5930330000000  0.5248330000000 1.0
C      1  0.4447300000000  0.5191840000000  0.4019510000000 1.0
C      1  0.5578860000000  0.3921840000000  0.4908400000000 1.0
C      1  0.4742550000000  0.4171430000000  0.4585560000000 1.0
C      1  0.5267880000000  0.4601580000000  0.5864070000000 1.0
C      1  0.4722780000000  0.5892360000000  0.5404160000000 1.0
C      1  0.5329060000000  0.5411710000000  0.4114950000000 1.0
C      1  0.6111650000000  0.4739880000000  0.5068060000000 1.0
C      1  0.3958470000000  0.5082520000000  0.5232310000000 1.0
C      1  0.6092650000000  0.5278400000000  0.4873120000000 1.0
C      1  0.3827460000000  0.4910230000000  0.4776060000000 1.0
C      1  0.5720830000000  0.5335370000000  0.5276430000000 1.0
C      1  0.4288390000000  0.5337450000000  0.4711490000000 1.0
C      1  0.5724300000000  0.4600920000000  0.4715800000000 1.0
C      1  0.4291630000000  0.4711110000000  0.5339200000000 1.0
C      1  0.5903290000000  0.4646680000000  0.4455350000000 1.0
C      1  0.4071700000000  0.4210680000000  0.5452180000000 1.0
C      1  0.6022350000000  0.5308620000000  0.5935750000000 1.0
C      1  0.4161310000000  0.5691120000000  0.4499590000000 1.0
C      1  0.5446470000000  0.4730060000000  0.4219100000000 1.0
C      1  0.4579260000000  0.4187190000000  0.5382800000000 1.0
C      1  0.5389050000000  0.5362860000000  0.5727390000000 1.0
C      1  0.4624270000000  0.5780220000000  0.4682680000000 1.0
C      1  0.4119010000000  0.5691800000000  0.4786610000000 1.0
C      1  0.5919810000000  0.4888250000000  0.4299350000000 1.0
C      1  0.4127420000000  0.4248380000000  0.5182830000000 1.0
C      1  0.5883170000000  0.5162050000000  0.5749360000000 1.0
C      1  0.5096770000000  0.5074110000000  0.5969110000000 1.0
C      1  0.4876740000000  0.5959270000000  0.4935060000000 1.0
C      1  0.5113840000000  0.4932100000000  0.4012110000000 1.0
C      1  0.4877320000000  0.4019260000000  0.5071170000000 1.0
C      1  0.5547470000000  0.4163590000000  0.5018260000000 1.0
C      1  0.4358170000000  0.4874560000000  0.5849500000000 1.0
C      1  0.5545860000000  0.5774780000000  0.5025310000000 1.0
C      1  0.4421520000000  0.5058630000000  0.4252060000000 1.0
C      1  0.4599660000000  0.4432600000000  0.4713480000000 1.0
C      1  0.5394810000000  0.4750000000000  0.5603120000000 1.0
C      1  0.4596680000000  0.5599600000000  0.5324400000000 1.0
C      1  0.5422540000000  0.5238320000000  0.4382770000000 1.0
C      1  0.4327220000000  0.5349100000000  0.5698280000000 1.0
C      1  0.5694020000000  0.5611160000000  0.4603290000000 1.0
C      1  0.4303760000000  0.4691760000000  0.4357310000000 1.0
C      1  0.5646530000000  0.4350510000000  0.5418650000000 1.0
C      1  0.4398600000000  0.4182190000000  0.5117630000000 1.0
C      1  0.5597360000000  0.5121420000000  0.5800650000000 1.0
C      1  0.4363090000000  0.5803310000000  0.4895110000000 1.0
C      1  0.5676010000000  0.4923270000000  0.4149050000000 1.0
C      1  0.5191970000000  0.3983950000000  0.4986910000000 1.0
C      1  0.4784680000000  0.4970760000000  0.5994560000000 1.0
C      1  0.5210620000000  0.5948860000000  0.4894020000000 1.0
C      1  0.4821410000000  0.5077150000000  0.3937000000000 1.0
C      1  0.4828330000000  0.5204110000000  0.5526990000000 1.0
C      1  0.5077690000000  0.5520930000000  0.4695460000000 1.0
C      1  0.4877590000000  0.4773650000000  0.4447200000000 1.0
C      1  0.5126770000000  0.4437570000000  0.5281040000000 1.0
C      1  0.5426360000000  0.4156680000000  0.5444450000000 1.0
C      1  0.4530550000000  0.5411100000000  0.5899910000000 1.0
C      1  0.5507330000000  0.5803810000000  0.4502950000000 1.0
C      1  0.4495420000000  0.4682200000000  0.4141430000000 1.0
C      1  0.5684030000000  0.5348270000000  0.4505660000000 1.0
C      1  0.4345840000000  0.4556100000000  0.4602250000000 1.0
C      1  0.5658830000000  0.4605440000000  0.5537400000000 1.0
C      1  0.4340090000000  0.5498720000000  0.5459320000000 1.0
C      1  0.4991600000000  0.5691900000000  0.5115640000000 1.0
C      1  0.4974810000000  0.5053990000000  0.4304040000000 1.0
C      1  0.4977440000000  0.4314680000000  0.4931610000000 1.0
C      1  0.5023260000000  0.4895340000000  0.5687570000000 1.0
C      1  0.5222280000000  0.5110420000000  0.5593560000000 1.0
C      1  0.4804440000000  0.5578110000000  0.4853210000000 1.0
C      1  0.5255320000000  0.4876400000000  0.4377410000000 1.0
C      1  0.4773150000000  0.4382400000000  0.5195840000000 1.0
C      1  0.5013910000000  0.6054940000000  0.5388540000000 1.0
C      1  0.5022090000000  0.5536960000000  0.4111970000000 1.0
C      1  0.5074190000000  0.4174940000000  0.4510070000000 1.0
C      1  0.4952490000000  0.4493560000000  0.5821030000000 1.0
C      1  0.5666710000000  0.4902870000000  0.4651280000000 1.0
C      1  0.4339450000000  0.4627890000000  0.5071330000000 1.0
C      1  0.5674030000000  0.5071290000000  0.5382060000000 1.0
C      1  0.4331680000000  0.5414050000000  0.4980020000000 1.0
C      1  0.5814820000000  0.5129370000000  0.4627270000000 1.0
C      1  0.4188660000000  0.4610620000000  0.4834160000000 1.0
C      1  0.5825440000000  0.4837650000000  0.5522810000000 1.0
C      1  0.4183190000000  0.5460680000000  0.5221160000000 1.0
C      1  0.4635090000000  0.5413690000000  0.5055740000000 1.0
C      1  0.5378290000000  0.4999290000000  0.4625360000000 1.0
C      1  0.4635420000000  0.4579260000000  0.5002500000000 1.0
C      1  0.5383910000000  0.4980000000000  0.5364620000000 1.0
C      1  0.4985160000000  0.4741550000000  0.4720150000000 1.0
C      1  0.4993820000000  0.4711890000000  0.5246780000000 1.0
C      1  0.4988510000000  0.5233660000000  0.5293440000000 1.0
C      1  0.4971970000000  0.5228800000000  0.4755830000000 1.0
C      1  0.5157970000000  0.4994020000000  0.4839710000000 1.0
C      1  0.4822510000000  0.4835200000000  0.4988530000000 1.0
C      1  0.5159950000000  0.4977410000000  0.5147480000000 1.0
C      1  0.4820530000000  0.5147010000000  0.5021210000000 1.0
C      1  0.4427810000000  0.5734650000000  0.4431900000000 1.0
C      1  0.5389150000000  0.4461050000000  0.4158390000000 1.0
C      1  0.4426380000000  0.4198000000000  0.5615100000000 1.0
C      1  0.5502100000000  0.5599000000000  0.5638900000000 1.0
C      1  0.4208290000000  0.5073820000000  0.5679780000000 1.0
C      1  0.5762740000000  0.5635330000000  0.4885340000000 1.0
C      1  0.4156050000000  0.4964000000000  0.4383020000000 1.0
C      1  0.5765690000000  0.4336210000000  0.5151180000000 1.0
C      1  0.5879660000000  0.4552720000000  0.4980730000000 1.0
C      1  0.4107350000000  0.4938170000000  0.5430420000000 1.0
C      1  0.5888570000000  0.5411790000000  0.5031360000000 1.0
C      1  0.4080860000000  0.5071040000000  0.4668000000000 1.0
C      1  0.5583160000000  0.5147300000000  0.4952180000000 1.0
C      1  0.4316630000000  0.4984880000000  0.4892800000000 1.0
C      1  0.5738620000000  0.4879090000000  0.5040960000000 1.0
C      1  0.4368940000000  0.5056660000000  0.5153160000000 1.0
C      1  0.5205850000000  0.4044190000000  0.5295120000000 1.0
C      1  0.4778330000000  0.5311650000000  0.5976480000000 1.0
C      1  0.5275590000000  0.5922650000000  0.4571220000000 1.0
C      1  0.4738280000000  0.4800930000000  0.4050000000000 1.0
C      1  0.5283990000000  0.5685050000000  0.3952410000000 1.0
C      1  0.4837420000000  0.4153030000000  0.4265470000000 1.0
C      1  0.5219620000000  0.4275100000000  0.5822920000000 1.0
C      1  0.4962710000000  0.5851070000000  0.5627290000000 1.0
C      1  0.3924100000000  0.4387060000000  0.5032040000000 1.0
C      1  0.6053760000000  0.5067220000000  0.5498030000000 1.0
C      1  0.3947860000000  0.5492450000000  0.4899900000000 1.0
C      1  0.6131810000000  0.5065410000000  0.4394550000000 1.0
C      1  0.5003500000000  0.4648890000000  0.4169500000000 1.0
C      1  0.4880550000000  0.4056080000000  0.5398890000000 1.0
C      1  0.5082980000000  0.5387820000000  0.5866350000000 1.0
C      1  0.4939530000000  0.5884180000000  0.4607570000000 1.0
C      1  0.4615260000000  0.4931210000000  0.4430550000000 1.0
C      1  0.5372100000000  0.4399300000000  0.5132280000000 1.0
C      1  0.4606110000000  0.5063920000000  0.5719150000000 1.0
C      1  0.5304330000000  0.5630660000000  0.4841770000000 1.0
C      1  0.4609340000000  0.5851850000000  0.5092730000000 1.0
C      1  0.5391210000000  0.5096010000000  0.4072250000000 1.0
C      1  0.4618990000000  0.4144760000000  0.4898630000000 1.0
C      1  0.5369170000000  0.4909930000000  0.5904190000000 1.0
C      1  0.5028210000000  0.4296250000000  0.5549510000000 1.0
C      1  0.5083520000000  0.5596200000000  0.5619290000000 1.0
C      1  0.4951990000000  0.5613430000000  0.4399180000000 1.0
C      1  0.5100340000000  0.4357290000000  0.4222270000000 1.0
C      1  0.4535980000000  0.5012510000000  0.4710150000000 1.0
C      1  0.5501870000000  0.4662800000000  0.5040490000000 1.0
C      1  0.4489960000000  0.5050290000000  0.5398480000000 1.0
C      1  0.5463230000000  0.5386940000000  0.4976490000000 1.0
C      1  0.4849170000000  0.5299930000000  0.4456310000000 1.0
C      1  0.5127840000000  0.4485040000000  0.4768570000000 1.0
C      1  0.4860470000000  0.4754880000000  0.5512810000000 1.0
C      1  0.5136130000000  0.5504560000000  0.5324310000000 1.0
C      1  0.6207930000000  0.5187770000000  0.4635620000000 1.0
C      1  0.3891770000000  0.4645910000000  0.4867410000000 1.0
C      1  0.6021030000000  0.4980510000000  0.5206250000000 1.0
C      1  0.3889730000000  0.5262310000000  0.5037830000000 1.0
C      1  0.4821190000000  0.5347220000000  0.3965260000000 1.0
C      1  0.5245720000000  0.4052360000000  0.4729970000000 1.0
C      1  0.4747170000000  0.4654870000000  0.5966210000000 1.0
C      1  0.5168070000000  0.6091420000000  0.5175040000000 1.0
END
