TITL C-2782234-8014-1058 -6.56841158925746e-08 125000 -14.6776076430479 0 0 4 (D4h) n - 1
REM
REM in /home/nfs/bkarasulu/CARBON/AIRSS/Generating-Clusters/REBO/Higher-Symm/SD-CG/HFTN-CG
REM
REM
REM
REM
REM
REM ./C.cell (12c818d87b63d06a65506943cc24bca4)
REM
REM compiler GCC version 9.2.1 20190827 (Red Hat 9.2.1-1)
REM options -cpp -mtune=generic -march=x86-64 -g -O0 -fpre-include=/usr/include/finclude/math-vector-fortran.h
REM seed -314473925 -1087840567 285163925 -262108957 975729563 744916444 -880095522 157272462 -1169829031 18420809 651778662 1897499069 -1346927870 -1930237271 1837964623 -73445563 -134190092 -544035335 949760395 1503552331 -2128705078 1887250595 -900942040 -1285488017 -509330477 -530995551 85952851 1020378169 -393871905 162781705 -1211051236 -1580002838 2135625969
REM
CELL 1.54180   50.00000   50.00000   50.00000   90.00000   90.00000   90.00000
LATT -1
SFAC C  
C      1  0.4803550000000  0.4945480000000  0.5095910000000 1.0
C      1  0.5095910000000  0.4945480000000  0.5196450000000 1.0
C      1  0.5196450000000  0.4945480000000  0.4904090000000 1.0
C      1  0.4904090000000  0.4945480000000  0.4803550000000 1.0
END
