TITL C-2782232-2968-768 -4.68832434272344e-07 125000 -118.368318097517 0 0 20 (D5h) n - 1
REM
REM in /home/nfs/bkarasulu/CARBON/AIRSS/Generating-Clusters/REBO/Higher-Symm/SD-CG/HFTN-CG
REM
REM
REM
REM
REM
REM ./C.cell (12c818d87b63d06a65506943cc24bca4)
REM
REM compiler GCC version 9.2.1 20190827 (Red Hat 9.2.1-1)
REM options -cpp -mtune=generic -march=x86-64 -g -O0 -fpre-include=/usr/include/finclude/math-vector-fortran.h
REM seed -860078547 1700582513 614953111 -647180675 -1912813754 695715465 55736102 569051047 1568680606 1294720886 1118635613 572094077 -1467201580 -619312389 -523460479 -1474851837 1087773751 540284376 1971977981 1764368488 -1162968759 239645117 -707484768 379724903 670039281 -1719946617 375781204 -589473128 547637591 -587394849 1355375356 -465289705 -842399773
REM
CELL 1.54180   50.00000   50.00000   50.00000   90.00000   90.00000   90.00000
LATT -1
SFAC C  
C      1  0.4751080000000  0.5145560000000  0.5342610000000 1.0
C      1  0.4597240000000  0.5145560000000  0.4869130000000 1.0
C      1  0.5000000000000  0.5145560000000  0.4576510000000 1.0
C      1  0.5402760000000  0.5145560000000  0.4869130000000 1.0
C      1  0.5248920000000  0.5145560000000  0.5342610000000 1.0
C      1  0.5248920000000  0.4854440000000  0.5342610000000 1.0
C      1  0.5402760000000  0.4854440000000  0.4869130000000 1.0
C      1  0.5000000000000  0.4854440000000  0.4576510000000 1.0
C      1  0.4597240000000  0.4854440000000  0.4869130000000 1.0
C      1  0.4751080000000  0.4854440000000  0.5342610000000 1.0
C      1  0.5000000000000  0.5262380000000  0.5423430000000 1.0
C      1  0.4597290000000  0.5262380000000  0.5130850000000 1.0
C      1  0.4751110000000  0.5262380000000  0.4657440000000 1.0
C      1  0.5248890000000  0.5262380000000  0.4657440000000 1.0
C      1  0.5402710000000  0.5262380000000  0.5130850000000 1.0
C      1  0.5000000000000  0.4737620000000  0.5423430000000 1.0
C      1  0.5402710000000  0.4737620000000  0.5130850000000 1.0
C      1  0.5248890000000  0.4737620000000  0.4657440000000 1.0
C      1  0.4751110000000  0.4737620000000  0.4657440000000 1.0
C      1  0.4597290000000  0.4737620000000  0.5130850000000 1.0
END
