TITL C-2782233-7966-239 0.00701065813527146 125000 -619.201112949448 0 0 102 (C1) n - 1
REM
REM in /home/nfs/bkarasulu/CARBON/AIRSS/Generating-Clusters/REBO/Higher-Symm/SD-CG/HFTN-CG
REM
REM
REM
REM
REM
REM ./C.cell (12c818d87b63d06a65506943cc24bca4)
REM
REM compiler GCC version 9.2.1 20190827 (Red Hat 9.2.1-1)
REM options -cpp -mtune=generic -march=x86-64 -g -O0 -fpre-include=/usr/include/finclude/math-vector-fortran.h
REM seed 1333014595 2077389128 1340224825 302864028 697361157 2089984609 -1482214592 1607224086 -1127267593 -874541372 1827974427 431458432 -893010740 -661482571 -41130531 168420849 -375953214 1463856159 1166757928 1852337974 -1545580866 1306149956 976111603 -2134756456 -1700896924 655443576 1805926663 -1270272000 208433416 1658420534 -1258385525 1671117430 163222906
REM
CELL 1.54180   50.00000   50.00000   50.00000   90.00000   90.00000   90.00000
LATT -1
SFAC C  
C      1  0.5354480000000  0.5755510000000  0.4969760000000 1.0
C      1  0.4688210000000  0.4297790000000  0.4933780000000 1.0
C      1  0.5386040000000  0.4239170000000  0.5061230000000 1.0
C      1  0.4679160000000  0.5797070000000  0.5020700000000 1.0
C      1  0.5742390000000  0.5308690000000  0.4939280000000 1.0
C      1  0.4154320000000  0.4663940000000  0.4817920000000 1.0
C      1  0.4203550000000  0.5404700000000  0.5073640000000 1.0
C      1  0.5733700000000  0.4688380000000  0.5079350000000 1.0
C      1  0.5486720000000  0.5315630000000  0.5569220000000 1.0
C      1  0.4653410000000  0.4820720000000  0.5380560000000 1.0
C      1  0.5519980000000  0.4689650000000  0.4412210000000 1.0
C      1  0.4483600000000  0.5220040000000  0.4570850000000 1.0
C      1  0.5283570000000  0.5526790000000  0.5531530000000 1.0
C      1  0.4846490000000  0.4583920000000  0.5337870000000 1.0
C      1  0.4663310000000  0.5487460000000  0.4620240000000 1.0
C      1  0.5307340000000  0.4486740000000  0.4397810000000 1.0
C      1  0.4692370000000  0.5509910000000  0.5608850000000 1.0
C      1  0.5258830000000  0.4480210000000  0.5738760000000 1.0
C      1  0.4665240000000  0.4488160000000  0.4315570000000 1.0
C      1  0.5162280000000  0.5489800000000  0.4379320000000 1.0
C      1  0.5462560000000  0.4680930000000  0.5686570000000 1.0
C      1  0.4459230000000  0.5276570000000  0.5637790000000 1.0
C      1  0.4441800000000  0.4685910000000  0.4277200000000 1.0
C      1  0.5407710000000  0.5299560000000  0.4369040000000 1.0
C      1  0.5722560000000  0.4923660000000  0.5399410000000 1.0
C      1  0.4263150000000  0.5141980000000  0.5407820000000 1.0
C      1  0.5708230000000  0.5066770000000  0.4625300000000 1.0
C      1  0.4294060000000  0.4869790000000  0.4594760000000 1.0
C      1  0.4922740000000  0.5665140000000  0.5430380000000 1.0
C      1  0.5251370000000  0.4261840000000  0.5534270000000 1.0
C      1  0.5067310000000  0.5756970000000  0.4536760000000 1.0
C      1  0.4946630000000  0.4232750000000  0.4637460000000 1.0
C      1  0.4181920000000  0.5162400000000  0.4663290000000 1.0
C      1  0.5949220000000  0.4957440000000  0.4696690000000 1.0
C      1  0.4053420000000  0.4916350000000  0.5311280000000 1.0
C      1  0.5960160000000  0.5037400000000  0.5323570000000 1.0
C      1  0.5038620000000  0.4001280000000  0.4749970000000 1.0
C      1  0.4953200000000  0.5969120000000  0.4650560000000 1.0
C      1  0.5009900000000  0.4079520000000  0.5376900000000 1.0
C      1  0.5093800000000  0.5916520000000  0.5363150000000 1.0
C      1  0.4433430000000  0.4969960000000  0.5203060000000 1.0
C      1  0.5491420000000  0.5103910000000  0.5342080000000 1.0
C      1  0.4594870000000  0.4950360000000  0.4725500000000 1.0
C      1  0.5487140000000  0.4866970000000  0.4655060000000 1.0
C      1  0.5086110000000  0.4389700000000  0.5276930000000 1.0
C      1  0.5098410000000  0.5455490000000  0.5279200000000 1.0
C      1  0.5148560000000  0.4453140000000  0.4654420000000 1.0
C      1  0.4984140000000  0.5451570000000  0.4659720000000 1.0
C      1  0.5967920000000  0.5156630000000  0.5041830000000 1.0
C      1  0.4051500000000  0.4905360000000  0.5035540000000 1.0
C      1  0.5961550000000  0.4837660000000  0.4977890000000 1.0
C      1  0.4104330000000  0.5172060000000  0.4934770000000 1.0
C      1  0.5149070000000  0.5940570000000  0.5081210000000 1.0
C      1  0.4859080000000  0.4124480000000  0.5084540000000 1.0
C      1  0.4903880000000  0.5954110000000  0.4929220000000 1.0
C      1  0.5177250000000  0.4035770000000  0.5018890000000 1.0
C      1  0.5543340000000  0.5329060000000  0.5134240000000 1.0
C      1  0.4429430000000  0.4775790000000  0.4958420000000 1.0
C      1  0.5528040000000  0.4672010000000  0.4889530000000 1.0
C      1  0.4262060000000  0.5614970000000  0.4888650000000 1.0
C      1  0.5362470000000  0.5532300000000  0.5140490000000 1.0
C      1  0.4590740000000  0.4523580000000  0.5060760000000 1.0
C      1  0.4527880000000  0.5673710000000  0.4816240000000 1.0
C      1  0.5366770000000  0.4450720000000  0.4879720000000 1.0
C      1  0.5317330000000  0.5085630000000  0.4171670000000 1.0
C      1  0.4546310000000  0.4928270000000  0.4165270000000 1.0
C      1  0.5383510000000  0.4919400000000  0.5841570000000 1.0
C      1  0.4580400000000  0.5052930000000  0.5810660000000 1.0
C      1  0.4948130000000  0.5387110000000  0.4185610000000 1.0
C      1  0.4889580000000  0.4586980000000  0.4164900000000 1.0
C      1  0.4908790000000  0.5382380000000  0.5831110000000 1.0
C      1  0.5014240000000  0.4599280000000  0.5821560000000 1.0
C      1  0.4686810000000  0.5412930000000  0.4288890000000 1.0
C      1  0.5165010000000  0.4538610000000  0.4141610000000 1.0
C      1  0.4782960000000  0.4573400000000  0.5662970000000 1.0
C      1  0.5188400000000  0.5424990000000  0.5809190000000 1.0
C      1  0.5379190000000  0.4800680000000  0.4161960000000 1.0
C      1  0.4489780000000  0.5184620000000  0.4253240000000 1.0
C      1  0.4577550000000  0.4803210000000  0.5687250000000 1.0
C      1  0.5441610000000  0.5200010000000  0.5842510000000 1.0
C      1  0.5037090000000  0.5189830000000  0.5155160000000 1.0
C      1  0.5115810000000  0.4690860000000  0.5154820000000 1.0
C      1  0.5068160000000  0.4715260000000  0.4851790000000 1.0
C      1  0.5069040000000  0.5216820000000  0.4818800000000 1.0
C      1  0.5214120000000  0.4964430000000  0.5294700000000 1.0
C      1  0.4750340000000  0.5058510000000  0.5175290000000 1.0
C      1  0.4851970000000  0.4972110000000  0.4877160000000 1.0
C      1  0.5181630000000  0.4953590000000  0.4654300000000 1.0
C      1  0.5477640000000  0.4323150000000  0.5320860000000 1.0
C      1  0.4623070000000  0.5669970000000  0.5307470000000 1.0
C      1  0.5498260000000  0.5682590000000  0.4727780000000 1.0
C      1  0.4640650000000  0.4336800000000  0.4608020000000 1.0
C      1  0.4383060000000  0.5451960000000  0.5351860000000 1.0
C      1  0.5627710000000  0.4610620000000  0.5395280000000 1.0
C      1  0.5611850000000  0.5377260000000  0.4630270000000 1.0
C      1  0.4366600000000  0.4537490000000  0.4576120000000 1.0
C      1  0.5054880000000  0.4907570000000  0.5894690000000 1.0
C      1  0.5043310000000  0.5143330000000  0.4077220000000 1.0
C      1  0.4833270000000  0.5123560000000  0.5916070000000 1.0
C      1  0.4846090000000  0.4895250000000  0.4122190000000 1.0
C      1  0.5039450000000  0.4915100000000  0.4402960000000 1.0
C      1  0.5104450000000  0.4887430000000  0.5559350000000 1.0
END
