TITL C-2782239-8622-620 0.0128580974692435 125000 -848.868020330182 0 0 155 (C1) n - 1
REM
REM in /home/nfs/bkarasulu/CARBON/AIRSS/Generating-Clusters/REBO/Higher-Symm/SD-CG/HFTN-CG
REM
REM
REM
REM
REM
REM ./C.cell (12c818d87b63d06a65506943cc24bca4)
REM
REM compiler GCC version 9.2.1 20190827 (Red Hat 9.2.1-1)
REM options -cpp -mtune=generic -march=x86-64 -g -O0 -fpre-include=/usr/include/finclude/math-vector-fortran.h
REM seed -1185613245 1716952189 869361970 -400019055 -317608902 610097304 2075707813 1071256624 -1634441390 -1059020107 -1578663746 1674523784 479293478 483878646 -369340084 -1925711860 -701013434 488538583 2001475656 2078189448 -1840969323 1920489921 -719019252 429557187 1515477515 1426045580 -1598327777 -88404197 -1290297492 -477133108 -1597371708 -231762213 1309027177
REM
CELL 1.54180   50.00000   50.00000   50.00000   90.00000   90.00000   90.00000
LATT -1
SFAC C  
C      1  0.4993220000000  0.5511230000000  0.4186100000000 1.0
C      1  0.5511870000000  0.4245530000000  0.4975780000000 1.0
C      1  0.4171540000000  0.4989560000000  0.5526820000000 1.0
C      1  0.4993700000000  0.4472990000000  0.5777710000000 1.0
C      1  0.5017210000000  0.5569940000000  0.5892460000000 1.0
C      1  0.4968150000000  0.4366350000000  0.4212050000000 1.0
C      1  0.5577100000000  0.5775550000000  0.5070630000000 1.0
C      1  0.4386720000000  0.4145310000000  0.5010500000000 1.0
C      1  0.4498590000000  0.5792910000000  0.5005030000000 1.0
C      1  0.4156730000000  0.4986010000000  0.4420730000000 1.0
C      1  0.5805250000000  0.5020340000000  0.4485530000000 1.0
C      1  0.5848610000000  0.5038980000000  0.5609720000000 1.0
C      1  0.3929880000000  0.4668350000000  0.4799410000000 1.0
C      1  0.4690670000000  0.4743910000000  0.4038220000000 1.0
C      1  0.4715150000000  0.4034200000000  0.4699320000000 1.0
C      1  0.4122440000000  0.5249650000000  0.5190240000000 1.0
C      1  0.5982960000000  0.4747330000000  0.5267520000000 1.0
C      1  0.5954120000000  0.5318430000000  0.4825630000000 1.0
C      1  0.4698410000000  0.5236860000000  0.5966580000000 1.0
C      1  0.5270060000000  0.4804180000000  0.5900590000000 1.0
C      1  0.5275540000000  0.5196360000000  0.4116790000000 1.0
C      1  0.4884940000000  0.5945000000000  0.5302420000000 1.0
C      1  0.5192830000000  0.4105860000000  0.5248100000000 1.0
C      1  0.5208060000000  0.5937410000000  0.4690910000000 1.0
C      1  0.5713950000000  0.4780070000000  0.5560530000000 1.0
C      1  0.4731320000000  0.5545230000000  0.5715730000000 1.0
C      1  0.5549640000000  0.5736860000000  0.4729250000000 1.0
C      1  0.5683310000000  0.5284300000000  0.4478210000000 1.0
C      1  0.4305150000000  0.4737280000000  0.4445190000000 1.0
C      1  0.4303260000000  0.5271130000000  0.5546150000000 1.0
C      1  0.4650190000000  0.4430360000000  0.4282600000000 1.0
C      1  0.5275130000000  0.5549520000000  0.4304590000000 1.0
C      1  0.5281470000000  0.4474310000000  0.5677830000000 1.0
C      1  0.5557670000000  0.4375950000000  0.5258060000000 1.0
C      1  0.4497760000000  0.5644060000000  0.5251100000000 1.0
C      1  0.4408070000000  0.4307340000000  0.4722630000000 1.0
C      1  0.4180530000000  0.4896100000000  0.4808100000000 1.0
C      1  0.4948090000000  0.4780690000000  0.4218230000000 1.0
C      1  0.4770420000000  0.4231960000000  0.4939160000000 1.0
C      1  0.4242160000000  0.4974980000000  0.5128770000000 1.0
C      1  0.5790810000000  0.4994530000000  0.5216760000000 1.0
C      1  0.5781540000000  0.5058540000000  0.4882070000000 1.0
C      1  0.4942800000000  0.5196420000000  0.5772210000000 1.0
C      1  0.5007410000000  0.4870090000000  0.5740650000000 1.0
C      1  0.5008390000000  0.5119660000000  0.4253170000000 1.0
C      1  0.4888240000000  0.5717250000000  0.5048310000000 1.0
C      1  0.5113800000000  0.4250400000000  0.4982750000000 1.0
C      1  0.5205110000000  0.5734590000000  0.4931570000000 1.0
C      1  0.4519600000000  0.4518290000000  0.4965470000000 1.0
C      1  0.4614900000000  0.4823570000000  0.4534670000000 1.0
C      1  0.4840380000000  0.4564540000000  0.4533720000000 1.0
C      1  0.4532240000000  0.5323740000000  0.5169410000000 1.0
C      1  0.5453930000000  0.4628020000000  0.5064650000000 1.0
C      1  0.5453290000000  0.5447810000000  0.4885780000000 1.0
C      1  0.4540580000000  0.5081450000000  0.5407180000000 1.0
C      1  0.5438240000000  0.4864370000000  0.5405310000000 1.0
C      1  0.5363010000000  0.5240740000000  0.4578570000000 1.0
C      1  0.4964390000000  0.5456690000000  0.5480900000000 1.0
C      1  0.5239230000000  0.4619160000000  0.5377370000000 1.0
C      1  0.5087890000000  0.5440440000000  0.4567490000000 1.0
C      1  0.4511640000000  0.4918360000000  0.4839250000000 1.0
C      1  0.5011580000000  0.4848560000000  0.4542570000000 1.0
C      1  0.4858840000000  0.4552410000000  0.4954480000000 1.0
C      1  0.4554470000000  0.4874120000000  0.5165720000000 1.0
C      1  0.5464200000000  0.5004330000000  0.5117860000000 1.0
C      1  0.5472970000000  0.5006470000000  0.4790070000000 1.0
C      1  0.5009130000000  0.5134930000000  0.5441800000000 1.0
C      1  0.4980130000000  0.4804830000000  0.5431420000000 1.0
C      1  0.4918620000000  0.5162650000000  0.4575100000000 1.0
C      1  0.4803410000000  0.5409590000000  0.4998600000000 1.0
C      1  0.5188700000000  0.4562200000000  0.4906700000000 1.0
C      1  0.5132780000000  0.5407070000000  0.4992480000000 1.0
C      1  0.4959100000000  0.4418560000000  0.5334500000000 1.0
C      1  0.4378820000000  0.5294200000000  0.4859040000000 1.0
C      1  0.5379560000000  0.4942860000000  0.4406420000000 1.0
C      1  0.4887390000000  0.5702940000000  0.4648760000000 1.0
C      1  0.5081960000000  0.4328580000000  0.4593500000000 1.0
C      1  0.5262480000000  0.5598040000000  0.5432250000000 1.0
C      1  0.4283010000000  0.4581530000000  0.5178920000000 1.0
C      1  0.5639160000000  0.5392750000000  0.5164730000000 1.0
C      1  0.5713920000000  0.4666160000000  0.4852730000000 1.0
C      1  0.5420480000000  0.5119540000000  0.5620870000000 1.0
C      1  0.4615450000000  0.4873490000000  0.5665610000000 1.0
C      1  0.4619030000000  0.5090750000000  0.4321560000000 1.0
C      1  0.5051750000000  0.4023060000000  0.4748750000000 1.0
C      1  0.3990040000000  0.4750340000000  0.5126310000000 1.0
C      1  0.4772710000000  0.5073850000000  0.4013910000000 1.0
C      1  0.5212860000000  0.5867700000000  0.5230900000000 1.0
C      1  0.4846720000000  0.4106110000000  0.5240590000000 1.0
C      1  0.4910400000000  0.5987310000000  0.4840330000000 1.0
C      1  0.4045290000000  0.5202640000000  0.4851950000000 1.0
C      1  0.6009070000000  0.4815350000000  0.4934590000000 1.0
C      1  0.5956900000000  0.5277830000000  0.5166110000000 1.0
C      1  0.4765090000000  0.4901940000000  0.5973260000000 1.0
C      1  0.5238450000000  0.5147990000000  0.5909600000000 1.0
C      1  0.5255410000000  0.4849460000000  0.4098110000000 1.0
C      1  0.4540710000000  0.4187690000000  0.4468430000000 1.0
C      1  0.4191280000000  0.4536100000000  0.4634440000000 1.0
C      1  0.4420300000000  0.4604360000000  0.4175030000000 1.0
C      1  0.4682610000000  0.5739910000000  0.5457130000000 1.0
C      1  0.5376570000000  0.4254110000000  0.5464700000000 1.0
C      1  0.5388340000000  0.5813670000000  0.4451080000000 1.0
C      1  0.4226510000000  0.5508580000000  0.5356890000000 1.0
C      1  0.5810530000000  0.4503390000000  0.5402830000000 1.0
C      1  0.5797600000000  0.5528950000000  0.4632440000000 1.0
C      1  0.4460250000000  0.5395380000000  0.5798000000000 1.0
C      1  0.5534910000000  0.4633620000000  0.5802570000000 1.0
C      1  0.5521530000000  0.5384630000000  0.4217860000000 1.0
C      1  0.5402900000000  0.4287970000000  0.4709520000000 1.0
C      1  0.4214160000000  0.4713230000000  0.5485230000000 1.0
C      1  0.4732350000000  0.5408960000000  0.4261040000000 1.0
C      1  0.5592470000000  0.5800850000000  0.5334760000000 1.0
C      1  0.4385520000000  0.4195310000000  0.5275200000000 1.0
C      1  0.4559920000000  0.5725380000000  0.4739520000000 1.0
C      1  0.4219120000000  0.5245910000000  0.4518530000000 1.0
C      1  0.5710620000000  0.4756720000000  0.4531930000000 1.0
C      1  0.5768990000000  0.5311970000000  0.5622170000000 1.0
C      1  0.4726990000000  0.4553730000000  0.5705950000000 1.0
C      1  0.5269680000000  0.5648460000000  0.5836730000000 1.0
C      1  0.5222110000000  0.4490700000000  0.4223720000000 1.0
C      1  0.5425090000000  0.4283230000000  0.4369520000000 1.0
C      1  0.4210510000000  0.4369770000000  0.5505390000000 1.0
C      1  0.4391480000000  0.5414720000000  0.4289000000000 1.0
C      1  0.5487750000000  0.5838070000000  0.5656760000000 1.0
C      1  0.4548680000000  0.4309250000000  0.5550310000000 1.0
C      1  0.4575910000000  0.5670600000000  0.4404300000000 1.0
C      1  0.4302830000000  0.5569790000000  0.4580790000000 1.0
C      1  0.5670220000000  0.4420540000000  0.4545140000000 1.0
C      1  0.5766990000000  0.5650430000000  0.5577540000000 1.0
C      1  0.4387150000000  0.4554830000000  0.5727720000000 1.0
C      1  0.5563410000000  0.5514750000000  0.5814780000000 1.0
C      1  0.5541730000000  0.4596590000000  0.4281410000000 1.0
C      1  0.5008360000000  0.5786570000000  0.5560130000000 1.0
C      1  0.5833080000000  0.5596490000000  0.4964560000000 1.0
C      1  0.5571280000000  0.4963590000000  0.5884360000000 1.0
C      1  0.4872100000000  0.4125850000000  0.4410430000000 1.0
C      1  0.5052670000000  0.5865350000000  0.4399090000000 1.0
C      1  0.5054890000000  0.4171640000000  0.5552550000000 1.0
C      1  0.5894010000000  0.4478140000000  0.5072730000000 1.0
C      1  0.4193560000000  0.5534830000000  0.5017060000000 1.0
C      1  0.4107450000000  0.4422440000000  0.4946910000000 1.0
C      1  0.5585770000000  0.5055410000000  0.4156690000000 1.0
C      1  0.4412000000000  0.4936390000000  0.4109800000000 1.0
C      1  0.4420810000000  0.5063260000000  0.5865640000000 1.0
C      1  0.5021300000000  0.5022200000000  0.6121220000000 1.0
C      1  0.5043600000000  0.4973320000000  0.3882850000000 1.0
C      1  0.4951810000000  0.3886770000000  0.5019950000000 1.0
C      1  0.6151890000000  0.5060640000000  0.5058270000000 1.0
C      1  0.5126560000000  0.6111430000000  0.5038440000000 1.0
C      1  0.3856820000000  0.5009580000000  0.5012830000000 1.0
C      1  0.4768430000000  0.4683490000000  0.5231510000000 1.0
C      1  0.4692490000000  0.5198370000000  0.4771390000000 1.0
C      1  0.5278730000000  0.4770620000000  0.4683490000000 1.0
C      1  0.5489010000000  0.5398930000000  0.5439430000000 1.0
C      1  0.5213040000000  0.5185400000000  0.5199370000000 1.0
END
