TITL C-2782230-7391-225 -0.00377015601482637 125000 -1069.00791447861 0 0 186 (C1) n - 1
REM
REM in /home/nfs/bkarasulu/CARBON/AIRSS/Generating-Clusters/REBO/Higher-Symm/SD-CG/HFTN-CG
REM
REM
REM
REM
REM
REM ./C.cell (12c818d87b63d06a65506943cc24bca4)
REM
REM compiler GCC version 9.2.1 20190827 (Red Hat 9.2.1-1)
REM options -cpp -mtune=generic -march=x86-64 -g -O0 -fpre-include=/usr/include/finclude/math-vector-fortran.h
REM seed -980432477 -1372365807 -707269257 -886718121 -760282771 1182305677 268686743 -688812003 1703209099 -1223425237 90864010 -642967414 -967202878 -1076774193 903922972 1530429321 -303688291 537371987 -993042728 1539656317 730255237 -411080534 -782824102 502677778 -618421306 1856149726 1879730662 1460660273 -1693609531 -429905973 -1035485802 1518687806 -1147810549
REM
CELL 1.54180   50.00000   50.00000   50.00000   90.00000   90.00000   90.00000
LATT -1
SFAC C  
C      1  0.5021650000000  0.4766480000000  0.5265330000000 1.0
C      1  0.4744760000000  0.4758640000000  0.5150350000000 1.0
C      1  0.4783450000000  0.4754050000000  0.4847360000000 1.0
C      1  0.5076940000000  0.4774330000000  0.4769700000000 1.0
C      1  0.5224560000000  0.4799370000000  0.5035130000000 1.0
C      1  0.4260450000000  0.4750210000000  0.5123690000000 1.0
C      1  0.4537590000000  0.4802530000000  0.4351650000000 1.0
C      1  0.5526810000000  0.4796800000000  0.4493740000000 1.0
C      1  0.5677560000000  0.4933780000000  0.5340150000000 1.0
C      1  0.4857350000000  0.4782560000000  0.5717100000000 1.0
C      1  0.5172430000000  0.4290600000000  0.4823040000000 1.0
C      1  0.5250250000000  0.4328050000000  0.5114530000000 1.0
C      1  0.4960590000000  0.4288660000000  0.5242320000000 1.0
C      1  0.4731010000000  0.4283860000000  0.5042750000000 1.0
C      1  0.4870850000000  0.4292820000000  0.4770280000000 1.0
C      1  0.4560550000000  0.5033630000000  0.5852430000000 1.0
C      1  0.4042070000000  0.5017720000000  0.4838020000000 1.0
C      1  0.4881340000000  0.5034000000000  0.4050170000000 1.0
C      1  0.5858690000000  0.5017390000000  0.4494360000000 1.0
C      1  0.5646560000000  0.4959610000000  0.5846030000000 1.0
C      1  0.5364380000000  0.5714550000000  0.5831400000000 1.0
C      1  0.4406210000000  0.5770560000000  0.5655520000000 1.0
C      1  0.4174780000000  0.5687510000000  0.4631500000000 1.0
C      1  0.5081060000000  0.5737160000000  0.4085320000000 1.0
C      1  0.5947770000000  0.5683510000000  0.4705390000000 1.0
C      1  0.5588180000000  0.5157160000000  0.3950560000000 1.0
C      1  0.6047340000000  0.5084990000000  0.5350620000000 1.0
C      1  0.5031510000000  0.5273720000000  0.6074410000000 1.0
C      1  0.4048250000000  0.5257370000000  0.5399710000000 1.0
C      1  0.4397610000000  0.5108050000000  0.4135460000000 1.0
C      1  0.5312090000000  0.4247670000000  0.5627500000000 1.0
C      1  0.4478320000000  0.4129730000000  0.5508080000000 1.0
C      1  0.4346660000000  0.4175220000000  0.4662250000000 1.0
C      1  0.5114150000000  0.4199460000000  0.4281300000000 1.0
C      1  0.5732260000000  0.4186850000000  0.4883670000000 1.0
C      1  0.5368370000000  0.5780090000000  0.4262920000000 1.0
C      1  0.5858720000000  0.5764120000000  0.5026400000000 1.0
C      1  0.5082940000000  0.5705260000000  0.5826980000000 1.0
C      1  0.4301140000000  0.5688240000000  0.5341060000000 1.0
C      1  0.4478150000000  0.5619580000000  0.4483530000000 1.0
C      1  0.4208460000000  0.4333230000000  0.4426540000000 1.0
C      1  0.5292460000000  0.4333650000000  0.4059030000000 1.0
C      1  0.5964120000000  0.4365520000000  0.5019900000000 1.0
C      1  0.5269610000000  0.4397140000000  0.5914510000000 1.0
C      1  0.4237780000000  0.4301350000000  0.5565730000000 1.0
C      1  0.3955180000000  0.5112910000000  0.4521530000000 1.0
C      1  0.5092000000000  0.5101500000000  0.3817740000000 1.0
C      1  0.6091490000000  0.5140550000000  0.4710380000000 1.0
C      1  0.5476410000000  0.5037640000000  0.6128140000000 1.0
C      1  0.4277360000000  0.5018340000000  0.5775030000000 1.0
C      1  0.5613420000000  0.4694860000000  0.4795940000000 1.0
C      1  0.5340660000000  0.4622390000000  0.5494420000000 1.0
C      1  0.4631110000000  0.4660470000000  0.5520920000000 1.0
C      1  0.4393740000000  0.4627240000000  0.4853960000000 1.0
C      1  0.4984070000000  0.4640810000000  0.4391330000000 1.0
C      1  0.5042170000000  0.4546650000000  0.4087680000000 1.0
C      1  0.5886230000000  0.4528880000000  0.4736330000000 1.0
C      1  0.5524740000000  0.4560340000000  0.5755360000000 1.0
C      1  0.4370310000000  0.4553400000000  0.5684030000000 1.0
C      1  0.4140380000000  0.4527010000000  0.4675960000000 1.0
C      1  0.4250940000000  0.4225800000000  0.4984760000000 1.0
C      1  0.4784210000000  0.4281920000000  0.4283020000000 1.0
C      1  0.5623120000000  0.4243520000000  0.4569780000000 1.0
C      1  0.5536850000000  0.4359310000000  0.5391180000000 1.0
C      1  0.4737680000000  0.4235570000000  0.5701580000000 1.0
C      1  0.5123370000000  0.5478010000000  0.4779280000000 1.0
C      1  0.5209840000000  0.5459830000000  0.5045450000000 1.0
C      1  0.4991740000000  0.5448780000000  0.5219570000000 1.0
C      1  0.4762220000000  0.5517300000000  0.5067210000000 1.0
C      1  0.4838570000000  0.5494700000000  0.4784680000000 1.0
C      1  0.4333050000000  0.4990690000000  0.5311560000000 1.0
C      1  0.4430370000000  0.4983390000000  0.4512850000000 1.0
C      1  0.5320270000000  0.4980700000000  0.4354300000000 1.0
C      1  0.5734600000000  0.5107910000000  0.5108830000000 1.0
C      1  0.5078900000000  0.5013050000000  0.5701150000000 1.0
C      1  0.4888360000000  0.5522990000000  0.5962540000000 1.0
C      1  0.4107290000000  0.5491140000000  0.5219370000000 1.0
C      1  0.4539960000000  0.5412850000000  0.4218020000000 1.0
C      1  0.5587120000000  0.5599490000000  0.4204670000000 1.0
C      1  0.5962540000000  0.5623680000000  0.5275580000000 1.0
C      1  0.4949210000000  0.4402190000000  0.5994600000000 1.0
C      1  0.4034510000000  0.4331490000000  0.5298490000000 1.0
C      1  0.4416600000000  0.4399930000000  0.4193690000000 1.0
C      1  0.5545470000000  0.4394360000000  0.4208610000000 1.0
C      1  0.5906080000000  0.4468390000000  0.5291340000000 1.0
C      1  0.5333470000000  0.5282590000000  0.6120860000000 1.0
C      1  0.4152510000000  0.5255740000000  0.5679370000000 1.0
C      1  0.4316780000000  0.5261580000000  0.4428420000000 1.0
C      1  0.5481840000000  0.5395990000000  0.4026410000000 1.0
C      1  0.6039580000000  0.5363930000000  0.5189010000000 1.0
C      1  0.4653390000000  0.4509920000000  0.4724400000000 1.0
C      1  0.5164560000000  0.4512820000000  0.4613710000000 1.0
C      1  0.5435040000000  0.4579950000000  0.5040160000000 1.0
C      1  0.5069530000000  0.4510070000000  0.5418190000000 1.0
C      1  0.4618980000000  0.4494150000000  0.5250000000000 1.0
C      1  0.5311420000000  0.5879430000000  0.5110120000000 1.0
C      1  0.5041220000000  0.5879560000000  0.5270060000000 1.0
C      1  0.4797170000000  0.5915550000000  0.5064970000000 1.0
C      1  0.4922920000000  0.5925220000000  0.4773960000000 1.0
C      1  0.5216900000000  0.5925970000000  0.4812770000000 1.0
C      1  0.4869360000000  0.5219260000000  0.4335070000000 1.0
C      1  0.5597000000000  0.5213200000000  0.4572870000000 1.0
C      1  0.5537390000000  0.5109640000000  0.5580000000000 1.0
C      1  0.4746860000000  0.5223880000000  0.5640640000000 1.0
C      1  0.4307400000000  0.5200390000000  0.4952480000000 1.0
C      1  0.5429230000000  0.4506720000000  0.4496400000000 1.0
C      1  0.5650440000000  0.4652360000000  0.5250530000000 1.0
C      1  0.4956050000000  0.4488900000000  0.5676770000000 1.0
C      1  0.4331020000000  0.4462960000000  0.5212720000000 1.0
C      1  0.4609260000000  0.4521470000000  0.4443840000000 1.0
C      1  0.5534500000000  0.6039220000000  0.4819640000000 1.0
C      1  0.5408030000000  0.5977290000000  0.5394550000000 1.0
C      1  0.4812990000000  0.6021320000000  0.5448500000000 1.0
C      1  0.4551140000000  0.6017250000000  0.4882190000000 1.0
C      1  0.4887530000000  0.6073360000000  0.4469290000000 1.0
C      1  0.4006550000000  0.4470290000000  0.4985470000000 1.0
C      1  0.4702280000000  0.4534470000000  0.4059440000000 1.0
C      1  0.5814970000000  0.4474970000000  0.4406660000000 1.0
C      1  0.5826660000000  0.4589430000000  0.5600150000000 1.0
C      1  0.4630260000000  0.4497860000000  0.5900500000000 1.0
C      1  0.5059560000000  0.5331810000000  0.5540710000000 1.0
C      1  0.4452510000000  0.5291670000000  0.5247750000000 1.0
C      1  0.4696250000000  0.5298780000000  0.4575930000000 1.0
C      1  0.5303600000000  0.5323680000000  0.4557700000000 1.0
C      1  0.5519230000000  0.5372140000000  0.5079230000000 1.0
C      1  0.5015150000000  0.4936640000000  0.4410380000000 1.0
C      1  0.5602170000000  0.5009950000000  0.4823020000000 1.0
C      1  0.5310220000000  0.4916580000000  0.5497440000000 1.0
C      1  0.4619300000000  0.4974870000000  0.5462430000000 1.0
C      1  0.4430920000000  0.4937780000000  0.4816520000000 1.0
C      1  0.5054630000000  0.4936350000000  0.6025830000000 1.0
C      1  0.4004720000000  0.4921870000000  0.5374510000000 1.0
C      1  0.4118770000000  0.4959040000000  0.4265120000000 1.0
C      1  0.5497920000000  0.4893530000000  0.4093700000000 1.0
C      1  0.6030100000000  0.5006140000000  0.5018400000000 1.0
C      1  0.4080260000000  0.5524080000000  0.4921890000000 1.0
C      1  0.4828900000000  0.5503750000000  0.4062720000000 1.0
C      1  0.5820200000000  0.5625760000000  0.4392560000000 1.0
C      1  0.5883930000000  0.5700600000000  0.5525580000000 1.0
C      1  0.4618450000000  0.5591610000000  0.5868050000000 1.0
C      1  0.5356200000000  0.4791610000000  0.5944390000000 1.0
C      1  0.4182360000000  0.4792430000000  0.5634700000000 1.0
C      1  0.4076220000000  0.4806640000000  0.4569780000000 1.0
C      1  0.5169290000000  0.4845350000000  0.4013420000000 1.0
C      1  0.5988610000000  0.4821910000000  0.4742000000000 1.0
C      1  0.5162580000000  0.5418160000000  0.4018020000000 1.0
C      1  0.5989120000000  0.5387060000000  0.4871650000000 1.0
C      1  0.5460080000000  0.5460850000000  0.5944890000000 1.0
C      1  0.4322800000000  0.5474550000000  0.5747080000000 1.0
C      1  0.4080960000000  0.5382640000000  0.4610140000000 1.0
C      1  0.5391730000000  0.5379950000000  0.5617830000000 1.0
C      1  0.4559710000000  0.5435770000000  0.5505050000000 1.0
C      1  0.4444590000000  0.5428150000000  0.4767040000000 1.0
C      1  0.5095770000000  0.5441580000000  0.4350500000000 1.0
C      1  0.5661800000000  0.5428110000000  0.4797680000000 1.0
C      1  0.4459810000000  0.4034220000000  0.5181620000000 1.0
C      1  0.4644000000000  0.4080860000000  0.4525400000000 1.0
C      1  0.5324590000000  0.4080270000000  0.4525410000000 1.0
C      1  0.5564800000000  0.4100710000000  0.5167000000000 1.0
C      1  0.5018260000000  0.4082040000000  0.5573620000000 1.0
C      1  0.4528240000000  0.5716600000000  0.5140670000000 1.0
C      1  0.4699410000000  0.5800030000000  0.4544970000000 1.0
C      1  0.5378290000000  0.5868990000000  0.4532390000000 1.0
C      1  0.5574890000000  0.5678580000000  0.5194530000000 1.0
C      1  0.4997180000000  0.5679740000000  0.5539530000000 1.0
C      1  0.4739280000000  0.4803080000000  0.6012900000000 1.0
C      1  0.3944200000000  0.4796470000000  0.5064290000000 1.0
C      1  0.4622390000000  0.4866720000000  0.4051260000000 1.0
C      1  0.5767190000000  0.4785550000000  0.4273880000000 1.0
C      1  0.5888090000000  0.4924180000000  0.5605740000000 1.0
C      1  0.4396980000000  0.5756720000000  0.4849310000000 1.0
C      1  0.4994630000000  0.5754740000000  0.4401090000000 1.0
C      1  0.5615330000000  0.5736170000000  0.4715190000000 1.0
C      1  0.5502230000000  0.5690940000000  0.5528970000000 1.0
C      1  0.4688510000000  0.5740270000000  0.5504600000000 1.0
C      1  0.4577800000000  0.4040180000000  0.4860860000000 1.0
C      1  0.4983290000000  0.4067540000000  0.4552250000000 1.0
C      1  0.5414630000000  0.4070260000000  0.4857800000000 1.0
C      1  0.5273980000000  0.4069730000000  0.5343350000000 1.0
C      1  0.4757570000000  0.4040400000000  0.5356060000000 1.0
C      1  0.5119470000000  0.5092430000000  0.4674790000000 1.0
C      1  0.5344570000000  0.5085650000000  0.5004100000000 1.0
C      1  0.5097860000000  0.5076110000000  0.5312060000000 1.0
C      1  0.4691090000000  0.5080810000000  0.5158260000000 1.0
C      1  0.4731060000000  0.5058410000000  0.4763580000000 1.0
C      1  0.4990410000000  0.5120250000000  0.4991640000000 1.0
END
