TITL C-2782233-7966-743 0.00360612655458041 125000 -253.892219421326 0 0 45 (C5) n - 1
REM
REM in /home/nfs/bkarasulu/CARBON/AIRSS/Generating-Clusters/REBO/Higher-Symm/SD-CG/HFTN-CG
REM
REM
REM
REM
REM
REM ./C.cell (12c818d87b63d06a65506943cc24bca4)
REM
REM compiler GCC version 9.2.1 20190827 (Red Hat 9.2.1-1)
REM options -cpp -mtune=generic -march=x86-64 -g -O0 -fpre-include=/usr/include/finclude/math-vector-fortran.h
REM seed -645443439 -273256613 1218957933 960208260 -1949918332 1444303846 -1469931149 2036048611 -300684788 855047368 1688316644 1731842909 -2015683915 85370674 462974141 1293241108 1261917100 740083660 -71193285 906381640 1778540713 -2089865802 1567270163 -559810551 -1739126997 -1272576694 913480028 -1285369162 1077654070 722134328 364487077 1098853967 -387356274
REM
CELL 1.54180   50.00000   50.00000   50.00000   90.00000   90.00000   90.00000
LATT -1
SFAC C  
C      1  0.4792950000000  0.5192980000000  0.5629270000000 1.0
C      1  0.5533860000000  0.5197570000000  0.5390010000000 1.0
C      1  0.5535280000000  0.5196510000000  0.4611410000000 1.0
C      1  0.4795240000000  0.5191270000000  0.4369470000000 1.0
C      1  0.4336450000000  0.5189080000000  0.4998540000000 1.0
C      1  0.4800730000000  0.4821200000000  0.4384930000000 1.0
C      1  0.5524450000000  0.4826320000000  0.4619430000000 1.0
C      1  0.5525070000000  0.4827370000000  0.5380210000000 1.0
C      1  0.4801740000000  0.4822890000000  0.5615900000000 1.0
C      1  0.4354070000000  0.4819080000000  0.5000790000000 1.0
C      1  0.5075520000000  0.5002310000000  0.4328910000000 1.0
C      1  0.4385120000000  0.4998260000000  0.4720830000000 1.0
C      1  0.4544490000000  0.5000390000000  0.5498550000000 1.0
C      1  0.5333390000000  0.5005740000000  0.5587300000000 1.0
C      1  0.5661580000000  0.5006930000000  0.4864430000000 1.0
C      1  0.5074180000000  0.5017840000000  0.5674310000000 1.0
C      1  0.4381560000000  0.5012700000000  0.5278980000000 1.0
C      1  0.4543510000000  0.5012700000000  0.4498090000000 1.0
C      1  0.5336210000000  0.5017840000000  0.4410800000000 1.0
C      1  0.5664180000000  0.5021020000000  0.5137740000000 1.0
C      1  0.4632940000000  0.4727990000000  0.5107320000000 1.0
C      1  0.4989540000000  0.4730730000000  0.5384260000000 1.0
C      1  0.5363120000000  0.4732870000000  0.5130690000000 1.0
C      1  0.5237410000000  0.4731440000000  0.4697030000000 1.0
C      1  0.4786140000000  0.4728420000000  0.4682590000000 1.0
C      1  0.4616600000000  0.5278460000000  0.4887660000000 1.0
C      1  0.4986740000000  0.5280530000000  0.4602120000000 1.0
C      1  0.5372680000000  0.5283450000000  0.4865910000000 1.0
C      1  0.5241060000000  0.5283190000000  0.5314490000000 1.0
C      1  0.4773780000000  0.5280110000000  0.5327930000000 1.0
C      1  0.4742420000000  0.4478210000000  0.4903690000000 1.0
C      1  0.4830530000000  0.4479220000000  0.5219030000000 1.0
C      1  0.5157660000000  0.4481410000000  0.5232680000000 1.0
C      1  0.5271730000000  0.4481750000000  0.4925770000000 1.0
C      1  0.5015100000000  0.4479770000000  0.4722440000000 1.0
C      1  0.4734630000000  0.5518990000000  0.5095650000000 1.0
C      1  0.4824000000000  0.5519150000000  0.4779930000000 1.0
C      1  0.5151880000000  0.5521310000000  0.4767360000000 1.0
C      1  0.5265140000000  0.5522490000000  0.5075320000000 1.0
C      1  0.5007270000000  0.5521050000000  0.5278210000000 1.0
C      1  0.5274540000000  0.5005160000000  0.4986060000000 1.0
C      1  0.4769730000000  0.5001620000000  0.4849920000000 1.0
C      1  0.5098100000000  0.5004360000000  0.5256790000000 1.0
C      1  0.4786110000000  0.5002180000000  0.5172650000000 1.0
C      1  0.5071590000000  0.5003470000000  0.4734600000000 1.0
END
