TITL C-2782237-5345-1433 0.000869474808472262 125000 -604.49501361486 0 0 98 (C1) n - 1
REM
REM in /home/nfs/bkarasulu/CARBON/AIRSS/Generating-Clusters/REBO/Higher-Symm/SD-CG/HFTN-CG
REM
REM
REM
REM
REM
REM ./C.cell (12c818d87b63d06a65506943cc24bca4)
REM
REM compiler GCC version 9.2.1 20190827 (Red Hat 9.2.1-1)
REM options -cpp -mtune=generic -march=x86-64 -g -O0 -fpre-include=/usr/include/finclude/math-vector-fortran.h
REM seed -111144042 -1155313986 2101558005 -1856237830 -217278950 70348344 1787948822 -876883619 -863241394 -1504003961 604251636 1635237810 -1190277396 1066726417 1801335063 -308047427 2138511940 1885460271 2103913940 -1328579738 761274376 -1335541584 -1498721003 243527578 1133647509 -1523705996 -848690526 -1234953460 -963091194 -180060843 -1167752243 -1996028674 886828781
REM
CELL 1.54180   50.00000   50.00000   50.00000   90.00000   90.00000   90.00000
LATT -1
SFAC C  
C      1  0.4637800000000  0.5671770000000  0.5328040000000 1.0
C      1  0.4227720000000  0.5172220000000  0.4713850000000 1.0
C      1  0.4362340000000  0.4639670000000  0.5361860000000 1.0
C      1  0.4814580000000  0.4261540000000  0.4670970000000 1.0
C      1  0.5390880000000  0.4335180000000  0.5282420000000 1.0
C      1  0.5781050000000  0.4813910000000  0.4702180000000 1.0
C      1  0.5649270000000  0.5361530000000  0.5360200000000 1.0
C      1  0.5186660000000  0.5741920000000  0.4689850000000 1.0
C      1  0.4704880000000  0.5757210000000  0.4780700000000 1.0
C      1  0.4262660000000  0.5386060000000  0.5340010000000 1.0
C      1  0.4237970000000  0.4699220000000  0.4809940000000 1.0
C      1  0.4692900000000  0.4306600000000  0.5328010000000 1.0
C      1  0.5291670000000  0.4228450000000  0.4720640000000 1.0
C      1  0.5771650000000  0.4620690000000  0.5260520000000 1.0
C      1  0.5765870000000  0.5287350000000  0.4784790000000 1.0
C      1  0.5409030000000  0.5764060000000  0.5263640000000 1.0
C      1  0.5045640000000  0.4814720000000  0.5328680000000 1.0
C      1  0.5222500000000  0.4870200000000  0.4595280000000 1.0
C      1  0.5256630000000  0.5055110000000  0.5341330000000 1.0
C      1  0.5102230000000  0.5164580000000  0.4593260000000 1.0
C      1  0.4967060000000  0.5206570000000  0.5333440000000 1.0
C      1  0.4786440000000  0.5115550000000  0.4592210000000 1.0
C      1  0.4747990000000  0.4962570000000  0.5343930000000 1.0
C      1  0.4904670000000  0.4817960000000  0.4588250000000 1.0
C      1  0.4497800000000  0.4600630000000  0.4378330000000 1.0
C      1  0.4742680000000  0.4225510000000  0.5833430000000 1.0
C      1  0.5384060000000  0.4494860000000  0.4287110000000 1.0
C      1  0.5661090000000  0.4860980000000  0.5676200000000 1.0
C      1  0.5481710000000  0.5377470000000  0.4361760000000 1.0
C      1  0.5165430000000  0.5676810000000  0.5476600000000 1.0
C      1  0.4498760000000  0.5508210000000  0.4323960000000 1.0
C      1  0.4250800000000  0.5088520000000  0.5507450000000 1.0
C      1  0.4691100000000  0.5189670000000  0.4877130000000 1.0
C      1  0.4650620000000  0.4924570000000  0.5032420000000 1.0
C      1  0.4821620000000  0.4708880000000  0.4875350000000 1.0
C      1  0.5085250000000  0.4669040000000  0.5049190000000 1.0
C      1  0.5320170000000  0.4804380000000  0.4886160000000 1.0
C      1  0.5365440000000  0.5076560000000  0.5035920000000 1.0
C      1  0.5192140000000  0.5288310000000  0.4869260000000 1.0
C      1  0.4926600000000  0.5334730000000  0.5037060000000 1.0
C      1  0.5153310000000  0.5355850000000  0.4325510000000 1.0
C      1  0.4947520000000  0.5427890000000  0.5551340000000 1.0
C      1  0.4560400000000  0.5177180000000  0.4374590000000 1.0
C      1  0.4531520000000  0.4945410000000  0.5565350000000 1.0
C      1  0.4806590000000  0.4631630000000  0.4354330000000 1.0
C      1  0.5155880000000  0.4621620000000  0.5578440000000 1.0
C      1  0.5431480000000  0.4807650000000  0.4389580000000 1.0
C      1  0.5426670000000  0.5050220000000  0.5626670000000 1.0
C      1  0.4906890000000  0.4209120000000  0.5157820000000 1.0
C      1  0.5537730000000  0.4345420000000  0.4831650000000 1.0
C      1  0.5835230000000  0.4892820000000  0.5169880000000 1.0
C      1  0.5621930000000  0.5512660000000  0.4908900000000 1.0
C      1  0.5095840000000  0.5830740000000  0.5177770000000 1.0
C      1  0.4465240000000  0.5618060000000  0.4905800000000 1.0
C      1  0.4154820000000  0.5097740000000  0.5192630000000 1.0
C      1  0.4400950000000  0.4473380000000  0.4927110000000 1.0
C      1  0.4312700000000  0.4754560000000  0.4522690000000 1.0
C      1  0.4732620000000  0.4431970000000  0.5642430000000 1.0
C      1  0.5223220000000  0.4326370000000  0.4445540000000 1.0
C      1  0.5657350000000  0.4618010000000  0.5534720000000 1.0
C      1  0.5676540000000  0.5228300000000  0.4504550000000 1.0
C      1  0.5302270000000  0.5495120000000  0.5712970000000 1.0
C      1  0.4744320000000  0.5684400000000  0.4474750000000 1.0
C      1  0.4445070000000  0.5333310000000  0.5630340000000 1.0
C      1  0.5019070000000  0.4151230000000  0.4853920000000 1.0
C      1  0.5626990000000  0.4393070000000  0.5119370000000 1.0
C      1  0.5862320000000  0.5020440000000  0.4894360000000 1.0
C      1  0.5617520000000  0.5589630000000  0.5189610000000 1.0
C      1  0.4981780000000  0.5843720000000  0.4871470000000 1.0
C      1  0.4398170000000  0.5618680000000  0.5188110000000 1.0
C      1  0.4140240000000  0.4971680000000  0.4905350000000 1.0
C      1  0.4442980000000  0.4412010000000  0.5209870000000 1.0
C      1  0.5347530000000  0.4739890000000  0.4082910000000 1.0
C      1  0.5168530000000  0.4917760000000  0.5722540000000 1.0
C      1  0.5137530000000  0.5167250000000  0.4049890000000 1.0
C      1  0.5068090000000  0.5307470000000  0.5828380000000 1.0
C      1  0.4815690000000  0.5392320000000  0.4305550000000 1.0
C      1  0.4611760000000  0.5113190000000  0.5821920000000 1.0
C      1  0.4879010000000  0.4753580000000  0.4077470000000 1.0
C      1  0.4889290000000  0.4714080000000  0.5753330000000 1.0
C      1  0.4665430000000  0.5537730000000  0.5575530000000 1.0
C      1  0.4314000000000  0.5038600000000  0.4474310000000 1.0
C      1  0.4492230000000  0.4642620000000  0.5628540000000 1.0
C      1  0.4937310000000  0.4361650000000  0.4430110000000 1.0
C      1  0.5406930000000  0.4473420000000  0.5529230000000 1.0
C      1  0.5685160000000  0.4941170000000  0.4463530000000 1.0
C      1  0.5514110000000  0.5338860000000  0.5612330000000 1.0
C      1  0.5070070000000  0.5666720000000  0.4440710000000 1.0
C      1  0.4434210000000  0.5347740000000  0.4815350000000 1.0
C      1  0.4385770000000  0.4872390000000  0.5200800000000 1.0
C      1  0.4657060000000  0.4459310000000  0.4802000000000 1.0
C      1  0.5147200000000  0.4385450000000  0.5147520000000 1.0
C      1  0.5575750000000  0.4642750000000  0.4812030000000 1.0
C      1  0.5634210000000  0.5115210000000  0.5208490000000 1.0
C      1  0.5353790000000  0.5539580000000  0.4805020000000 1.0
C      1  0.4865370000000  0.5614240000000  0.5169210000000 1.0
C      1  0.5118940000000  0.4886500000000  0.4005070000000 1.0
C      1  0.4899670000000  0.5033340000000  0.5879500000000 1.0
END
