TITL C-2782228-2999-187 -0.00119515937748095 125000 -957.895958556672 0 0 160 (C2) n - 1
REM
REM in /home/nfs/bkarasulu/CARBON/AIRSS/Generating-Clusters/REBO/Higher-Symm/SD-CG/HFTN-CG
REM
REM
REM
REM
REM
REM ./C.cell (12c818d87b63d06a65506943cc24bca4)
REM
REM compiler GCC version 9.2.1 20190827 (Red Hat 9.2.1-1)
REM options -cpp -mtune=generic -march=x86-64 -g -O0 -fpre-include=/usr/include/finclude/math-vector-fortran.h
REM seed -1007985248 853488280 -763394469 753985392 1039354320 562549661 862281383 -1359665582 68993155 1387408896 1166523948 2000903210 -1739173690 -1669140008 -1344105033 -1999721204 -1038116824 -2099423399 -1668441929 -334517553 1331610560 1844339386 1893558192 340039488 1137210875 -128432026 1991251430 -1942046040 650904904 -1782364087 -1439402325 83543788 626898800
REM
CELL 1.54180   50.00000   50.00000   50.00000   90.00000   90.00000   90.00000
LATT -1
SFAC C  
C      1  0.4385210000000  0.4346960000000  0.5443360000000 1.0
C      1  0.5437430000000  0.4352580000000  0.5611590000000 1.0
C      1  0.5614820000000  0.4346990000000  0.4556620000000 1.0
C      1  0.4562590000000  0.4352580000000  0.4388390000000 1.0
C      1  0.5574100000000  0.4784810000000  0.4149430000000 1.0
C      1  0.4161520000000  0.4793480000000  0.4430160000000 1.0
C      1  0.4425910000000  0.4784770000000  0.5850560000000 1.0
C      1  0.5838490000000  0.4793500000000  0.5569830000000 1.0
C      1  0.4441020000000  0.4492530000000  0.5680850000000 1.0
C      1  0.5675780000000  0.4494380000000  0.5556610000000 1.0
C      1  0.5559000000000  0.4492570000000  0.4319130000000 1.0
C      1  0.4324240000000  0.4494360000000  0.4443380000000 1.0
C      1  0.4435690000000  0.5188010000000  0.4699890000000 1.0
C      1  0.4702870000000  0.5179590000000  0.5574600000000 1.0
C      1  0.5564310000000  0.5188020000000  0.5300120000000 1.0
C      1  0.5297120000000  0.5179620000000  0.4425410000000 1.0
C      1  0.5321120000000  0.5366050000000  0.5134530000000 1.0
C      1  0.5142120000000  0.5358160000000  0.4674330000000 1.0
C      1  0.4678870000000  0.5366040000000  0.4865480000000 1.0
C      1  0.4857860000000  0.5358150000000  0.5325680000000 1.0
C      1  0.4233170000000  0.5610590000000  0.5030560000000 1.0
C      1  0.5020600000000  0.5620010000000  0.5755370000000 1.0
C      1  0.5766810000000  0.5610620000000  0.4969450000000 1.0
C      1  0.4979370000000  0.5620030000000  0.4244650000000 1.0
C      1  0.5204310000000  0.5285120000000  0.5937990000000 1.0
C      1  0.5931270000000  0.5284750000000  0.4791200000000 1.0
C      1  0.4795680000000  0.5285140000000  0.4062020000000 1.0
C      1  0.4068720000000  0.5284710000000  0.5208810000000 1.0
C      1  0.4511780000000  0.4456450000000  0.5008790000000 1.0
C      1  0.5014720000000  0.4435670000000  0.5483230000000 1.0
C      1  0.5488240000000  0.4456470000000  0.4991200000000 1.0
C      1  0.4985300000000  0.4435680000000  0.4516760000000 1.0
C      1  0.5234140000000  0.4443270000000  0.5812130000000 1.0
C      1  0.5810910000000  0.4444990000000  0.4764320000000 1.0
C      1  0.4765880000000  0.4443280000000  0.4187850000000 1.0
C      1  0.4189110000000  0.4444950000000  0.5235670000000 1.0
C      1  0.4450620000000  0.5376010000000  0.5077160000000 1.0
C      1  0.5058430000000  0.5368750000000  0.5560390000000 1.0
C      1  0.5549360000000  0.5376030000000  0.4922850000000 1.0
C      1  0.4941550000000  0.5368760000000  0.4439620000000 1.0
C      1  0.4989980000000  0.4876890000000  0.5899070000000 1.0
C      1  0.5888140000000  0.4886450000000  0.5009980000000 1.0
C      1  0.5010020000000  0.4876920000000  0.4100930000000 1.0
C      1  0.4111860000000  0.4886420000000  0.4990020000000 1.0
C      1  0.4873940000000  0.5282010000000  0.5997720000000 1.0
C      1  0.5992370000000  0.5285890000000  0.5118570000000 1.0
C      1  0.5126050000000  0.5282040000000  0.4002290000000 1.0
C      1  0.4007620000000  0.5285850000000  0.4881440000000 1.0
C      1  0.5816640000000  0.5494500000000  0.5285300000000 1.0
C      1  0.5283920000000  0.5490880000000  0.4177880000000 1.0
C      1  0.4183340000000  0.5494480000000  0.4714710000000 1.0
C      1  0.4716060000000  0.5490850000000  0.5822140000000 1.0
C      1  0.4764420000000  0.4695750000000  0.4049400000000 1.0
C      1  0.4053350000000  0.4699700000000  0.5232950000000 1.0
C      1  0.5235590000000  0.4695730000000  0.5950590000000 1.0
C      1  0.5946670000000  0.4699740000000  0.4767050000000 1.0
C      1  0.4632500000000  0.4987350000000  0.4029770000000 1.0
C      1  0.4038050000000  0.4985610000000  0.5369600000000 1.0
C      1  0.5367500000000  0.4987340000000  0.5970230000000 1.0
C      1  0.5961950000000  0.4985650000000  0.4630400000000 1.0
C      1  0.4549430000000  0.5798290000000  0.4696390000000 1.0
C      1  0.4672630000000  0.5828260000000  0.5481730000000 1.0
C      1  0.5450540000000  0.5798300000000  0.5303630000000 1.0
C      1  0.5327340000000  0.5828280000000  0.4518290000000 1.0
C      1  0.5563170000000  0.5115090000000  0.4225210000000 1.0
C      1  0.4228730000000  0.5128070000000  0.4436690000000 1.0
C      1  0.4436820000000  0.5115050000000  0.5774790000000 1.0
C      1  0.5771270000000  0.5128090000000  0.5563320000000 1.0
C      1  0.6060720000000  0.4750010000000  0.5342380000000 1.0
C      1  0.5345470000000  0.4744640000000  0.3931140000000 1.0
C      1  0.3939290000000  0.4749980000000  0.4657610000000 1.0
C      1  0.4654540000000  0.4744600000000  0.6068850000000 1.0
C      1  0.5880460000000  0.4488700000000  0.5319130000000 1.0
C      1  0.5317560000000  0.4484690000000  0.4115140000000 1.0
C      1  0.4119560000000  0.4488670000000  0.4680860000000 1.0
C      1  0.4682460000000  0.4484660000000  0.5884850000000 1.0
C      1  0.4872780000000  0.5618500000000  0.4845720000000 1.0
C      1  0.4795080000000  0.5622170000000  0.5163380000000 1.0
C      1  0.5127200000000  0.5618500000000  0.5154290000000 1.0
C      1  0.5204890000000  0.5622180000000  0.4836640000000 1.0
C      1  0.5381280000000  0.5315950000000  0.5524990000000 1.0
C      1  0.5529500000000  0.5318520000000  0.4594170000000 1.0
C      1  0.4618700000000  0.5315950000000  0.4475020000000 1.0
C      1  0.4470480000000  0.5318490000000  0.5405840000000 1.0
C      1  0.6115100000000  0.5014070000000  0.5197030000000 1.0
C      1  0.5200540000000  0.5010070000000  0.3880020000000 1.0
C      1  0.3884900000000  0.5014030000000  0.4802970000000 1.0
C      1  0.4799460000000  0.5010040000000  0.6119980000000 1.0
C      1  0.5101810000000  0.5084090000000  0.5689480000000 1.0
C      1  0.5674960000000  0.5089140000000  0.4887010000000 1.0
C      1  0.4898190000000  0.5084110000000  0.4310530000000 1.0
C      1  0.4325040000000  0.5089110000000  0.5112990000000 1.0
C      1  0.5545840000000  0.5810620000000  0.5047580000000 1.0
C      1  0.5055430000000  0.5837020000000  0.4440860000000 1.0
C      1  0.4454130000000  0.5810600000000  0.4952440000000 1.0
C      1  0.4944540000000  0.5837000000000  0.5559160000000 1.0
C      1  0.5001560000000  0.4738350000000  0.4482550000000 1.0
C      1  0.4500150000000  0.4751170000000  0.4991090000000 1.0
C      1  0.4998450000000  0.4738340000000  0.5517440000000 1.0
C      1  0.5499860000000  0.4751190000000  0.5008900000000 1.0
C      1  0.4914740000000  0.6145780000000  0.4820870000000 1.0
C      1  0.4785750000000  0.6157950000000  0.5103060000000 1.0
C      1  0.5085210000000  0.6145780000000  0.5179160000000 1.0
C      1  0.5214210000000  0.6157960000000  0.4896970000000 1.0
C      1  0.4345990000000  0.4882740000000  0.4772620000000 1.0
C      1  0.4768940000000  0.4867050000000  0.5664770000000 1.0
C      1  0.5654010000000  0.4882760000000  0.5227380000000 1.0
C      1  0.5231070000000  0.4867070000000  0.4335220000000 1.0
C      1  0.4504600000000  0.4841430000000  0.5498300000000 1.0
C      1  0.5500300000000  0.4848620000000  0.5501570000000 1.0
C      1  0.5495400000000  0.4841460000000  0.4501690000000 1.0
C      1  0.4499700000000  0.4848610000000  0.4498430000000 1.0
C      1  0.4591500000000  0.4018420000000  0.5105910000000 1.0
C      1  0.5081880000000  0.4051370000000  0.5405430000000 1.0
C      1  0.5408540000000  0.4018430000000  0.4894060000000 1.0
C      1  0.4918150000000  0.4051380000000  0.4594550000000 1.0
C      1  0.5512280000000  0.5594430000000  0.4409860000000 1.0
C      1  0.4430260000000  0.5586400000000  0.4497900000000 1.0
C      1  0.4487690000000  0.5594400000000  0.5590160000000 1.0
C      1  0.5569720000000  0.5586410000000  0.5502120000000 1.0
C      1  0.4217310000000  0.4985050000000  0.5583680000000 1.0
C      1  0.5585230000000  0.4995020000000  0.5793650000000 1.0
C      1  0.5782690000000  0.4985100000000  0.4416320000000 1.0
C      1  0.4414770000000  0.4995020000000  0.4206350000000 1.0
C      1  0.4229300000000  0.5541880000000  0.5364970000000 1.0
C      1  0.5352440000000  0.5541000000000  0.5767970000000 1.0
C      1  0.5770680000000  0.5541910000000  0.4635040000000 1.0
C      1  0.4647540000000  0.5541010000000  0.4232050000000 1.0
C      1  0.4845960000000  0.5900520000000  0.4657340000000 1.0
C      1  0.4626710000000  0.5917370000000  0.5185190000000 1.0
C      1  0.5154000000000  0.5900520000000  0.5342690000000 1.0
C      1  0.5373260000000  0.5917390000000  0.4814830000000 1.0
C      1  0.4578930000000  0.4123680000000  0.5393860000000 1.0
C      1  0.5374280000000  0.4140400000000  0.5411410000000 1.0
C      1  0.5421110000000  0.4123710000000  0.4606120000000 1.0
C      1  0.4625750000000  0.4140400000000  0.4588570000000 1.0
C      1  0.4823940000000  0.5091560000000  0.5144690000000 1.0
C      1  0.5155340000000  0.5089330000000  0.5191740000000 1.0
C      1  0.5176050000000  0.5091580000000  0.4855310000000 1.0
C      1  0.4844660000000  0.5089330000000  0.4808260000000 1.0
C      1  0.5030410000000  0.4295820000000  0.5196850000000 1.0
C      1  0.5243410000000  0.4288220000000  0.4964310000000 1.0
C      1  0.4969620000000  0.4295830000000  0.4803130000000 1.0
C      1  0.4756620000000  0.4288210000000  0.5035670000000 1.0
C      1  0.5535390000000  0.4103100000000  0.5165100000000 1.0
C      1  0.5173160000000  0.4093390000000  0.4444710000000 1.0
C      1  0.4464640000000  0.4103090000000  0.4834880000000 1.0
C      1  0.4826880000000  0.4093370000000  0.5555270000000 1.0
C      1  0.5082030000000  0.4320890000000  0.4224390000000 1.0
C      1  0.4230970000000  0.4327760000000  0.4918300000000 1.0
C      1  0.4918000000000  0.4320860000000  0.5775600000000 1.0
C      1  0.5769060000000  0.4327790000000  0.5081690000000 1.0
C      1  0.5026430000000  0.4728030000000  0.4784140000000 1.0
C      1  0.4802410000000  0.4729140000000  0.4975820000000 1.0
C      1  0.4973590000000  0.4728020000000  0.5215860000000 1.0
C      1  0.5197600000000  0.4729150000000  0.5024180000000 1.0
C      1  0.5427820000000  0.4939440000000  0.4773640000000 1.0
C      1  0.4774200000000  0.4939550000000  0.4557080000000 1.0
C      1  0.4572190000000  0.4939420000000  0.5226360000000 1.0
C      1  0.5225800000000  0.4939550000000  0.5442910000000 1.0
END
