TITL C-2782225-7408-437 -0.00183229460725511 125000 -298.802388099326 0 0 52 (D2) n - 1
REM
REM in /home/nfs/bkarasulu/CARBON/AIRSS/Generating-Clusters/REBO/Higher-Symm/SD-CG/HFTN-CG
REM
REM
REM
REM
REM
REM ./C.cell (12c818d87b63d06a65506943cc24bca4)
REM
REM compiler GCC version 9.2.1 20190827 (Red Hat 9.2.1-1)
REM options -cpp -mtune=generic -march=x86-64 -g -O0 -fpre-include=/usr/include/finclude/math-vector-fortran.h
REM seed -527283771 1514713569 -1777713886 -831144034 -148848300 1533890262 380696473 -219218321 -1248834022 662113631 -1692817356 1564759836 1164029342 445330181 6005874 629451210 -376971316 -2017903594 -1451616908 256071833 -838808371 1707039666 -1146589441 1186654419 -1008434339 -411905171 1225058809 1841578891 898316673 -623220307 435107439 -166929653 1554318739
REM
CELL 1.54180   50.00000   50.00000   50.00000   90.00000   90.00000   90.00000
LATT -1
SFAC C  
C      1  0.5321850000000  0.5095390000000  0.4884100000000 1.0
C      1  0.4677800000000  0.5094540000000  0.5115630000000 1.0
C      1  0.5322480000000  0.4905800000000  0.5115120000000 1.0
C      1  0.4677870000000  0.4904280000000  0.4885160000000 1.0
C      1  0.4889640000000  0.5102090000000  0.5323740000000 1.0
C      1  0.5109990000000  0.5101560000000  0.4675960000000 1.0
C      1  0.5111150000000  0.4898850000000  0.5323770000000 1.0
C      1  0.4889230000000  0.4897500000000  0.4676520000000 1.0
C      1  0.5024680000000  0.4596840000000  0.5445570000000 1.0
C      1  0.4976810000000  0.4595460000000  0.4555600000000 1.0
C      1  0.5022110000000  0.5403250000000  0.4554370000000 1.0
C      1  0.4976410000000  0.5404450000000  0.5444460000000 1.0
C      1  0.5464510000000  0.4583970000000  0.5029080000000 1.0
C      1  0.4537020000000  0.4582180000000  0.4972130000000 1.0
C      1  0.4535560000000  0.5416120000000  0.5029000000000 1.0
C      1  0.5462910000000  0.5417740000000  0.4969790000000 1.0
C      1  0.5009540000000  0.5890700000000  0.5352440000000 1.0
C      1  0.4987180000000  0.5889640000000  0.4644980000000 1.0
C      1  0.5011950000000  0.4109340000000  0.4647530000000 1.0
C      1  0.4991320000000  0.4110320000000  0.5355050000000 1.0
C      1  0.5354180000000  0.5897650000000  0.5002780000000 1.0
C      1  0.4642510000000  0.5896320000000  0.4994620000000 1.0
C      1  0.4645830000000  0.4102370000000  0.5006250000000 1.0
C      1  0.5357480000000  0.4103660000000  0.4996350000000 1.0
C      1  0.5357910000000  0.4339920000000  0.5157740000000 1.0
C      1  0.4644530000000  0.4338150000000  0.4844170000000 1.0
C      1  0.5355090000000  0.5661390000000  0.4841390000000 1.0
C      1  0.4642470000000  0.5660540000000  0.5156700000000 1.0
C      1  0.5155670000000  0.4344900000000  0.5352330000000 1.0
C      1  0.4846750000000  0.4343310000000  0.4649570000000 1.0
C      1  0.4845190000000  0.5656120000000  0.5350810000000 1.0
C      1  0.5152400000000  0.5655670000000  0.4647290000000 1.0
C      1  0.5615870000000  0.4816150000000  0.5210610000000 1.0
C      1  0.4384810000000  0.4813280000000  0.4789930000000 1.0
C      1  0.5614670000000  0.5186110000000  0.4787890000000 1.0
C      1  0.4384640000000  0.5184460000000  0.5211570000000 1.0
C      1  0.5210130000000  0.4816440000000  0.5624420000000 1.0
C      1  0.4790550000000  0.4813860000000  0.4376110000000 1.0
C      1  0.4791380000000  0.5185370000000  0.5624400000000 1.0
C      1  0.5207930000000  0.5184330000000  0.4375070000000 1.0
C      1  0.4717000000000  0.5424450000000  0.4554060000000 1.0
C      1  0.5281430000000  0.5426780000000  0.5444710000000 1.0
C      1  0.4719650000000  0.4574520000000  0.5446630000000 1.0
C      1  0.5281920000000  0.4574260000000  0.4554610000000 1.0
C      1  0.4540530000000  0.5427230000000  0.4727300000000 1.0
C      1  0.5457900000000  0.5429700000000  0.5271460000000 1.0
C      1  0.5458810000000  0.4571980000000  0.4727420000000 1.0
C      1  0.4542770000000  0.4571090000000  0.5273820000000 1.0
C      1  0.5105580000000  0.4006150000000  0.4898850000000 1.0
C      1  0.4898080000000  0.4006060000000  0.5104030000000 1.0
C      1  0.5102170000000  0.5994240000000  0.5100900000000 1.0
C      1  0.4894170000000  0.5993560000000  0.4896220000000 1.0
END
