TITL C-2782225-7408-44 -0.00139058059921777 125000 -605.175720345115 0 0 103 (C1) n - 1
REM
REM in /home/nfs/bkarasulu/CARBON/AIRSS/Generating-Clusters/REBO/Higher-Symm/SD-CG/HFTN-CG
REM
REM
REM
REM
REM
REM ./C.cell (12c818d87b63d06a65506943cc24bca4)
REM
REM compiler GCC version 9.2.1 20190827 (Red Hat 9.2.1-1)
REM options -cpp -mtune=generic -march=x86-64 -g -O0 -fpre-include=/usr/include/finclude/math-vector-fortran.h
REM seed 807493071 -44174823 1837984132 1118000635 814928970 -52786419 -1516265395 -1827990311 945095763 1953357281 2064433146 1843335409 -709578688 189143326 -707442140 -95843028 1989201275 1362730110 -1493118412 1869520964 257793124 1482880739 1493652703 926346101 -565683610 -314183054 1509774751 -1438640731 -125954490 718465756 55005055 1919056954 -557141809
REM
CELL 1.54180   50.00000   50.00000   50.00000   90.00000   90.00000   90.00000
LATT -1
SFAC C  
C      1  0.4751400000000  0.4075220000000  0.4403430000000 1.0
C      1  0.5729580000000  0.5100820000000  0.4683830000000 1.0
C      1  0.4495860000000  0.5546390000000  0.4755360000000 1.0
C      1  0.5034550000000  0.4472880000000  0.4562420000000 1.0
C      1  0.5451070000000  0.5342120000000  0.4535000000000 1.0
C      1  0.4495570000000  0.5205310000000  0.4559060000000 1.0
C      1  0.4533640000000  0.5794300000000  0.4952170000000 1.0
C      1  0.4551880000000  0.4148350000000  0.5013370000000 1.0
C      1  0.5981360000000  0.4971310000000  0.5046330000000 1.0
C      1  0.4162420000000  0.5392300000000  0.5002510000000 1.0
C      1  0.5052760000000  0.4069680000000  0.5063830000000 1.0
C      1  0.5808700000000  0.5470610000000  0.5029210000000 1.0
C      1  0.5390340000000  0.4592130000000  0.5765750000000 1.0
C      1  0.5169350000000  0.5537770000000  0.5661440000000 1.0
C      1  0.4435220000000  0.4889170000000  0.5704360000000 1.0
C      1  0.4995310000000  0.5616670000000  0.4750790000000 1.0
C      1  0.4582440000000  0.4739870000000  0.4763900000000 1.0
C      1  0.5499480000000  0.4774930000000  0.4757650000000 1.0
C      1  0.5037600000000  0.4306310000000  0.5542500000000 1.0
C      1  0.5622350000000  0.5391740000000  0.5522010000000 1.0
C      1  0.4337860000000  0.5346520000000  0.5531640000000 1.0
C      1  0.5345700000000  0.5727480000000  0.5357730000000 1.0
C      1  0.4194740000000  0.4924260000000  0.5386970000000 1.0
C      1  0.5455700000000  0.4398950000000  0.5332350000000 1.0
C      1  0.4261180000000  0.4555290000000  0.4907280000000 1.0
C      1  0.5741050000000  0.4523330000000  0.4951290000000 1.0
C      1  0.5103600000000  0.5927360000000  0.4995720000000 1.0
C      1  0.4337350000000  0.5593200000000  0.5116310000000 1.0
C      1  0.4790340000000  0.4119850000000  0.5168220000000 1.0
C      1  0.5886790000000  0.5220610000000  0.5150760000000 1.0
C      1  0.5515080000000  0.5258060000000  0.4860530000000 1.0
C      1  0.4535530000000  0.5238800000000  0.4894210000000 1.0
C      1  0.4886520000000  0.4501940000000  0.4858970000000 1.0
C      1  0.5470950000000  0.4706860000000  0.4436260000000 1.0
C      1  0.5025300000000  0.5591420000000  0.4435850000000 1.0
C      1  0.4467730000000  0.4698870000000  0.4462220000000 1.0
C      1  0.4877530000000  0.5481850000000  0.5622550000000 1.0
C      1  0.4661590000000  0.4707260000000  0.5630320000000 1.0
C      1  0.5485620000000  0.4876700000000  0.5719720000000 1.0
C      1  0.5109880000000  0.4545800000000  0.5691240000000 1.0
C      1  0.5358070000000  0.5325590000000  0.5618780000000 1.0
C      1  0.4512270000000  0.5165480000000  0.5675500000000 1.0
C      1  0.5242640000000  0.5441980000000  0.4331410000000 1.0
C      1  0.4397300000000  0.4972730000000  0.4361510000000 1.0
C      1  0.5235270000000  0.4577710000000  0.4345800000000 1.0
C      1  0.4265870000000  0.4272710000000  0.5038640000000 1.0
C      1  0.5941850000000  0.4672790000000  0.5143460000000 1.0
C      1  0.4789520000000  0.5941280000000  0.5127580000000 1.0
C      1  0.4114880000000  0.5191140000000  0.5436810000000 1.0
C      1  0.5272190000000  0.4198710000000  0.5416460000000 1.0
C      1  0.5611000000000  0.5660730000000  0.5426290000000 1.0
C      1  0.5106200000000  0.4741460000000  0.4142030000000 1.0
C      1  0.5143760000000  0.5241760000000  0.4143400000000 1.0
C      1  0.4721770000000  0.5020490000000  0.4280410000000 1.0
C      1  0.5328320000000  0.4629180000000  0.5178350000000 1.0
C      1  0.5163220000000  0.5460250000000  0.5269570000000 1.0
C      1  0.4519740000000  0.4909310000000  0.5314640000000 1.0
C      1  0.4823000000000  0.4758150000000  0.4160430000000 1.0
C      1  0.5273550000000  0.4984830000000  0.4111060000000 1.0
C      1  0.4852630000000  0.5262840000000  0.4164570000000 1.0
C      1  0.4782510000000  0.5511790000000  0.4300280000000 1.0
C      1  0.4655080000000  0.4557370000000  0.4288290000000 1.0
C      1  0.5525050000000  0.4933190000000  0.4261580000000 1.0
C      1  0.5556800000000  0.4850230000000  0.5088820000000 1.0
C      1  0.4908080000000  0.5538870000000  0.5070410000000 1.0
C      1  0.4626620000000  0.4688740000000  0.5098530000000 1.0
C      1  0.5510650000000  0.4367920000000  0.4937430000000 1.0
C      1  0.5339220000000  0.5780110000000  0.4962060000000 1.0
C      1  0.4194150000000  0.4837840000000  0.4907990000000 1.0
C      1  0.5824920000000  0.4819020000000  0.4795480000000 1.0
C      1  0.4825070000000  0.5878420000000  0.4803570000000 1.0
C      1  0.4568790000000  0.4410890000000  0.4824210000000 1.0
C      1  0.4804360000000  0.4344680000000  0.4407080000000 1.0
C      1  0.5656750000000  0.5144580000000  0.4393600000000 1.0
C      1  0.4547940000000  0.5500740000000  0.4455570000000 1.0
C      1  0.5241940000000  0.4931440000000  0.5312100000000 1.0
C      1  0.4939070000000  0.5228100000000  0.5320210000000 1.0
C      1  0.4845580000000  0.4915910000000  0.5343130000000 1.0
C      1  0.5757640000000  0.5173760000000  0.5399940000000 1.0
C      1  0.4458510000000  0.5547300000000  0.5367330000000 1.0
C      1  0.4788390000000  0.4286270000000  0.5399790000000 1.0
C      1  0.5171470000000  0.4759670000000  0.4694580000000 1.0
C      1  0.5155590000000  0.5324780000000  0.4703490000000 1.0
C      1  0.4740220000000  0.4983760000000  0.4620750000000 1.0
C      1  0.5652490000000  0.4873670000000  0.5416110000000 1.0
C      1  0.4766100000000  0.5642290000000  0.5363420000000 1.0
C      1  0.4581420000000  0.4520000000000  0.5384740000000 1.0
C      1  0.5301350000000  0.5048130000000  0.5562860000000 1.0
C      1  0.4785290000000  0.5206480000000  0.5623320000000 1.0
C      1  0.4948010000000  0.4768270000000  0.5622920000000 1.0
C      1  0.4054210000000  0.5146620000000  0.4914810000000 1.0
C      1  0.5308740000000  0.4146360000000  0.5003040000000 1.0
C      1  0.5630410000000  0.5675740000000  0.4979030000000 1.0
C      1  0.5209650000000  0.4523210000000  0.4917330000000 1.0
C      1  0.5290390000000  0.5466770000000  0.4978050000000 1.0
C      1  0.4405570000000  0.5014690000000  0.5038830000000 1.0
C      1  0.5057560000000  0.5792630000000  0.5463520000000 1.0
C      1  0.4290990000000  0.4648590000000  0.5510130000000 1.0
C      1  0.5600000000000  0.4554440000000  0.5527360000000 1.0
C      1  0.4815040000000  0.5238070000000  0.5007240000000 1.0
C      1  0.4934570000000  0.4785410000000  0.5041570000000 1.0
C      1  0.5299490000000  0.5062450000000  0.5010440000000 1.0
C      1  0.5014040000000  0.5035750000000  0.4818400000000 1.0
END
