TITL C-2782226-7400-1156 0.0018728058868938 125000 -709.964618514434 0 0 128 (C1) n - 1
REM
REM in /home/nfs/bkarasulu/CARBON/AIRSS/Generating-Clusters/REBO/Higher-Symm/SD-CG/HFTN-CG
REM
REM
REM
REM
REM
REM ./C.cell (12c818d87b63d06a65506943cc24bca4)
REM
REM compiler GCC version 9.2.1 20190827 (Red Hat 9.2.1-1)
REM options -cpp -mtune=generic -march=x86-64 -g -O0 -fpre-include=/usr/include/finclude/math-vector-fortran.h
REM seed -255043954 411858159 568749025 -2035293598 -324770747 2105525069 1849409839 907476467 2058528125 -732207229 -1916470601 64924158 1697316689 898857772 1710405205 -2010625062 -1556728575 623132027 -1692803748 -547930447 387953198 1799242908 -285100530 -1125159393 -771928833 2135573711 -1641340906 -1384434912 285821782 -1577704355 1333269973 -1952680441 -331503516
REM
CELL 1.54180   50.00000   50.00000   50.00000   90.00000   90.00000   90.00000
LATT -1
SFAC C  
C      1  0.4833820000000  0.4602920000000  0.4404180000000 1.0
C      1  0.4345430000000  0.4837730000000  0.4550780000000 1.0
C      1  0.4564300000000  0.4402200000000  0.4840510000000 1.0
C      1  0.5146010000000  0.5463880000000  0.4413350000000 1.0
C      1  0.5178980000000  0.4594920000000  0.5636610000000 1.0
C      1  0.4866570000000  0.5458040000000  0.5608130000000 1.0
C      1  0.5597110000000  0.5156100000000  0.4553000000000 1.0
C      1  0.5631980000000  0.4830820000000  0.5402130000000 1.0
C      1  0.4460810000000  0.5151740000000  0.5401050000000 1.0
C      1  0.5449080000000  0.5598940000000  0.4867640000000 1.0
C      1  0.5418520000000  0.4354840000000  0.5189970000000 1.0
C      1  0.4578330000000  0.5631040000000  0.5147100000000 1.0
C      1  0.4862790000000  0.4582770000000  0.5578600000000 1.0
C      1  0.4404410000000  0.4834010000000  0.5391380000000 1.0
C      1  0.4576180000000  0.4348760000000  0.5153940000000 1.0
C      1  0.5172210000000  0.5441960000000  0.5665460000000 1.0
C      1  0.5146720000000  0.4598430000000  0.4474030000000 1.0
C      1  0.4839800000000  0.5448950000000  0.4354890000000 1.0
C      1  0.5574520000000  0.5149530000000  0.5414290000000 1.0
C      1  0.5639680000000  0.4841510000000  0.4572670000000 1.0
C      1  0.4390550000000  0.5150400000000  0.4530160000000 1.0
C      1  0.5415560000000  0.5634010000000  0.5183710000000 1.0
C      1  0.5448970000000  0.4395380000000  0.4875310000000 1.0
C      1  0.4573540000000  0.5580440000000  0.4833100000000 1.0
C      1  0.5999050000000  0.5125940000000  0.4761400000000 1.0
C      1  0.4777850000000  0.5990680000000  0.5142430000000 1.0
C      1  0.5147300000000  0.4764550000000  0.5997250000000 1.0
C      1  0.4001340000000  0.4853100000000  0.4761560000000 1.0
C      1  0.4011430000000  0.5126700000000  0.5229860000000 1.0
C      1  0.5995320000000  0.4854110000000  0.5236780000000 1.0
C      1  0.5250140000000  0.3994620000000  0.5151080000000 1.0
C      1  0.5231850000000  0.5991580000000  0.4877250000000 1.0
C      1  0.4754770000000  0.4005760000000  0.4878450000000 1.0
C      1  0.4876750000000  0.5239720000000  0.6008810000000 1.0
C      1  0.4859390000000  0.4769750000000  0.3995510000000 1.0
C      1  0.5130240000000  0.5240630000000  0.4011330000000 1.0
C      1  0.5989030000000  0.5124800000000  0.5235100000000 1.0
C      1  0.4758720000000  0.5998600000000  0.4871680000000 1.0
C      1  0.5130700000000  0.4773360000000  0.4008920000000 1.0
C      1  0.4012230000000  0.4855120000000  0.5231660000000 1.0
C      1  0.4009060000000  0.5125080000000  0.4759970000000 1.0
C      1  0.6003960000000  0.4853820000000  0.4763440000000 1.0
C      1  0.5230160000000  0.3994050000000  0.4879120000000 1.0
C      1  0.5251400000000  0.5997010000000  0.5148120000000 1.0
C      1  0.4775200000000  0.4001830000000  0.5149540000000 1.0
C      1  0.4858900000000  0.5237580000000  0.3999180000000 1.0
C      1  0.4876310000000  0.4765620000000  0.5990360000000 1.0
C      1  0.5149470000000  0.5238600000000  0.6019590000000 1.0
C      1  0.5150580000000  0.5490150000000  0.5329030000000 1.0
C      1  0.5255570000000  0.5163620000000  0.5532190000000 1.0
C      1  0.5466680000000  0.5307500000000  0.5139810000000 1.0
C      1  0.4847120000000  0.4489910000000  0.5250510000000 1.0
C      1  0.4861620000000  0.5491440000000  0.4692110000000 1.0
C      1  0.5155220000000  0.4482360000000  0.4792210000000 1.0
C      1  0.4729670000000  0.4866270000000  0.5475010000000 1.0
C      1  0.4728940000000  0.5179600000000  0.4484230000000 1.0
C      1  0.5305540000000  0.4884330000000  0.4534040000000 1.0
C      1  0.4519850000000  0.4680810000000  0.5122670000000 1.0
C      1  0.4503810000000  0.5247180000000  0.4807290000000 1.0
C      1  0.5504840000000  0.4732210000000  0.4844840000000 1.0
C      1  0.5170420000000  0.5495540000000  0.4753760000000 1.0
C      1  0.5257470000000  0.5187000000000  0.4517120000000 1.0
C      1  0.5491300000000  0.5261240000000  0.4832650000000 1.0
C      1  0.4849710000000  0.4509130000000  0.4724960000000 1.0
C      1  0.4840780000000  0.5490690000000  0.5268120000000 1.0
C      1  0.5154700000000  0.4508010000000  0.5316480000000 1.0
C      1  0.4678870000000  0.4876110000000  0.4499460000000 1.0
C      1  0.4781920000000  0.5171160000000  0.5509380000000 1.0
C      1  0.5312050000000  0.4858400000000  0.5490390000000 1.0
C      1  0.4488350000000  0.4735280000000  0.4819240000000 1.0
C      1  0.4523450000000  0.5299850000000  0.5111790000000 1.0
C      1  0.5479830000000  0.4680530000000  0.5153020000000 1.0
C      1  0.5145890000000  0.5869820000000  0.4621090000000 1.0
C      1  0.4628430000000  0.5157970000000  0.5875170000000 1.0
C      1  0.5870580000000  0.4604070000000  0.5151620000000 1.0
C      1  0.4840210000000  0.4124520000000  0.4625980000000 1.0
C      1  0.4862430000000  0.5866700000000  0.5396760000000 1.0
C      1  0.5169340000000  0.4120450000000  0.5402190000000 1.0
C      1  0.5398520000000  0.4854270000000  0.5879540000000 1.0
C      1  0.5384300000000  0.5166940000000  0.4142180000000 1.0
C      1  0.4601100000000  0.4845200000000  0.4112620000000 1.0
C      1  0.4136580000000  0.5378500000000  0.5147390000000 1.0
C      1  0.4118980000000  0.4593830000000  0.4839750000000 1.0
C      1  0.5871570000000  0.5375450000000  0.4845500000000 1.0
C      1  0.5172800000000  0.5877470000000  0.5402870000000 1.0
C      1  0.4596450000000  0.5160060000000  0.4111480000000 1.0
C      1  0.5879510000000  0.4602110000000  0.4847630000000 1.0
C      1  0.4866850000000  0.4122910000000  0.5402060000000 1.0
C      1  0.4836550000000  0.5878780000000  0.4616580000000 1.0
C      1  0.5141760000000  0.4120810000000  0.4627870000000 1.0
C      1  0.5378530000000  0.4850050000000  0.4146140000000 1.0
C      1  0.5403530000000  0.5154020000000  0.5899930000000 1.0
C      1  0.4630570000000  0.4856150000000  0.5860440000000 1.0
C      1  0.4131420000000  0.5381900000000  0.4837500000000 1.0
C      1  0.4132100000000  0.4600300000000  0.5150600000000 1.0
C      1  0.5859760000000  0.5371660000000  0.5147450000000 1.0
C      1  0.5430600000000  0.4306060000000  0.5521030000000 1.0
C      1  0.5473200000000  0.5449460000000  0.4313340000000 1.0
C      1  0.4330050000000  0.5467800000000  0.5413980000000 1.0
C      1  0.4576880000000  0.5698720000000  0.5481080000000 1.0
C      1  0.4578740000000  0.4311520000000  0.4511690000000 1.0
C      1  0.5434260000000  0.5704560000000  0.4542430000000 1.0
C      1  0.4510290000000  0.4575080000000  0.4301560000000 1.0
C      1  0.4534550000000  0.5426200000000  0.5686670000000 1.0
C      1  0.5512800000000  0.4587000000000  0.5701480000000 1.0
C      1  0.5702050000000  0.4498710000000  0.5429210000000 1.0
C      1  0.5694940000000  0.5483470000000  0.4574410000000 1.0
C      1  0.4296110000000  0.4500760000000  0.4562200000000 1.0
C      1  0.5413260000000  0.4309120000000  0.4545270000000 1.0
C      1  0.5506810000000  0.5417470000000  0.5709540000000 1.0
C      1  0.4301760000000  0.5480690000000  0.4558230000000 1.0
C      1  0.4568970000000  0.5693380000000  0.4512280000000 1.0
C      1  0.4591190000000  0.4302950000000  0.5491380000000 1.0
C      1  0.5439550000000  0.5693430000000  0.5513240000000 1.0
C      1  0.4534530000000  0.4585810000000  0.5676440000000 1.0
C      1  0.4506480000000  0.5441300000000  0.4284600000000 1.0
C      1  0.5458620000000  0.4577400000000  0.4335660000000 1.0
C      1  0.5692890000000  0.4504870000000  0.4578690000000 1.0
C      1  0.5688770000000  0.5471910000000  0.5424800000000 1.0
C      1  0.4321530000000  0.4504670000000  0.5418520000000 1.0
C      1  0.5166790000000  0.5161810000000  0.4854950000000 1.0
C      1  0.4823770000000  0.5161810000000  0.5168680000000 1.0
C      1  0.5167700000000  0.4822380000000  0.5179470000000 1.0
C      1  0.4832420000000  0.5170790000000  0.4821850000000 1.0
C      1  0.4824630000000  0.4816920000000  0.5158090000000 1.0
C      1  0.5168090000000  0.4817750000000  0.4834980000000 1.0
C      1  0.4823740000000  0.4830140000000  0.4812700000000 1.0
C      1  0.5166490000000  0.5164430000000  0.5197980000000 1.0
END
