TITL C-2782240-8521-119 0.00379372246191283 125000 -1075.05839190694 0 0 180 (C1) n - 1
REM
REM in /home/nfs/bkarasulu/CARBON/AIRSS/Generating-Clusters/REBO/Higher-Symm/SD-CG/HFTN-CG
REM
REM
REM
REM
REM
REM ./C.cell (12c818d87b63d06a65506943cc24bca4)
REM
REM compiler GCC version 9.2.1 20190827 (Red Hat 9.2.1-1)
REM options -cpp -mtune=generic -march=x86-64 -g -O0 -fpre-include=/usr/include/finclude/math-vector-fortran.h
REM seed -761203893 -1510763410 -1027676540 -51857743 439786597 -2019136842 565878763 -1995108662 -2068335463 -1400000110 321090098 -1464462914 -715378825 -289413852 -97103640 1763357425 -1255247513 831279364 206808972 -655495056 912331184 1561620421 1354097206 -701434152 -170025808 43704073 62514991 827308136 948011751 -353257079 -1222094770 258051670 -1014564941
REM
CELL 1.54180   50.00000   50.00000   50.00000   90.00000   90.00000   90.00000
LATT -1
SFAC C  
C      1  0.4001010000000  0.4370830000000  0.5054910000000 1.0
C      1  0.4115680000000  0.4920960000000  0.4361530000000 1.0
C      1  0.4017190000000  0.5628740000000  0.4934040000000 1.0
C      1  0.4095260000000  0.5087500000000  0.5631090000000 1.0
C      1  0.5982100000000  0.4380220000000  0.5063410000000 1.0
C      1  0.5894530000000  0.4896010000000  0.4347140000000 1.0
C      1  0.5904460000000  0.5636440000000  0.4908710000000 1.0
C      1  0.5952600000000  0.5089090000000  0.5632940000000 1.0
C      1  0.5221750000000  0.5928360000000  0.4206550000000 1.0
C      1  0.5114050000000  0.5756170000000  0.5904500000000 1.0
C      1  0.5214100000000  0.4109760000000  0.5762740000000 1.0
C      1  0.5171600000000  0.4160490000000  0.4108300000000 1.0
C      1  0.4903840000000  0.5926070000000  0.4249200000000 1.0
C      1  0.4787050000000  0.5777860000000  0.5880420000000 1.0
C      1  0.4894410000000  0.4095570000000  0.5746720000000 1.0
C      1  0.4863410000000  0.4208400000000  0.4119290000000 1.0
C      1  0.4859500000000  0.4576390000000  0.4951160000000 1.0
C      1  0.4822710000000  0.5105310000000  0.4571380000000 1.0
C      1  0.4836470000000  0.5439710000000  0.5091520000000 1.0
C      1  0.4839740000000  0.4924250000000  0.5458240000000 1.0
C      1  0.5162890000000  0.4570860000000  0.4924780000000 1.0
C      1  0.5134630000000  0.5066960000000  0.4546750000000 1.0
C      1  0.5144610000000  0.5437740000000  0.5065260000000 1.0
C      1  0.5151280000000  0.4900700000000  0.5421980000000 1.0
C      1  0.5130720000000  0.4442360000000  0.5219020000000 1.0
C      1  0.5173390000000  0.4753490000000  0.4455700000000 1.0
C      1  0.5185030000000  0.5552220000000  0.4747440000000 1.0
C      1  0.5118570000000  0.5196660000000  0.5547400000000 1.0
C      1  0.4809220000000  0.4444220000000  0.5240920000000 1.0
C      1  0.4854100000000  0.4792220000000  0.4471430000000 1.0
C      1  0.4866270000000  0.5564840000000  0.4794130000000 1.0
C      1  0.4801350000000  0.5236430000000  0.5562670000000 1.0
C      1  0.5647560000000  0.5565180000000  0.5737530000000 1.0
C      1  0.5663500000000  0.4245280000000  0.5504640000000 1.0
C      1  0.5653280000000  0.4424990000000  0.4266660000000 1.0
C      1  0.5671340000000  0.5769960000000  0.4451580000000 1.0
C      1  0.4308970000000  0.5558780000000  0.5734820000000 1.0
C      1  0.4295420000000  0.4215680000000  0.5480830000000 1.0
C      1  0.4350720000000  0.4413600000000  0.4275100000000 1.0
C      1  0.4311840000000  0.5789710000000  0.4513240000000 1.0
C      1  0.4543760000000  0.5544690000000  0.5920650000000 1.0
C      1  0.4459430000000  0.3998520000000  0.5483810000000 1.0
C      1  0.4545880000000  0.4332430000000  0.4093450000000 1.0
C      1  0.4491480000000  0.5994430000000  0.4538040000000 1.0
C      1  0.5452050000000  0.5613700000000  0.5927570000000 1.0
C      1  0.5462460000000  0.4048110000000  0.5545340000000 1.0
C      1  0.5444010000000  0.4364270000000  0.4095050000000 1.0
C      1  0.5484680000000  0.5977980000000  0.4410860000000 1.0
C      1  0.4724230000000  0.4775390000000  0.4195490000000 1.0
C      1  0.4745970000000  0.5843670000000  0.4806730000000 1.0
C      1  0.4680120000000  0.5251910000000  0.5840620000000 1.0
C      1  0.4699680000000  0.4168960000000  0.5214470000000 1.0
C      1  0.5288980000000  0.4722620000000  0.4178740000000 1.0
C      1  0.5314600000000  0.5823660000000  0.4736800000000 1.0
C      1  0.5234890000000  0.5181660000000  0.5828270000000 1.0
C      1  0.5247890000000  0.4163680000000  0.5208110000000 1.0
C      1  0.6014480000000  0.4701650000000  0.4516190000000 1.0
C      1  0.6002390000000  0.5454230000000  0.4709270000000 1.0
C      1  0.6022930000000  0.5304490000000  0.5460940000000 1.0
C      1  0.6026770000000  0.4571790000000  0.5269750000000 1.0
C      1  0.3996550000000  0.4715450000000  0.4517910000000 1.0
C      1  0.3965470000000  0.5445390000000  0.4720610000000 1.0
C      1  0.3970830000000  0.5289690000000  0.5469230000000 1.0
C      1  0.3952320000000  0.4557710000000  0.5265900000000 1.0
C      1  0.4441270000000  0.4645240000000  0.5182200000000 1.0
C      1  0.4479390000000  0.4861260000000  0.4689430000000 1.0
C      1  0.4435530000000  0.5374580000000  0.4836950000000 1.0
C      1  0.4452620000000  0.5156780000000  0.5328580000000 1.0
C      1  0.5579800000000  0.4622840000000  0.5143200000000 1.0
C      1  0.5535810000000  0.4848700000000  0.4664280000000 1.0
C      1  0.5541960000000  0.5351740000000  0.4799310000000 1.0
C      1  0.5532910000000  0.5147360000000  0.5306960000000 1.0
C      1  0.4863630000000  0.5470320000000  0.6013050000000 1.0
C      1  0.4798220000000  0.3988220000000  0.5456830000000 1.0
C      1  0.4809510000000  0.4533860000000  0.4038830000000 1.0
C      1  0.4830540000000  0.6014180000000  0.4554310000000 1.0
C      1  0.5177240000000  0.5430810000000  0.5980650000000 1.0
C      1  0.5137850000000  0.3994450000000  0.5448950000000 1.0
C      1  0.5131910000000  0.4489380000000  0.4027380000000 1.0
C      1  0.5166940000000  0.6016890000000  0.4532380000000 1.0
C      1  0.4670380000000  0.4835330000000  0.5188470000000 1.0
C      1  0.4732570000000  0.4867440000000  0.4879030000000 1.0
C      1  0.4663560000000  0.5181670000000  0.4842040000000 1.0
C      1  0.4712230000000  0.5152570000000  0.5156460000000 1.0
C      1  0.5342770000000  0.4825420000000  0.5170980000000 1.0
C      1  0.5289660000000  0.4855490000000  0.4852110000000 1.0
C      1  0.5301630000000  0.5172850000000  0.4812150000000 1.0
C      1  0.5271640000000  0.5142700000000  0.5128270000000 1.0
C      1  0.5911460000000  0.4478740000000  0.5515230000000 1.0
C      1  0.5924750000000  0.4437890000000  0.4453720000000 1.0
C      1  0.5913890000000  0.5531640000000  0.4447050000000 1.0
C      1  0.5914260000000  0.5553950000000  0.5542150000000 1.0
C      1  0.4063450000000  0.4462870000000  0.5512720000000 1.0
C      1  0.4082390000000  0.4454550000000  0.4450560000000 1.0
C      1  0.4076370000000  0.5546070000000  0.4474740000000 1.0
C      1  0.4049070000000  0.5555110000000  0.5541430000000 1.0
C      1  0.4418410000000  0.4094650000000  0.5061850000000 1.0
C      1  0.4567420000000  0.5000560000000  0.4123210000000 1.0
C      1  0.4445270000000  0.5890520000000  0.4939410000000 1.0
C      1  0.4530380000000  0.5003030000000  0.5901560000000 1.0
C      1  0.5551010000000  0.4117560000000  0.5077200000000 1.0
C      1  0.5438220000000  0.4951900000000  0.4096870000000 1.0
C      1  0.5454850000000  0.5888640000000  0.4973820000000 1.0
C      1  0.5528200000000  0.5051420000000  0.5891860000000 1.0
C      1  0.5758460000000  0.4975820000000  0.5173440000000 1.0
C      1  0.5790230000000  0.4722060000000  0.4942350000000 1.0
C      1  0.5768520000000  0.5024050000000  0.4777610000000 1.0
C      1  0.5761340000000  0.5277160000000  0.5008630000000 1.0
C      1  0.4228120000000  0.4981000000000  0.5200610000000 1.0
C      1  0.4228970000000  0.4727250000000  0.4968780000000 1.0
C      1  0.4240850000000  0.5029930000000  0.4805340000000 1.0
C      1  0.4214620000000  0.5284180000000  0.5036190000000 1.0
C      1  0.3907990000000  0.4866660000000  0.5150810000000 1.0
C      1  0.3927520000000  0.4789980000000  0.4815730000000 1.0
C      1  0.3913330000000  0.5131670000000  0.4833270000000 1.0
C      1  0.3906910000000  0.5208600000000  0.5168830000000 1.0
C      1  0.6087590000000  0.4882750000000  0.5145540000000 1.0
C      1  0.6095900000000  0.4804490000000  0.4810580000000 1.0
C      1  0.6085900000000  0.5146400000000  0.4827250000000 1.0
C      1  0.6064930000000  0.5224930000000  0.5161730000000 1.0
C      1  0.4622960000000  0.4239000000000  0.4629530000000 1.0
C      1  0.4639470000000  0.5467780000000  0.4221900000000 1.0
C      1  0.4605340000000  0.5787210000000  0.5397820000000 1.0
C      1  0.4609960000000  0.4541840000000  0.5799140000000 1.0
C      1  0.5384830000000  0.4217280000000  0.4622600000000 1.0
C      1  0.5372370000000  0.5416530000000  0.4178560000000 1.0
C      1  0.5361390000000  0.5759040000000  0.5430560000000 1.0
C      1  0.5365640000000  0.4604030000000  0.5781480000000 1.0
C      1  0.5752770000000  0.4940640000000  0.5761970000000 1.0
C      1  0.5775610000000  0.4231350000000  0.4946470000000 1.0
C      1  0.5691000000000  0.5040550000000  0.4219080000000 1.0
C      1  0.5705050000000  0.5767960000000  0.5058430000000 1.0
C      1  0.4287630000000  0.4928920000000  0.5765710000000 1.0
C      1  0.4205310000000  0.4225420000000  0.4928710000000 1.0
C      1  0.4314380000000  0.5079210000000  0.4241560000000 1.0
C      1  0.4216330000000  0.5778660000000  0.5063220000000 1.0
C      1  0.4758610000000  0.5415570000000  0.4533380000000 1.0
C      1  0.4727370000000  0.5482920000000  0.5379720000000 1.0
C      1  0.4745780000000  0.4611580000000  0.5508540000000 1.0
C      1  0.4750070000000  0.4540810000000  0.4653330000000 1.0
C      1  0.5230930000000  0.5376750000000  0.4477380000000 1.0
C      1  0.5239580000000  0.5444710000000  0.5385820000000 1.0
C      1  0.5229340000000  0.4599820000000  0.5479080000000 1.0
C      1  0.5258250000000  0.4517720000000  0.4640470000000 1.0
C      1  0.5688320000000  0.5345340000000  0.4272550000000 1.0
C      1  0.5685220000000  0.5704650000000  0.5356470000000 1.0
C      1  0.5689480000000  0.4658250000000  0.5690270000000 1.0
C      1  0.5710210000000  0.4284900000000  0.4660090000000 1.0
C      1  0.4317440000000  0.5381650000000  0.4298590000000 1.0
C      1  0.4273230000000  0.5726700000000  0.5354000000000 1.0
C      1  0.4293160000000  0.4626110000000  0.5704020000000 1.0
C      1  0.4293920000000  0.4300830000000  0.4654060000000 1.0
C      1  0.5319060000000  0.4084670000000  0.4378820000000 1.0
C      1  0.5316080000000  0.5685810000000  0.4042710000000 1.0
C      1  0.5274950000000  0.5884580000000  0.5694600000000 1.0
C      1  0.5313370000000  0.4356080000000  0.5917830000000 1.0
C      1  0.4708480000000  0.4114740000000  0.4385870000000 1.0
C      1  0.4733080000000  0.5745180000000  0.4129290000000 1.0
C      1  0.4689320000000  0.5914020000000  0.5643740000000 1.0
C      1  0.4720020000000  0.4265020000000  0.5879370000000 1.0
C      1  0.5275420000000  0.4065630000000  0.4884400000000 1.0
C      1  0.5269420000000  0.5174700000000  0.4026550000000 1.0
C      1  0.5275520000000  0.5933030000000  0.5193490000000 1.0
C      1  0.5248280000000  0.4860660000000  0.5930700000000 1.0
C      1  0.4710510000000  0.4073320000000  0.4888160000000 1.0
C      1  0.4730530000000  0.5226190000000  0.4053230000000 1.0
C      1  0.4720970000000  0.5931780000000  0.5134460000000 1.0
C      1  0.4698890000000  0.4783870000000  0.5966780000000 1.0
C      1  0.5552820000000  0.5410750000000  0.5458400000000 1.0
C      1  0.5528880000000  0.4529470000000  0.5425430000000 1.0
C      1  0.5561750000000  0.4567840000000  0.4548490000000 1.0
C      1  0.5530540000000  0.5490950000000  0.4536360000000 1.0
C      1  0.4416010000000  0.5438340000000  0.5444130000000 1.0
C      1  0.4450560000000  0.4492440000000  0.5437520000000 1.0
C      1  0.4445030000000  0.4586850000000  0.4548160000000 1.0
C      1  0.4456890000000  0.5509010000000  0.4572900000000 1.0
C      1  0.4961080000000  0.4802290000000  0.6035250000000 1.0
C      1  0.4995040000000  0.5185240000000  0.3967730000000 1.0
C      1  0.5018380000000  0.6015510000000  0.5182300000000 1.0
C      1  0.4989610000000  0.3946110000000  0.4836530000000 1.0
END
