TITL C-2782233-7966-161 -0.00383120704351886 125000 -799.542241932055 0 0 139 (C1) n - 1
REM
REM in /home/nfs/bkarasulu/CARBON/AIRSS/Generating-Clusters/REBO/Higher-Symm/SD-CG/HFTN-CG
REM
REM
REM
REM
REM
REM ./C.cell (12c818d87b63d06a65506943cc24bca4)
REM
REM compiler GCC version 9.2.1 20190827 (Red Hat 9.2.1-1)
REM options -cpp -mtune=generic -march=x86-64 -g -O0 -fpre-include=/usr/include/finclude/math-vector-fortran.h
REM seed 383598757 1135917272 -28019765 -1908489747 -1218111351 250389561 1417403018 -1229562991 -548860676 -1249121421 1452388075 -2099934882 -2034439392 -720975887 1586764798 203826561 192713530 1459231113 829867526 -570920768 1821214396 1555109458 -335300598 -595421804 1342626308 -1426098352 1990294577 -220295297 1487637834 1278756848 -1351026992 1293759128 -774660658
REM
CELL 1.54180   50.00000   50.00000   50.00000   90.00000   90.00000   90.00000
LATT -1
SFAC C  
C      1  0.5130120000000  0.4640310000000  0.4179460000000 1.0
C      1  0.5256580000000  0.5477470000000  0.5248910000000 1.0
C      1  0.4802380000000  0.5890900000000  0.5150290000000 1.0
C      1  0.5166670000000  0.5803340000000  0.5285470000000 1.0
C      1  0.5084090000000  0.5659950000000  0.5698530000000 1.0
C      1  0.4633010000000  0.4778650000000  0.4175460000000 1.0
C      1  0.4565650000000  0.4901160000000  0.4992850000000 1.0
C      1  0.5974450000000  0.4951800000000  0.4512950000000 1.0
C      1  0.5578360000000  0.4537790000000  0.5719640000000 1.0
C      1  0.5322520000000  0.4436610000000  0.4216280000000 1.0
C      1  0.5909010000000  0.5392780000000  0.4721000000000 1.0
C      1  0.4628380000000  0.5654410000000  0.5421540000000 1.0
C      1  0.4410410000000  0.4724780000000  0.5171380000000 1.0
C      1  0.5393180000000  0.4162300000000  0.4699640000000 1.0
C      1  0.4552980000000  0.5069260000000  0.5426540000000 1.0
C      1  0.4357790000000  0.5169170000000  0.5200670000000 1.0
C      1  0.5086610000000  0.5977990000000  0.5007580000000 1.0
C      1  0.4679860000000  0.4221910000000  0.5369630000000 1.0
C      1  0.5829900000000  0.4532480000000  0.4982090000000 1.0
C      1  0.4797450000000  0.5250270000000  0.5535270000000 1.0
C      1  0.5195480000000  0.4071030000000  0.4913390000000 1.0
C      1  0.5290250000000  0.5285120000000  0.5472160000000 1.0
C      1  0.4351500000000  0.4629480000000  0.5603300000000 1.0
C      1  0.5824910000000  0.4778060000000  0.5200760000000 1.0
C      1  0.4437830000000  0.5842020000000  0.5301670000000 1.0
C      1  0.4925050000000  0.5193160000000  0.5900830000000 1.0
C      1  0.4306900000000  0.5166700000000  0.4408090000000 1.0
C      1  0.5377420000000  0.4711170000000  0.5841570000000 1.0
C      1  0.4814190000000  0.4930340000000  0.5301530000000 1.0
C      1  0.5879300000000  0.4756970000000  0.4772550000000 1.0
C      1  0.5716780000000  0.4246240000000  0.5132620000000 1.0
C      1  0.5414640000000  0.5001830000000  0.5415940000000 1.0
C      1  0.4829590000000  0.5686360000000  0.4878350000000 1.0
C      1  0.5165420000000  0.5663930000000  0.4913150000000 1.0
C      1  0.4808470000000  0.5033160000000  0.4915130000000 1.0
C      1  0.4762720000000  0.4702330000000  0.4579450000000 1.0
C      1  0.5300710000000  0.4256000000000  0.4454260000000 1.0
C      1  0.6002860000000  0.5217930000000  0.4534890000000 1.0
C      1  0.5533720000000  0.4532760000000  0.4649140000000 1.0
C      1  0.5117050000000  0.4391010000000  0.5133320000000 1.0
C      1  0.4601470000000  0.5590890000000  0.4346820000000 1.0
C      1  0.4607290000000  0.4174180000000  0.4838110000000 1.0
C      1  0.5016140000000  0.4630860000000  0.4788170000000 1.0
C      1  0.4945810000000  0.4336300000000  0.5642980000000 1.0
C      1  0.4500760000000  0.5902530000000  0.4994300000000 1.0
C      1  0.5453740000000  0.5161530000000  0.4565440000000 1.0
C      1  0.4201870000000  0.5398540000000  0.5485600000000 1.0
C      1  0.5903320000000  0.5102760000000  0.5236720000000 1.0
C      1  0.4604900000000  0.4432010000000  0.4533060000000 1.0
C      1  0.4443630000000  0.4916980000000  0.5681660000000 1.0
C      1  0.4125510000000  0.4796480000000  0.5439370000000 1.0
C      1  0.5314570000000  0.4512770000000  0.4884540000000 1.0
C      1  0.4615250000000  0.4421720000000  0.5637150000000 1.0
C      1  0.5663880000000  0.4283140000000  0.4815480000000 1.0
C      1  0.5376600000000  0.5758720000000  0.4596810000000 1.0
C      1  0.5476480000000  0.4941660000000  0.4334600000000 1.0
C      1  0.5073980000000  0.4738230000000  0.5183500000000 1.0
C      1  0.5845500000000  0.5045350000000  0.4905590000000 1.0
C      1  0.5216010000000  0.4898660000000  0.4867650000000 1.0
C      1  0.4349580000000  0.4773610000000  0.4363960000000 1.0
C      1  0.5017370000000  0.4294000000000  0.4732210000000 1.0
C      1  0.4087260000000  0.4931570000000  0.4520860000000 1.0
C      1  0.5437330000000  0.4303480000000  0.5556670000000 1.0
C      1  0.5000690000000  0.4108430000000  0.5391030000000 1.0
C      1  0.5525690000000  0.5056520000000  0.4840220000000 1.0
C      1  0.4892550000000  0.5079320000000  0.4588450000000 1.0
C      1  0.4803500000000  0.5401210000000  0.4520130000000 1.0
C      1  0.4558870000000  0.5270710000000  0.4233020000000 1.0
C      1  0.5169890000000  0.5175470000000  0.5001980000000 1.0
C      1  0.4010410000000  0.4914470000000  0.4854160000000 1.0
C      1  0.4205610000000  0.4391360000000  0.5097520000000 1.0
C      1  0.5697860000000  0.4984860000000  0.5575770000000 1.0
C      1  0.4996760000000  0.5138710000000  0.4079450000000 1.0
C      1  0.5084050000000  0.5916060000000  0.4679170000000 1.0
C      1  0.5117050000000  0.4574800000000  0.5829950000000 1.0
C      1  0.5538400000000  0.4940320000000  0.5135770000000 1.0
C      1  0.5168310000000  0.5257880000000  0.4593170000000 1.0
C      1  0.4569840000000  0.5295430000000  0.4730540000000 1.0
C      1  0.4522300000000  0.5216270000000  0.5822510000000 1.0
C      1  0.5414010000000  0.4655560000000  0.5155200000000 1.0
C      1  0.5110030000000  0.5553380000000  0.4534120000000 1.0
C      1  0.5563660000000  0.5761800000000  0.4886240000000 1.0
C      1  0.5488860000000  0.5477380000000  0.4436290000000 1.0
C      1  0.5482090000000  0.4097960000000  0.5311470000000 1.0
C      1  0.4275920000000  0.4235920000000  0.4873290000000 1.0
C      1  0.5591720000000  0.4480560000000  0.5325830000000 1.0
C      1  0.4062080000000  0.5202470000000  0.5030880000000 1.0
C      1  0.5625550000000  0.5480250000000  0.4730000000000 1.0
C      1  0.5991710000000  0.5336130000000  0.5011780000000 1.0
C      1  0.4445090000000  0.4432320000000  0.5280420000000 1.0
C      1  0.4512690000000  0.5374510000000  0.5038660000000 1.0
C      1  0.4966360000000  0.5649490000000  0.4259100000000 1.0
C      1  0.4785980000000  0.4644720000000  0.5444710000000 1.0
C      1  0.5796410000000  0.5289940000000  0.5494610000000 1.0
C      1  0.4903250000000  0.5804350000000  0.5465860000000 1.0
C      1  0.5364370000000  0.5422800000000  0.4937950000000 1.0
C      1  0.5047150000000  0.4815880000000  0.4436730000000 1.0
C      1  0.5079390000000  0.5077930000000  0.5618770000000 1.0
C      1  0.4331220000000  0.4995480000000  0.4822920000000 1.0
C      1  0.4718480000000  0.4942760000000  0.5875830000000 1.0
C      1  0.4156190000000  0.5081630000000  0.5459010000000 1.0
C      1  0.4293160000000  0.4391590000000  0.4622810000000 1.0
C      1  0.5826950000000  0.5494360000000  0.5238690000000 1.0
C      1  0.4318080000000  0.5497570000000  0.4503810000000 1.0
C      1  0.4760020000000  0.5464500000000  0.5202800000000 1.0
C      1  0.5184610000000  0.4791410000000  0.5501200000000 1.0
C      1  0.4476210000000  0.5732880000000  0.4697900000000 1.0
C      1  0.5524050000000  0.5323930000000  0.5694010000000 1.0
C      1  0.4364610000000  0.4705830000000  0.4695120000000 1.0
C      1  0.4864030000000  0.4710020000000  0.5750280000000 1.0
C      1  0.5176010000000  0.4461680000000  0.5451940000000 1.0
C      1  0.4773790000000  0.4582450000000  0.5110490000000 1.0
C      1  0.4229440000000  0.5308860000000  0.4766420000000 1.0
C      1  0.4976110000000  0.4337430000000  0.4389920000000 1.0
C      1  0.4903040000000  0.5364060000000  0.4903420000000 1.0
C      1  0.4764450000000  0.4143290000000  0.4557190000000 1.0
C      1  0.4727480000000  0.5059040000000  0.4134440000000 1.0
C      1  0.5327050000000  0.4777090000000  0.4584710000000 1.0
C      1  0.5094050000000  0.5442950000000  0.4088340000000 1.0
C      1  0.4813480000000  0.5481860000000  0.5759870000000 1.0
C      1  0.5394710000000  0.5409520000000  0.4153610000000 1.0
C      1  0.5789580000000  0.4681930000000  0.5516480000000 1.0
C      1  0.4576620000000  0.4512080000000  0.4876800000000 1.0
C      1  0.5709130000000  0.4752390000000  0.4474290000000 1.0
C      1  0.4812770000000  0.4255670000000  0.5072050000000 1.0
C      1  0.4485520000000  0.5474740000000  0.5642320000000 1.0
C      1  0.4969750000000  0.5200310000000  0.5255120000000 1.0
C      1  0.4784900000000  0.5796790000000  0.4558480000000 1.0
C      1  0.4076770000000  0.4705500000000  0.5114360000000 1.0
C      1  0.4123810000000  0.5489390000000  0.5204390000000 1.0
C      1  0.5376560000000  0.5629230000000  0.5652100000000 1.0
C      1  0.5462150000000  0.5006540000000  0.5812070000000 1.0
C      1  0.5645650000000  0.5712420000000  0.5181740000000 1.0
C      1  0.4580640000000  0.4984630000000  0.4510850000000 1.0
C      1  0.5221490000000  0.4016540000000  0.5207220000000 1.0
C      1  0.5310480000000  0.5110970000000  0.4130410000000 1.0
C      1  0.5465740000000  0.5777950000000  0.5401240000000 1.0
C      1  0.4324240000000  0.5626900000000  0.4986300000000 1.0
C      1  0.4826450000000  0.4575790000000  0.4205760000000 1.0
END
