TITL C-2782227-3064-829 0.0617590334341482 125000 -406.551457674543 0 0 72 (C1) n - 1
REM
REM in /home/nfs/bkarasulu/CARBON/AIRSS/Generating-Clusters/REBO/Higher-Symm/SD-CG/HFTN-CG
REM
REM
REM
REM
REM
REM ./C.cell (12c818d87b63d06a65506943cc24bca4)
REM
REM compiler GCC version 9.2.1 20190827 (Red Hat 9.2.1-1)
REM options -cpp -mtune=generic -march=x86-64 -g -O0 -fpre-include=/usr/include/finclude/math-vector-fortran.h
REM seed -1514626379 -148182157 -1239182616 -1380686059 556050902 2137224360 1040069122 -2043173317 928554668 1817547311 1368310896 833095093 -866338038 -418552340 1102500562 -213473191 1049528851 -590927520 -1990562214 -1827363388 -682528458 -757101360 345412344 -278043655 -1336100219 -1171134989 278918404 -579504770 1353744813 -618577980 1215529295 -99101303 -1886507009
REM
CELL 1.54180   50.00000   50.00000   50.00000   90.00000   90.00000   90.00000
LATT -1
SFAC C  
C      1  0.4872130000000  0.4451660000000  0.5236640000000 1.0
C      1  0.4883630000000  0.5525890000000  0.5415420000000 1.0
C      1  0.4858010000000  0.5066330000000  0.4400860000000 1.0
C      1  0.4252910000000  0.4694600000000  0.4961110000000 1.0
C      1  0.4289860000000  0.5148920000000  0.5263460000000 1.0
C      1  0.4232700000000  0.5173560000000  0.4722510000000 1.0
C      1  0.5466970000000  0.5072050000000  0.5513910000000 1.0
C      1  0.5412900000000  0.5444880000000  0.4672630000000 1.0
C      1  0.5459650000000  0.4519080000000  0.4818370000000 1.0
C      1  0.4695960000000  0.4770990000000  0.5619820000000 1.0
C      1  0.4693790000000  0.5552450000000  0.4906870000000 1.0
C      1  0.4690190000000  0.4585830000000  0.4503600000000 1.0
C      1  0.5401850000000  0.4575730000000  0.5311120000000 1.0
C      1  0.5351100000000  0.5465110000000  0.5208760000000 1.0
C      1  0.5374000000000  0.4972410000000  0.4526200000000 1.0
C      1  0.4477440000000  0.4442150000000  0.4911030000000 1.0
C      1  0.4540650000000  0.5231850000000  0.5481350000000 1.0
C      1  0.4451920000000  0.5344530000000  0.4521260000000 1.0
C      1  0.4650520000000  0.4878920000000  0.4452390000000 1.0
C      1  0.4661670000000  0.4583780000000  0.5369560000000 1.0
C      1  0.4687080000000  0.5546210000000  0.5226510000000 1.0
C      1  0.4630610000000  0.5167370000000  0.4743170000000 1.0
C      1  0.4649590000000  0.4726140000000  0.4939930000000 1.0
C      1  0.4682290000000  0.5091630000000  0.5220300000000 1.0
C      1  0.5132310000000  0.4396800000000  0.5347760000000 1.0
C      1  0.5149820000000  0.5629370000000  0.5382510000000 1.0
C      1  0.5126000000000  0.4999880000000  0.4322090000000 1.0
C      1  0.5236230000000  0.5863260000000  0.5502540000000 1.0
C      1  0.5179860000000  0.4948960000000  0.4054040000000 1.0
C      1  0.5160410000000  0.4170560000000  0.5508160000000 1.0
C      1  0.5478120000000  0.4696500000000  0.4612780000000 1.0
C      1  0.5496930000000  0.4801360000000  0.5499860000000 1.0
C      1  0.5408990000000  0.5556060000000  0.4921040000000 1.0
C      1  0.5092850000000  0.5350580000000  0.3968600000000 1.0
C      1  0.5117740000000  0.3942120000000  0.5152060000000 1.0
C      1  0.5217580000000  0.5643610000000  0.5853140000000 1.0
C      1  0.4897530000000  0.4714340000000  0.4820340000000 1.0
C      1  0.4877630000000  0.4917720000000  0.5332750000000 1.0
C      1  0.4898260000000  0.5304740000000  0.4794380000000 1.0
C      1  0.4929640000000  0.4436170000000  0.4647480000000 1.0
C      1  0.4926480000000  0.4989480000000  0.5659040000000 1.0
C      1  0.4887550000000  0.5606790000000  0.4640150000000 1.0
C      1  0.5152210000000  0.5143310000000  0.4694220000000 1.0
C      1  0.5187550000000  0.4674560000000  0.5065610000000 1.0
C      1  0.5195940000000  0.5186780000000  0.5245880000000 1.0
C      1  0.5166400000000  0.4416030000000  0.4871280000000 1.0
C      1  0.5172480000000  0.5169510000000  0.5576160000000 1.0
C      1  0.5143630000000  0.5435550000000  0.4511160000000 1.0
C      1  0.5753120000000  0.5127530000000  0.4816570000000 1.0
C      1  0.5865360000000  0.4707260000000  0.5082600000000 1.0
C      1  0.5832580000000  0.5231000000000  0.5223320000000 1.0
C      1  0.4807090000000  0.5309240000000  0.5650120000000 1.0
C      1  0.4758950000000  0.5374040000000  0.4425930000000 1.0
C      1  0.4780910000000  0.4348090000000  0.4943530000000 1.0
C      1  0.4425530000000  0.4907700000000  0.5463580000000 1.0
C      1  0.4376490000000  0.5461510000000  0.4832990000000 1.0
C      1  0.4388010000000  0.4645190000000  0.4650510000000 1.0
C      1  0.5583490000000  0.5263100000000  0.5335020000000 1.0
C      1  0.5559770000000  0.5208360000000  0.4635420000000 1.0
C      1  0.5606000000000  0.4537830000000  0.5063060000000 1.0
C      1  0.5109280000000  0.5442820000000  0.5733960000000 1.0
C      1  0.5027050000000  0.5377940000000  0.4215940000000 1.0
C      1  0.5050590000000  0.4159110000000  0.5031070000000 1.0
C      1  0.4400020000000  0.4650610000000  0.5243220000000 1.0
C      1  0.4412310000000  0.5428060000000  0.5157340000000 1.0
C      1  0.4367500000000  0.4955090000000  0.4530580000000 1.0
C      1  0.4198370000000  0.5006810000000  0.4992750000000 1.0
C      1  0.5376680000000  0.4936230000000  0.5142270000000 1.0
C      1  0.5995110000000  0.5019130000000  0.5032760000000 1.0
C      1  0.5100600000000  0.4996890000000  0.4974460000000 1.0
C      1  0.4536250000000  0.5001720000000  0.4973170000000 1.0
C      1  0.5634560000000  0.4935430000000  0.5041640000000 1.0
END
