TITL C-2782239-8622-684 -0.0014335941166941 125000 -199.541513770527 0 0 34 (C1) n - 1
REM
REM in /home/nfs/bkarasulu/CARBON/AIRSS/Generating-Clusters/REBO/Higher-Symm/SD-CG/HFTN-CG
REM
REM
REM
REM
REM
REM ./C.cell (12c818d87b63d06a65506943cc24bca4)
REM
REM compiler GCC version 9.2.1 20190827 (Red Hat 9.2.1-1)
REM options -cpp -mtune=generic -march=x86-64 -g -O0 -fpre-include=/usr/include/finclude/math-vector-fortran.h
REM seed 1457811200 80358072 1110286125 -1319050667 24429993 276426070 1085933119 -27907504 -447471960 -1714531185 1997910165 106821370 -788813911 149585688 1399038780 -1748675426 -95707987 1730336443 -1228936673 354272762 -164067624 -623276388 197791261 -260103726 776127275 1085956201 -1012332863 -459191472 -842426884 -799331122 -15584273 1240620845 464678364
REM
CELL 1.54180   50.00000   50.00000   50.00000   90.00000   90.00000   90.00000
LATT -1
SFAC C  
C      1  0.5263040000000  0.4550400000000  0.5337520000000 1.0
C      1  0.5262160000000  0.5495230000000  0.5363750000000 1.0
C      1  0.5085830000000  0.4480840000000  0.4864220000000 1.0
C      1  0.5062050000000  0.5582450000000  0.4918110000000 1.0
C      1  0.5098770000000  0.5590370000000  0.4631630000000 1.0
C      1  0.5052180000000  0.4366850000000  0.4583580000000 1.0
C      1  0.4649900000000  0.4753280000000  0.5442380000000 1.0
C      1  0.4649550000000  0.5290090000000  0.5455370000000 1.0
C      1  0.4408830000000  0.4881690000000  0.5522860000000 1.0
C      1  0.4408430000000  0.5157910000000  0.5529530000000 1.0
C      1  0.4828290000000  0.5141180000000  0.4516690000000 1.0
C      1  0.4845120000000  0.4780790000000  0.4462570000000 1.0
C      1  0.5293970000000  0.5502090000000  0.5080640000000 1.0
C      1  0.5324660000000  0.4502850000000  0.5067070000000 1.0
C      1  0.5126050000000  0.5330720000000  0.5533840000000 1.0
C      1  0.5127710000000  0.4714100000000  0.5506130000000 1.0
C      1  0.5531510000000  0.4683930000000  0.4942170000000 1.0
C      1  0.5410210000000  0.5260820000000  0.4970570000000 1.0
C      1  0.4536990000000  0.5149170000000  0.4372230000000 1.0
C      1  0.4584560000000  0.4883530000000  0.4332170000000 1.0
C      1  0.5665960000000  0.5146010000000  0.5013420000000 1.0
C      1  0.5725750000000  0.4876970000000  0.4998690000000 1.0
C      1  0.4675090000000  0.5425610000000  0.5208740000000 1.0
C      1  0.4674440000000  0.4618630000000  0.5195780000000 1.0
C      1  0.4897900000000  0.4875520000000  0.5537090000000 1.0
C      1  0.4896920000000  0.5165030000000  0.5548220000000 1.0
C      1  0.5006170000000  0.5393830000000  0.4461010000000 1.0
C      1  0.4948460000000  0.4506590000000  0.4396980000000 1.0
C      1  0.4834600000000  0.5410480000000  0.4980810000000 1.0
C      1  0.4815950000000  0.4614760000000  0.4972500000000 1.0
C      1  0.5215300000000  0.5090210000000  0.4860580000000 1.0
C      1  0.5266010000000  0.4791620000000  0.4799340000000 1.0
C      1  0.4930280000000  0.4832920000000  0.4758090000000 1.0
C      1  0.4897330000000  0.5153530000000  0.4835740000000 1.0
END
