TITL C-2782233-7966-330 -0.00231431437035976 125000 -1092.22555055325 0 0 186 (C1) n - 1
REM
REM in /home/nfs/bkarasulu/CARBON/AIRSS/Generating-Clusters/REBO/Higher-Symm/SD-CG/HFTN-CG
REM
REM
REM
REM
REM
REM ./C.cell (12c818d87b63d06a65506943cc24bca4)
REM
REM compiler GCC version 9.2.1 20190827 (Red Hat 9.2.1-1)
REM options -cpp -mtune=generic -march=x86-64 -g -O0 -fpre-include=/usr/include/finclude/math-vector-fortran.h
REM seed 392530875 -89250442 39847450 -1848796805 932258082 1596913927 -627500336 -1757207230 -332058920 -645571582 -1395860888 446612707 2033455623 -632053422 -422166149 -665648552 -335011948 -1686953730 742135666 1153691640 318992437 1986838859 419492540 1134367235 -1660692630 -1412547115 -1365198994 1196469290 1346823715 1615986724 1726359795 918414726 -419629406
REM
CELL 1.54180   50.00000   50.00000   50.00000   90.00000   90.00000   90.00000
LATT -1
SFAC C  
C      1  0.4632710000000  0.5394460000000  0.5450030000000 1.0
C      1  0.5554840000000  0.5416250000000  0.5035670000000 1.0
C      1  0.4842740000000  0.5423940000000  0.4518780000000 1.0
C      1  0.4651760000000  0.4561720000000  0.5426950000000 1.0
C      1  0.5639330000000  0.4458370000000  0.4951470000000 1.0
C      1  0.4664520000000  0.4535880000000  0.4486190000000 1.0
C      1  0.4039830000000  0.4542580000000  0.5342730000000 1.0
C      1  0.5811310000000  0.4553000000000  0.5609120000000 1.0
C      1  0.5104740000000  0.4557030000000  0.4038640000000 1.0
C      1  0.3996420000000  0.5443830000000  0.5375330000000 1.0
C      1  0.5826430000000  0.5470450000000  0.5637740000000 1.0
C      1  0.5166720000000  0.5477240000000  0.3987540000000 1.0
C      1  0.5592540000000  0.5151190000000  0.5651180000000 1.0
C      1  0.5305020000000  0.5170930000000  0.4322470000000 1.0
C      1  0.4153420000000  0.5148250000000  0.5161560000000 1.0
C      1  0.5534530000000  0.4835250000000  0.5582520000000 1.0
C      1  0.5261390000000  0.4854400000000  0.4250570000000 1.0
C      1  0.4217460000000  0.4820340000000  0.5119420000000 1.0
C      1  0.3999150000000  0.4856970000000  0.5382490000000 1.0
C      1  0.5873440000000  0.4872310000000  0.5635550000000 1.0
C      1  0.5109760000000  0.4866530000000  0.3941480000000 1.0
C      1  0.3948480000000  0.5126290000000  0.5436340000000 1.0
C      1  0.5934120000000  0.5149960000000  0.5659340000000 1.0
C      1  0.5202650000000  0.5157900000000  0.4003100000000 1.0
C      1  0.4775550000000  0.4820760000000  0.4547170000000 1.0
C      1  0.4753430000000  0.4845000000000  0.5402940000000 1.0
C      1  0.5571710000000  0.4766850000000  0.4971390000000 1.0
C      1  0.4767720000000  0.5136870000000  0.4630570000000 1.0
C      1  0.4824840000000  0.5163050000000  0.5442690000000 1.0
C      1  0.5539650000000  0.5091940000000  0.4961680000000 1.0
C      1  0.5603570000000  0.4102460000000  0.4773320000000 1.0
C      1  0.4486610000000  0.4054220000000  0.4577290000000 1.0
C      1  0.4862580000000  0.4117930000000  0.5661750000000 1.0
C      1  0.5631530000000  0.5891990000000  0.4774880000000 1.0
C      1  0.4496940000000  0.5898310000000  0.4553230000000 1.0
C      1  0.4854850000000  0.5881830000000  0.5664350000000 1.0
C      1  0.4792550000000  0.4444740000000  0.4118960000000 1.0
C      1  0.4281380000000  0.4503600000000  0.5562930000000 1.0
C      1  0.5864760000000  0.4502420000000  0.5276680000000 1.0
C      1  0.4854370000000  0.5572790000000  0.4067460000000 1.0
C      1  0.4268020000000  0.5487090000000  0.5575990000000 1.0
C      1  0.5844740000000  0.5488360000000  0.5300890000000 1.0
C      1  0.4294040000000  0.5110980000000  0.4402730000000 1.0
C      1  0.4860100000000  0.5220360000000  0.6007210000000 1.0
C      1  0.5961080000000  0.5125170000000  0.4587920000000 1.0
C      1  0.4231980000000  0.4805110000000  0.4381990000000 1.0
C      1  0.4850880000000  0.4911540000000  0.5940620000000 1.0
C      1  0.5993870000000  0.4813190000000  0.4554210000000 1.0
C      1  0.4725010000000  0.5595390000000  0.4753600000000 1.0
C      1  0.4898040000000  0.5587860000000  0.5370100000000 1.0
C      1  0.5340340000000  0.5586540000000  0.4831740000000 1.0
C      1  0.4655910000000  0.4365290000000  0.4770410000000 1.0
C      1  0.4945560000000  0.4393360000000  0.5384080000000 1.0
C      1  0.5336020000000  0.4421360000000  0.4875450000000 1.0
C      1  0.5134470000000  0.4388960000000  0.4317040000000 1.0
C      1  0.4249050000000  0.4329900000000  0.5205720000000 1.0
C      1  0.5554460000000  0.4377840000000  0.5495820000000 1.0
C      1  0.5195090000000  0.5690240000000  0.4236440000000 1.0
C      1  0.4185070000000  0.5678570000000  0.5237720000000 1.0
C      1  0.5567330000000  0.5654890000000  0.5531700000000 1.0
C      1  0.4441310000000  0.4223370000000  0.5448740000000 1.0
C      1  0.5667280000000  0.4223000000000  0.5251300000000 1.0
C      1  0.4879520000000  0.4203780000000  0.4346390000000 1.0
C      1  0.4440350000000  0.5754500000000  0.5442520000000 1.0
C      1  0.5639700000000  0.5753700000000  0.5230370000000 1.0
C      1  0.4899710000000  0.5805710000000  0.4314740000000 1.0
C      1  0.4328150000000  0.4026270000000  0.4854130000000 1.0
C      1  0.5173490000000  0.4086810000000  0.5646330000000 1.0
C      1  0.5415220000000  0.4078950000000  0.4534140000000 1.0
C      1  0.4332980000000  0.5923450000000  0.4814270000000 1.0
C      1  0.5165320000000  0.5903730000000  0.5648030000000 1.0
C      1  0.5458530000000  0.5937480000000  0.4522590000000 1.0
C      1  0.3985380000000  0.4819240000000  0.5864800000000 1.0
C      1  0.6252200000000  0.4839190000000  0.5411160000000 1.0
C      1  0.4843610000000  0.4886600000000  0.3808370000000 1.0
C      1  0.4014200000000  0.5087800000000  0.5832070000000 1.0
C      1  0.6216150000000  0.5106790000000  0.5379670000000 1.0
C      1  0.4757110000000  0.5147010000000  0.3746300000000 1.0
C      1  0.4548810000000  0.5170070000000  0.5915870000000 1.0
C      1  0.6009270000000  0.5200570000000  0.4890400000000 1.0
C      1  0.4484580000000  0.5194460000000  0.4164260000000 1.0
C      1  0.4551660000000  0.4829750000000  0.5888720000000 1.0
C      1  0.6023570000000  0.4860130000000  0.4889880000000 1.0
C      1  0.4431900000000  0.4859570000000  0.4124200000000 1.0
C      1  0.4122210000000  0.5692000000000  0.4913460000000 1.0
C      1  0.5370330000000  0.5691970000000  0.5789070000000 1.0
C      1  0.5516770000000  0.5720080000000  0.4290810000000 1.0
C      1  0.4101500000000  0.4252100000000  0.4926640000000 1.0
C      1  0.5357730000000  0.4325900000000  0.5769410000000 1.0
C      1  0.5452190000000  0.4288390000000  0.4297420000000 1.0
C      1  0.5110690000000  0.4749930000000  0.6008550000000 1.0
C      1  0.5835970000000  0.4683280000000  0.4322940000000 1.0
C      1  0.4029180000000  0.4688920000000  0.4581940000000 1.0
C      1  0.5156550000000  0.5305000000000  0.6077810000000 1.0
C      1  0.5856680000000  0.5284650000000  0.4343980000000 1.0
C      1  0.4083730000000  0.5268580000000  0.4569790000000 1.0
C      1  0.5026970000000  0.5190500000000  0.5715310000000 1.0
C      1  0.5631630000000  0.5187450000000  0.4659800000000 1.0
C      1  0.4447070000000  0.5167290000000  0.4701990000000 1.0
C      1  0.4983650000000  0.4860440000000  0.5645980000000 1.0
C      1  0.5674620000000  0.4859660000000  0.4666850000000 1.0
C      1  0.4447830000000  0.4832100000000  0.4642970000000 1.0
C      1  0.5984420000000  0.4819650000000  0.5225570000000 1.0
C      1  0.4666620000000  0.4708990000000  0.3941730000000 1.0
C      1  0.4275600000000  0.4807990000000  0.5716910000000 1.0
C      1  0.5971250000000  0.5184820000000  0.5212140000000 1.0
C      1  0.4673330000000  0.5323970000000  0.3935560000000 1.0
C      1  0.4283190000000  0.5173740000000  0.5713570000000 1.0
C      1  0.4149390000000  0.4420590000000  0.4660030000000 1.0
C      1  0.5084870000000  0.4453030000000  0.5918390000000 1.0
C      1  0.5698000000000  0.4443090000000  0.4443160000000 1.0
C      1  0.4201800000000  0.5539730000000  0.4625950000000 1.0
C      1  0.5087170000000  0.5544460000000  0.5891220000000 1.0
C      1  0.5756310000000  0.5555930000000  0.4440250000000 1.0
C      1  0.4408020000000  0.4566430000000  0.4791300000000 1.0
C      1  0.5089130000000  0.4579630000000  0.5617460000000 1.0
C      1  0.5470380000000  0.4604570000000  0.4621570000000 1.0
C      1  0.4434750000000  0.5453340000000  0.4841730000000 1.0
C      1  0.5123380000000  0.5475700000000  0.5562230000000 1.0
C      1  0.5479200000000  0.5438900000000  0.4581640000000 1.0
C      1  0.4402410000000  0.5662090000000  0.4417650000000 1.0
C      1  0.4789470000000  0.5653220000000  0.5836230000000 1.0
C      1  0.5820500000000  0.5677750000000  0.4728810000000 1.0
C      1  0.4389510000000  0.4327480000000  0.4471660000000 1.0
C      1  0.4797700000000  0.4340660000000  0.5835640000000 1.0
C      1  0.5830520000000  0.4328670000000  0.4713340000000 1.0
C      1  0.5430410000000  0.4592050000000  0.4143190000000 1.0
C      1  0.4012350000000  0.4575810000000  0.5001730000000 1.0
C      1  0.5542530000000  0.4608070000000  0.5819360000000 1.0
C      1  0.5466790000000  0.5413880000000  0.4146970000000 1.0
C      1  0.3990580000000  0.5400120000000  0.5032460000000 1.0
C      1  0.5557250000000  0.5411670000000  0.5845350000000 1.0
C      1  0.5130900000000  0.5155330000000  0.5331290000000 1.0
C      1  0.5224800000000  0.5165470000000  0.4914580000000 1.0
C      1  0.4755650000000  0.5151430000000  0.4966490000000 1.0
C      1  0.5035090000000  0.4882170000000  0.5250830000000 1.0
C      1  0.5247500000000  0.4825540000000  0.4909990000000 1.0
C      1  0.4818840000000  0.4834250000000  0.4884550000000 1.0
C      1  0.4782740000000  0.4043830000000  0.4572910000000 1.0
C      1  0.4691490000000  0.4088300000000  0.5426020000000 1.0
C      1  0.5496310000000  0.4095460000000  0.5042920000000 1.0
C      1  0.4783680000000  0.5930690000000  0.4544450000000 1.0
C      1  0.4687780000000  0.5921770000000  0.5427300000000 1.0
C      1  0.5497850000000  0.5895330000000  0.5031040000000 1.0
C      1  0.5366000000000  0.5477630000000  0.5322780000000 1.0
C      1  0.5156930000000  0.5502450000000  0.4486730000000 1.0
C      1  0.4421150000000  0.5450210000000  0.5183900000000 1.0
C      1  0.5312230000000  0.4547670000000  0.5399330000000 1.0
C      1  0.5142790000000  0.4569100000000  0.4560140000000 1.0
C      1  0.4512980000000  0.4498820000000  0.5118660000000 1.0
C      1  0.5215000000000  0.4183870000000  0.4730410000000 1.0
C      1  0.4592090000000  0.4136680000000  0.4950400000000 1.0
C      1  0.5117590000000  0.4138100000000  0.5355390000000 1.0
C      1  0.5241010000000  0.5844450000000  0.4712020000000 1.0
C      1  0.4615670000000  0.5865560000000  0.4932230000000 1.0
C      1  0.5109940000000  0.5821590000000  0.5363830000000 1.0
C      1  0.4476170000000  0.4532650000000  0.4220980000000 1.0
C      1  0.4568750000000  0.4537300000000  0.5739760000000 1.0
C      1  0.5963560000000  0.4535170000000  0.4950650000000 1.0
C      1  0.4619570000000  0.5478150000000  0.4294600000000 1.0
C      1  0.4559760000000  0.5458460000000  0.5751220000000 1.0
C      1  0.5859770000000  0.5475210000000  0.4961200000000 1.0
C      1  0.4966420000000  0.4033550000000  0.4861580000000 1.0
C      1  0.4784180000000  0.4052540000000  0.5153510000000 1.0
C      1  0.5209660000000  0.4054920000000  0.5104020000000 1.0
C      1  0.4976400000000  0.5978580000000  0.4814770000000 1.0
C      1  0.4843080000000  0.6004610000000  0.5133840000000 1.0
C      1  0.5183250000000  0.5953430000000  0.5089750000000 1.0
C      1  0.4547450000000  0.4825840000000  0.5061220000000 1.0
C      1  0.5373590000000  0.4844480000000  0.5288820000000 1.0
C      1  0.5192810000000  0.4886900000000  0.4578200000000 1.0
C      1  0.4472810000000  0.5126160000000  0.5125710000000 1.0
C      1  0.5445590000000  0.5164430000000  0.5379460000000 1.0
C      1  0.5161120000000  0.5200890000000  0.4611810000000 1.0
C      1  0.4680760000000  0.5642170000000  0.5143820000000 1.0
C      1  0.5157630000000  0.5438520000000  0.5053480000000 1.0
C      1  0.4870640000000  0.5428580000000  0.5004720000000 1.0
C      1  0.4854430000000  0.4484430000000  0.5092340000000 1.0
C      1  0.5174260000000  0.4555000000000  0.5097870000000 1.0
C      1  0.4939780000000  0.4537220000000  0.4775240000000 1.0
C      1  0.5394730000000  0.5152970000000  0.5996340000000 1.0
C      1  0.5668100000000  0.5138100000000  0.4162520000000 1.0
C      1  0.3967720000000  0.5144280000000  0.4808680000000 1.0
C      1  0.5375910000000  0.4867570000000  0.5963980000000 1.0
C      1  0.5650240000000  0.4853710000000  0.4160620000000 1.0
C      1  0.3957280000000  0.4860500000000  0.4819460000000 1.0
END
