TITL C-2782235-7892-1196 -0.000748190715226182 125000 -390.221244948437 0 0 66 (C1) n - 1
REM
REM in /home/nfs/bkarasulu/CARBON/AIRSS/Generating-Clusters/REBO/Higher-Symm/SD-CG/HFTN-CG
REM
REM
REM
REM
REM
REM ./C.cell (12c818d87b63d06a65506943cc24bca4)
REM
REM compiler GCC version 9.2.1 20190827 (Red Hat 9.2.1-1)
REM options -cpp -mtune=generic -march=x86-64 -g -O0 -fpre-include=/usr/include/finclude/math-vector-fortran.h
REM seed 1985113558 1348766776 1423349295 942576217 913735779 -1876473353 -527127202 51641009 -967748121 857192939 -1342004921 1052914078 1011599708 1733834822 2095212584 5871884 -301337944 1724989958 -1968770535 -1360137546 -429388645 1850461764 -960600338 1699314024 243567307 -355120521 678036096 -857442251 1043005734 -1270682032 386512731 561579591 1431011124
REM
CELL 1.54180   50.00000   50.00000   50.00000   90.00000   90.00000   90.00000
LATT -1
SFAC C  
C      1  0.5139580000000  0.4127070000000  0.5558840000000 1.0
C      1  0.5164400000000  0.4628770000000  0.5643600000000 1.0
C      1  0.4969490000000  0.5086820000000  0.5567390000000 1.0
C      1  0.5003710000000  0.5575940000000  0.5810370000000 1.0
C      1  0.5227840000000  0.5803530000000  0.5417450000000 1.0
C      1  0.5234980000000  0.5778330000000  0.4940920000000 1.0
C      1  0.5094340000000  0.5434610000000  0.4571470000000 1.0
C      1  0.4983810000000  0.5022080000000  0.4363220000000 1.0
C      1  0.5150550000000  0.4583210000000  0.4283250000000 1.0
C      1  0.5259360000000  0.4229350000000  0.4577030000000 1.0
C      1  0.5186130000000  0.4216450000000  0.5046110000000 1.0
C      1  0.5729010000000  0.5552920000000  0.5505400000000 1.0
C      1  0.5632030000000  0.5485560000000  0.4864590000000 1.0
C      1  0.5590910000000  0.5287670000000  0.4671050000000 1.0
C      1  0.5757070000000  0.5083030000000  0.4566860000000 1.0
C      1  0.5656300000000  0.4858160000000  0.4448490000000 1.0
C      1  0.5736830000000  0.4443740000000  0.4711400000000 1.0
C      1  0.5868860000000  0.4562550000000  0.4919960000000 1.0
C      1  0.5732560000000  0.4670410000000  0.5132790000000 1.0
C      1  0.5648550000000  0.4780630000000  0.5635310000000 1.0
C      1  0.5793330000000  0.5006760000000  0.5677800000000 1.0
C      1  0.5721340000000  0.5258970000000  0.5585710000000 1.0
C      1  0.5112260000000  0.5779620000000  0.5669010000000 1.0
C      1  0.5117150000000  0.5906660000000  0.5171650000000 1.0
C      1  0.5111460000000  0.5679410000000  0.4708090000000 1.0
C      1  0.4877680000000  0.5282100000000  0.4445040000000 1.0
C      1  0.4943190000000  0.4773410000000  0.4228270000000 1.0
C      1  0.5141970000000  0.4302410000000  0.4328570000000 1.0
C      1  0.5152850000000  0.4082100000000  0.4795040000000 1.0
C      1  0.5138080000000  0.4093230000000  0.5290970000000 1.0
C      1  0.5164010000000  0.4357130000000  0.5699340000000 1.0
C      1  0.4966270000000  0.4804990000000  0.5708820000000 1.0
C      1  0.4953680000000  0.5315720000000  0.5772880000000 1.0
C      1  0.4337240000000  0.4820790000000  0.5319900000000 1.0
C      1  0.4410580000000  0.5100670000000  0.5422680000000 1.0
C      1  0.4300730000000  0.5371310000000  0.5327060000000 1.0
C      1  0.4177170000000  0.5501390000000  0.5069860000000 1.0
C      1  0.3987510000000  0.5470930000000  0.4868720000000 1.0
C      1  0.3959810000000  0.5339160000000  0.4633500000000 1.0
C      1  0.4089350000000  0.5154530000000  0.4467240000000 1.0
C      1  0.4064190000000  0.4840080000000  0.4473470000000 1.0
C      1  0.4021800000000  0.4653250000000  0.4682530000000 1.0
C      1  0.4218830000000  0.4602830000000  0.4884060000000 1.0
C      1  0.4171720000000  0.4659680000000  0.5159740000000 1.0
C      1  0.5322570000000  0.5256670000000  0.4585590000000 1.0
C      1  0.5246310000000  0.5003340000000  0.4488210000000 1.0
C      1  0.5372690000000  0.4708940000000  0.4481430000000 1.0
C      1  0.5424570000000  0.4477200000000  0.4691510000000 1.0
C      1  0.5323540000000  0.4467850000000  0.5005710000000 1.0
C      1  0.5455520000000  0.4634270000000  0.5196120000000 1.0
C      1  0.5381970000000  0.4761560000000  0.5469690000000 1.0
C      1  0.5265340000000  0.5062150000000  0.5450600000000 1.0
C      1  0.5441240000000  0.5286420000000  0.5444700000000 1.0
C      1  0.5452240000000  0.5608640000000  0.5337430000000 1.0
C      1  0.5470000000000  0.5636440000000  0.5033020000000 1.0
C      1  0.4482270000000  0.5502510000000  0.4998300000000 1.0
C      1  0.4556570000000  0.5500540000000  0.4728180000000 1.0
C      1  0.4606900000000  0.5346960000000  0.4496440000000 1.0
C      1  0.4396080000000  0.5187100000000  0.4397240000000 1.0
C      1  0.4365660000000  0.4876950000000  0.4394550000000 1.0
C      1  0.4540520000000  0.4695410000000  0.4526870000000 1.0
C      1  0.4497720000000  0.4619730000000  0.4798990000000 1.0
C      1  0.4687470000000  0.4683460000000  0.5002650000000 1.0
C      1  0.4634200000000  0.4831960000000  0.5235600000000 1.0
C      1  0.4750390000000  0.5105750000000  0.5368680000000 1.0
C      1  0.4627770000000  0.5378210000000  0.5243040000000 1.0
END
