TITL C-2782233-7966-732 5.91621670296922e-08 125000 -225.552065587104 0 0 39 (D3) n - 1
REM
REM in /home/nfs/bkarasulu/CARBON/AIRSS/Generating-Clusters/REBO/Higher-Symm/SD-CG/HFTN-CG
REM
REM
REM
REM
REM
REM ./C.cell (12c818d87b63d06a65506943cc24bca4)
REM
REM compiler GCC version 9.2.1 20190827 (Red Hat 9.2.1-1)
REM options -cpp -mtune=generic -march=x86-64 -g -O0 -fpre-include=/usr/include/finclude/math-vector-fortran.h
REM seed -1274410775 1462861581 637612828 -1864012223 1286919664 54334015 1921602699 1029727698 -818726328 1599596937 -1709784710 409421078 1180153049 1019631726 1202618175 -950813923 -568157205 -1023288861 -456993177 -451864607 -1167575302 2038683838 866787158 562446108 -630596292 512164055 -661674539 -1381801708 2141807714 -2019400631 -1516956432 835087499 -1197360072
REM
CELL 1.54180   50.00000   50.00000   50.00000   90.00000   90.00000   90.00000
LATT -1
SFAC C  
C      1  0.5130610000000  0.5040340000000  0.5717730000000 1.0
C      1  0.5135590000000  0.4359450000000  0.4675820000000 1.0
C      1  0.5129610000000  0.5602210000000  0.4607090000000 1.0
C      1  0.4858700000000  0.4938870000000  0.5715850000000 1.0
C      1  0.4856820000000  0.5649690000000  0.4694110000000 1.0
C      1  0.4863070000000  0.4409440000000  0.4589390000000 1.0
C      1  0.4827330000000  0.4658430000000  0.5679750000000 1.0
C      1  0.4829780000000  0.4580640000000  0.4364630000000 1.0
C      1  0.4823080000000  0.5758450000000  0.4954820000000 1.0
C      1  0.5162080000000  0.5321710000000  0.5689870000000 1.0
C      1  0.5163580000000  0.5437600000000  0.4377560000000 1.0
C      1  0.5168560000000  0.4243180000000  0.4933360000000 1.0
C      1  0.5613280000000  0.4381050000000  0.4577180000000 1.0
C      1  0.5606750000000  0.5680990000000  0.4674220000000 1.0
C      1  0.5608650000000  0.4946980000000  0.5751500000000 1.0
C      1  0.4379440000000  0.5630970000000  0.4593460000000 1.0
C      1  0.4385730000000  0.4328770000000  0.4652770000000 1.0
C      1  0.4380550000000  0.5031230000000  0.5750870000000 1.0
C      1  0.5292350000000  0.4586470000000  0.5665110000000 1.0
C      1  0.5294260000000  0.4633350000000  0.4308760000000 1.0
C      1  0.5287480000000  0.5784530000000  0.5027530000000 1.0
C      1  0.4697100000000  0.5394080000000  0.5675920000000 1.0
C      1  0.4699270000000  0.5386550000000  0.4318790000000 1.0
C      1  0.4703940000000  0.4215020000000  0.5003890000000 1.0
C      1  0.4956540000000  0.5280280000000  0.4262180000000 1.0
C      1  0.4953350000000  0.5498480000000  0.5611710000000 1.0
C      1  0.4960380000000  0.4220670000000  0.5125930000000 1.0
C      1  0.5037160000000  0.4741230000000  0.4254490000000 1.0
C      1  0.5036300000000  0.4483990000000  0.5597120000000 1.0
C      1  0.5030680000000  0.5775350000000  0.5148580000000 1.0
C      1  0.4635670000000  0.5561370000000  0.4534270000000 1.0
C      1  0.4635970000000  0.5119520000000  0.5719700000000 1.0
C      1  0.4641450000000  0.4313840000000  0.4744340000000 1.0
C      1  0.5357220000000  0.4452360000000  0.4519270000000 1.0
C      1  0.5353340000000  0.4859640000000  0.5717010000000 1.0
C      1  0.5350750000000  0.5693270000000  0.4765410000000 1.0
C      1  0.4991690000000  0.5691250000000  0.5412570000000 1.0
C      1  0.4996940000000  0.5011670000000  0.4195070000000 1.0
C      1  0.4998560000000  0.4297080000000  0.5392360000000 1.0
END
