TITL C-2782227-3064-419 -0.121736521679807 125000 -265.214297838223 0 0 46 (Ci) n - 1
REM
REM in /home/nfs/bkarasulu/CARBON/AIRSS/Generating-Clusters/REBO/Higher-Symm/SD-CG/HFTN-CG
REM
REM
REM
REM
REM
REM ./C.cell (12c818d87b63d06a65506943cc24bca4)
REM
REM compiler GCC version 9.2.1 20190827 (Red Hat 9.2.1-1)
REM options -cpp -mtune=generic -march=x86-64 -g -O0 -fpre-include=/usr/include/finclude/math-vector-fortran.h
REM seed 1137490652 -707044479 -537686785 -1222668423 -634124976 -704306321 -629690248 -446729675 -152380248 1645264054 -1738286462 1612173083 -1953207708 1929829151 -2109600613 -1453704855 -778143659 897986528 1304520674 837515609 -161664227 -563737228 -1835832451 101815264 572521388 -1634653208 438995858 -74563889 1877404514 916843989 509249774 -2076671441 -1498575740
REM
CELL 1.54180   50.00000   50.00000   50.00000   90.00000   90.00000   90.00000
LATT -1
SFAC C  
C      1  0.5302710000000  0.5463690000000  0.4612560000000 1.0
C      1  0.4697290000000  0.4536310000000  0.5387440000000 1.0
C      1  0.4890640000000  0.4865680000000  0.5485150000000 1.0
C      1  0.5109360000000  0.5134320000000  0.4514850000000 1.0
C      1  0.5445740000000  0.5199770000000  0.4500610000000 1.0
C      1  0.4554260000000  0.4800230000000  0.5499390000000 1.0
C      1  0.4281740000000  0.5008190000000  0.5847840000000 1.0
C      1  0.5718260000000  0.4991810000000  0.4152160000000 1.0
C      1  0.4941290000000  0.5245310000000  0.5143970000000 1.0
C      1  0.5058710000000  0.4754690000000  0.4856030000000 1.0
C      1  0.4801730000000  0.5166900000000  0.4878800000000 1.0
C      1  0.5198270000000  0.4833100000000  0.5121200000000 1.0
C      1  0.4447080000000  0.5466980000000  0.4994740000000 1.0
C      1  0.5552920000000  0.4533020000000  0.5005260000000 1.0
C      1  0.5258270000000  0.4492920000000  0.5438380000000 1.0
C      1  0.4741730000000  0.5507080000000  0.4561620000000 1.0
C      1  0.5393790000000  0.5547360000000  0.5359590000000 1.0
C      1  0.4606210000000  0.4452640000000  0.4640410000000 1.0
C      1  0.5144530000000  0.4285270000000  0.5090490000000 1.0
C      1  0.4855470000000  0.5714730000000  0.4909510000000 1.0
C      1  0.5487470000000  0.4552110000000  0.4723710000000 1.0
C      1  0.4512530000000  0.5447890000000  0.5276290000000 1.0
C      1  0.4954300000000  0.4454740000000  0.4979440000000 1.0
C      1  0.5045700000000  0.5545260000000  0.5020560000000 1.0
C      1  0.4959550000000  0.4995770000000  0.4715880000000 1.0
C      1  0.5040450000000  0.5004230000000  0.5284120000000 1.0
C      1  0.5587830000000  0.4971880000000  0.4398870000000 1.0
C      1  0.4412170000000  0.5028120000000  0.5601130000000 1.0
C      1  0.4488950000000  0.4454830000000  0.4897930000000 1.0
C      1  0.5511050000000  0.5545170000000  0.5102070000000 1.0
C      1  0.4989840000000  0.4557010000000  0.5511370000000 1.0
C      1  0.5010160000000  0.5442990000000  0.4488630000000 1.0
C      1  0.5609410000000  0.4736560000000  0.4551050000000 1.0
C      1  0.4390590000000  0.5263440000000  0.5448950000000 1.0
C      1  0.4896100000000  0.4459440000000  0.4644180000000 1.0
C      1  0.5103900000000  0.5540560000000  0.5355820000000 1.0
C      1  0.5964570000000  0.5029450000000  0.3686230000000 1.0
C      1  0.4035420000000  0.4970550000000  0.6313770000000 1.0
C      1  0.4790630000000  0.5486220000000  0.5320020000000 1.0
C      1  0.5209370000000  0.4513780000000  0.4679980000000 1.0
C      1  0.4157600000000  0.4989220000000  0.6082670000000 1.0
C      1  0.5842400000000  0.5010780000000  0.3917330000000 1.0
C      1  0.4679950000000  0.4464440000000  0.5114430000000 1.0
C      1  0.5320050000000  0.5535560000000  0.4885570000000 1.0
C      1  0.5373700000000  0.4624740000000  0.5211350000000 1.0
C      1  0.4626300000000  0.5375260000000  0.4788650000000 1.0
END
