TITL C-2782233-7966-553 -0.00315240760509485 125000 -952.407085845968 0 0 167 (C1) n - 1
REM
REM in /home/nfs/bkarasulu/CARBON/AIRSS/Generating-Clusters/REBO/Higher-Symm/SD-CG/HFTN-CG
REM
REM
REM
REM
REM
REM ./C.cell (12c818d87b63d06a65506943cc24bca4)
REM
REM compiler GCC version 9.2.1 20190827 (Red Hat 9.2.1-1)
REM options -cpp -mtune=generic -march=x86-64 -g -O0 -fpre-include=/usr/include/finclude/math-vector-fortran.h
REM seed 517619222 -17667293 -853359994 -2099074915 1653006663 944563403 285701030 1310077679 -2079426603 1384595312 -824264226 885707805 -1638741696 -501195347 500194948 -612797018 758278998 390636685 -62334166 242156264 1801463778 -102822564 -2026946396 265170383 1628660815 1767406597 -873668324 1384765191 -1098464303 1368964429 1232567573 -589654487 -1489018729
REM
CELL 1.54180   50.00000   50.00000   50.00000   90.00000   90.00000   90.00000
LATT -1
SFAC C  
C      1  0.4410410000000  0.4533630000000  0.4489270000000 1.0
C      1  0.4465350000000  0.5436770000000  0.5400240000000 1.0
C      1  0.5543030000000  0.4511320000000  0.4505800000000 1.0
C      1  0.5576900000000  0.5488510000000  0.5483620000000 1.0
C      1  0.4376850000000  0.5498010000000  0.4470350000000 1.0
C      1  0.4508540000000  0.4498410000000  0.5422700000000 1.0
C      1  0.5499640000000  0.5406570000000  0.4616530000000 1.0
C      1  0.5563140000000  0.4532530000000  0.5454990000000 1.0
C      1  0.5485630000000  0.4841030000000  0.4866890000000 1.0
C      1  0.5511360000000  0.5161460000000  0.5264710000000 1.0
C      1  0.4460960000000  0.4835660000000  0.4895120000000 1.0
C      1  0.4527070000000  0.5142460000000  0.5137710000000 1.0
C      1  0.5467640000000  0.5154860000000  0.4925660000000 1.0
C      1  0.5525000000000  0.4856140000000  0.5182270000000 1.0
C      1  0.4475250000000  0.5139070000000  0.4816430000000 1.0
C      1  0.4515600000000  0.4827680000000  0.5200170000000 1.0
C      1  0.4806880000000  0.4165300000000  0.5366140000000 1.0
C      1  0.4735970000000  0.5885200000000  0.4576820000000 1.0
C      1  0.5149950000000  0.4218440000000  0.5393330000000 1.0
C      1  0.5278050000000  0.5839020000000  0.4660380000000 1.0
C      1  0.4845280000000  0.5798260000000  0.5320110000000 1.0
C      1  0.4724940000000  0.4074560000000  0.4650690000000 1.0
C      1  0.5191080000000  0.5783920000000  0.5374410000000 1.0
C      1  0.5219180000000  0.4085840000000  0.4675520000000 1.0
C      1  0.5198780000000  0.5168060000000  0.5513630000000 1.0
C      1  0.5120960000000  0.4799410000000  0.4521690000000 1.0
C      1  0.4881300000000  0.5189760000000  0.5461830000000 1.0
C      1  0.4808570000000  0.4829400000000  0.4496640000000 1.0
C      1  0.5229710000000  0.4867540000000  0.5513480000000 1.0
C      1  0.5089690000000  0.5110690000000  0.4525960000000 1.0
C      1  0.4919480000000  0.4888710000000  0.5461330000000 1.0
C      1  0.4761560000000  0.5144380000000  0.4472930000000 1.0
C      1  0.6032780000000  0.4831470000000  0.5445160000000 1.0
C      1  0.6038190000000  0.5123480000000  0.4552270000000 1.0
C      1  0.3987810000000  0.4810280000000  0.5506580000000 1.0
C      1  0.3945630000000  0.5173360000000  0.4467940000000 1.0
C      1  0.6050090000000  0.5168410000000  0.5518580000000 1.0
C      1  0.6027690000000  0.4785280000000  0.4489260000000 1.0
C      1  0.3986210000000  0.5146820000000  0.5433780000000 1.0
C      1  0.3957100000000  0.4835470000000  0.4531780000000 1.0
C      1  0.4863000000000  0.4607530000000  0.5880310000000 1.0
C      1  0.4822950000000  0.5441600000000  0.4084230000000 1.0
C      1  0.5179580000000  0.4623500000000  0.5937940000000 1.0
C      1  0.5126400000000  0.5443660000000  0.4134520000000 1.0
C      1  0.4859830000000  0.5437950000000  0.5884670000000 1.0
C      1  0.4839870000000  0.4732660000000  0.4112980000000 1.0
C      1  0.5175440000000  0.5411780000000  0.5938350000000 1.0
C      1  0.5128000000000  0.4743610000000  0.4128310000000 1.0
C      1  0.4816130000000  0.4764170000000  0.5192410000000 1.0
C      1  0.4798630000000  0.5148500000000  0.4795690000000 1.0
C      1  0.5217720000000  0.4790380000000  0.5213890000000 1.0
C      1  0.5189450000000  0.5228450000000  0.4809530000000 1.0
C      1  0.4799390000000  0.5240960000000  0.5181330000000 1.0
C      1  0.4683630000000  0.4685120000000  0.4735980000000 1.0
C      1  0.5196650000000  0.5233180000000  0.5208350000000 1.0
C      1  0.5192240000000  0.4794060000000  0.4816620000000 1.0
C      1  0.4857450000000  0.4459460000000  0.5210110000000 1.0
C      1  0.4867070000000  0.5452430000000  0.4741110000000 1.0
C      1  0.5160840000000  0.4504260000000  0.5209420000000 1.0
C      1  0.5160350000000  0.5539300000000  0.4777990000000 1.0
C      1  0.4820120000000  0.5536550000000  0.5128950000000 1.0
C      1  0.4831960000000  0.4465680000000  0.4811790000000 1.0
C      1  0.5118990000000  0.5513680000000  0.5180840000000 1.0
C      1  0.5106760000000  0.4500690000000  0.4814310000000 1.0
C      1  0.5759650000000  0.4240620000000  0.5306060000000 1.0
C      1  0.5838840000000  0.5737330000000  0.4753700000000 1.0
C      1  0.4228350000000  0.4238950000000  0.5321070000000 1.0
C      1  0.4169170000000  0.5767070000000  0.4673770000000 1.0
C      1  0.5802790000000  0.5748500000000  0.5318270000000 1.0
C      1  0.5777660000000  0.4206520000000  0.4717680000000 1.0
C      1  0.4252710000000  0.5740420000000  0.5268980000000 1.0
C      1  0.4168510000000  0.4224650000000  0.4726040000000 1.0
C      1  0.4356500000000  0.5492450000000  0.5081270000000 1.0
C      1  0.4354940000000  0.4467190000000  0.4819550000000 1.0
C      1  0.5656070000000  0.5496790000000  0.5151770000000 1.0
C      1  0.5630200000000  0.4472340000000  0.4835210000000 1.0
C      1  0.4376820000000  0.4465860000000  0.5113290000000 1.0
C      1  0.4311380000000  0.5500330000000  0.4804040000000 1.0
C      1  0.5629880000000  0.4485080000000  0.5122420000000 1.0
C      1  0.5670110000000  0.5489610000000  0.4864340000000 1.0
C      1  0.5668320000000  0.4723330000000  0.5901110000000 1.0
C      1  0.5603410000000  0.5362600000000  0.4135160000000 1.0
C      1  0.4443210000000  0.4679650000000  0.5889290000000 1.0
C      1  0.4353350000000  0.5328990000000  0.4010690000000 1.0
C      1  0.5657690000000  0.5321450000000  0.5944450000000 1.0
C      1  0.5603390000000  0.4799160000000  0.4107990000000 1.0
C      1  0.4376590000000  0.5284390000000  0.5852470000000 1.0
C      1  0.4361720000000  0.4781490000000  0.4071800000000 1.0
C      1  0.5638070000000  0.5568050000000  0.5806800000000 1.0
C      1  0.5585790000000  0.4526970000000  0.4180950000000 1.0
C      1  0.4367020000000  0.5530550000000  0.5708110000000 1.0
C      1  0.4363510000000  0.4514370000000  0.4167880000000 1.0
C      1  0.5666230000000  0.4466850000000  0.5773180000000 1.0
C      1  0.5574160000000  0.5565920000000  0.4343720000000 1.0
C      1  0.4486950000000  0.4438690000000  0.5754820000000 1.0
C      1  0.4334550000000  0.5578250000000  0.4165500000000 1.0
C      1  0.3975370000000  0.4836600000000  0.5177990000000 1.0
C      1  0.3927190000000  0.5166050000000  0.4795610000000 1.0
C      1  0.6057410000000  0.4809500000000  0.5118490000000 1.0
C      1  0.6071660000000  0.5131380000000  0.4883870000000 1.0
C      1  0.3961770000000  0.5165310000000  0.5102250000000 1.0
C      1  0.3951280000000  0.4833340000000  0.4867640000000 1.0
C      1  0.6061610000000  0.5142230000000  0.5193660000000 1.0
C      1  0.6060790000000  0.4796850000000  0.4812490000000 1.0
C      1  0.5332920000000  0.4642360000000  0.5649920000000 1.0
C      1  0.5248280000000  0.5354250000000  0.4434760000000 1.0
C      1  0.4756130000000  0.4671330000000  0.5576640000000 1.0
C      1  0.4658710000000  0.5392100000000  0.4362430000000 1.0
C      1  0.5324020000000  0.5379490000000  0.5652520000000 1.0
C      1  0.5242330000000  0.4544590000000  0.4382120000000 1.0
C      1  0.4721680000000  0.5395760000000  0.5589810000000 1.0
C      1  0.4711180000000  0.4534720000000  0.4360520000000 1.0
C      1  0.4614610000000  0.5207260000000  0.3993680000000 1.0
C      1  0.4668330000000  0.4886010000000  0.5923380000000 1.0
C      1  0.5357300000000  0.5228240000000  0.4063990000000 1.0
C      1  0.5417110000000  0.4865620000000  0.5970320000000 1.0
C      1  0.4622850000000  0.4913810000000  0.4023650000000 1.0
C      1  0.4641530000000  0.5177580000000  0.5915330000000 1.0
C      1  0.5347470000000  0.4935570000000  0.4063580000000 1.0
C      1  0.5408180000000  0.5165540000000  0.5979540000000 1.0
C      1  0.4019810000000  0.5457490000000  0.4645100000000 1.0
C      1  0.4113410000000  0.4561190000000  0.5309100000000 1.0
C      1  0.5962550000000  0.5413200000000  0.4726360000000 1.0
C      1  0.5923120000000  0.4545810000000  0.5287450000000 1.0
C      1  0.4051470000000  0.4551410000000  0.4700800000000 1.0
C      1  0.4087100000000  0.5433710000000  0.5274350000000 1.0
C      1  0.5924240000000  0.4516050000000  0.4673680000000 1.0
C      1  0.5940240000000  0.5431560000000  0.5328290000000 1.0
C      1  0.4833960000000  0.4273200000000  0.4461820000000 1.0
C      1  0.4860800000000  0.5682430000000  0.5633480000000 1.0
C      1  0.5119530000000  0.4280740000000  0.4480040000000 1.0
C      1  0.5175300000000  0.5663080000000  0.5694650000000 1.0
C      1  0.4826280000000  0.5673640000000  0.4354530000000 1.0
C      1  0.4849970000000  0.4358710000000  0.5634170000000 1.0
C      1  0.5151630000000  0.5663400000000  0.4398040000000 1.0
C      1  0.5165120000000  0.4368730000000  0.5700810000000 1.0
C      1  0.5901330000000  0.5181610000000  0.5814320000000 1.0
C      1  0.5782920000000  0.4918100000000  0.4323690000000 1.0
C      1  0.4187230000000  0.5096570000000  0.5697750000000 1.0
C      1  0.4187250000000  0.4909020000000  0.4292070000000 1.0
C      1  0.5873200000000  0.4881240000000  0.5730780000000 1.0
C      1  0.5791050000000  0.5230630000000  0.4344450000000 1.0
C      1  0.4174630000000  0.4794220000000  0.5784280000000 1.0
C      1  0.4175810000000  0.5220030000000  0.4240470000000 1.0
C      1  0.5494030000000  0.4100050000000  0.4877000000000 1.0
C      1  0.5492290000000  0.5853940000000  0.5218510000000 1.0
C      1  0.4454060000000  0.4084910000000  0.4857650000000 1.0
C      1  0.4555210000000  0.5833330000000  0.5133670000000 1.0
C      1  0.5545200000000  0.5867880000000  0.4874320000000 1.0
C      1  0.5440480000000  0.4148440000000  0.5218260000000 1.0
C      1  0.4472850000000  0.5866110000000  0.4795340000000 1.0
C      1  0.4513630000000  0.4099930000000  0.5198590000000 1.0
C      1  0.4384780000000  0.4802340000000  0.5513200000000 1.0
C      1  0.4336590000000  0.5180030000000  0.4542630000000 1.0
C      1  0.5638170000000  0.4854510000000  0.5485770000000 1.0
C      1  0.5651810000000  0.5122860000000  0.4640290000000 1.0
C      1  0.4382180000000  0.5124700000000  0.5427220000000 1.0
C      1  0.4349620000000  0.4841050000000  0.4584120000000 1.0
C      1  0.5656890000000  0.5175820000000  0.5571990000000 1.0
C      1  0.5646970000000  0.4795680000000  0.4605480000000 1.0
C      1  0.5323000000000  0.5670940000000  0.5015540000000 1.0
C      1  0.5289080000000  0.4328560000000  0.4983400000000 1.0
C      1  0.4676900000000  0.5636190000000  0.4881260000000 1.0
C      1  0.4703860000000  0.4269920000000  0.4996680000000 1.0
C      1  0.4981420000000  0.6000420000000  0.4674930000000 1.0
C      1  0.4971430000000  0.3945970000000  0.4758650000000 1.0
C      1  0.5011270000000  0.5002820000000  0.5025620000000 1.0
END
