TITL C-2782226-7400-1427 0.00101818226506443 125000 -1144.71956182281 0 0 200 (C1) n - 1
REM
REM in /home/nfs/bkarasulu/CARBON/AIRSS/Generating-Clusters/REBO/Higher-Symm/SD-CG/HFTN-CG
REM
REM
REM
REM
REM
REM ./C.cell (12c818d87b63d06a65506943cc24bca4)
REM
REM compiler GCC version 9.2.1 20190827 (Red Hat 9.2.1-1)
REM options -cpp -mtune=generic -march=x86-64 -g -O0 -fpre-include=/usr/include/finclude/math-vector-fortran.h
REM seed -785474912 -1619255007 817926837 1305500544 -1762932519 517363831 1913710610 -1226687995 -2032778674 2069181781 631379016 -1018407388 -712138466 2016239724 1558156470 982104347 1581908821 1846821340 49036807 -2109941707 -1910176150 417368272 -1059889924 -1471890288 -657032728 -1265547822 -74771757 816255286 -907244339 -204129839 -5634559 9115750 2057136679
REM
CELL 1.54180   50.00000   50.00000   50.00000   90.00000   90.00000   90.00000
LATT -1
SFAC C  
C      1  0.4493840000000  0.4005050000000  0.4786080000000 1.0
C      1  0.4753460000000  0.4006220000000  0.5547280000000 1.0
C      1  0.5482390000000  0.3991750000000  0.5231780000000 1.0
C      1  0.5233340000000  0.4045530000000  0.4474550000000 1.0
C      1  0.4470150000000  0.5971360000000  0.4774340000000 1.0
C      1  0.4784040000000  0.5967430000000  0.5498710000000 1.0
C      1  0.5525810000000  0.5977240000000  0.5217970000000 1.0
C      1  0.5223910000000  0.5999230000000  0.4489440000000 1.0
C      1  0.5447440000000  0.5130470000000  0.5453590000000 1.0
C      1  0.5575780000000  0.5166330000000  0.4539250000000 1.0
C      1  0.4593860000000  0.5178530000000  0.4376240000000 1.0
C      1  0.4452770000000  0.5156230000000  0.5418970000000 1.0
C      1  0.5411920000000  0.4800280000000  0.5542000000000 1.0
C      1  0.5511330000000  0.4837440000000  0.4602770000000 1.0
C      1  0.4567400000000  0.4850010000000  0.4464290000000 1.0
C      1  0.4403830000000  0.4818150000000  0.5428940000000 1.0
C      1  0.4499260000000  0.4143980000000  0.5538520000000 1.0
C      1  0.5491990000000  0.4114800000000  0.5495590000000 1.0
C      1  0.5488150000000  0.4181050000000  0.4486960000000 1.0
C      1  0.4497080000000  0.4128740000000  0.4525880000000 1.0
C      1  0.4514860000000  0.5848930000000  0.5499370000000 1.0
C      1  0.5539720000000  0.5828640000000  0.5466900000000 1.0
C      1  0.5492190000000  0.5885000000000  0.4478190000000 1.0
C      1  0.4476920000000  0.5857420000000  0.4510010000000 1.0
C      1  0.4198400000000  0.4574240000000  0.5064760000000 1.0
C      1  0.5013600000000  0.4582290000000  0.5752220000000 1.0
C      1  0.5723330000000  0.4575440000000  0.5038000000000 1.0
C      1  0.4939630000000  0.4582810000000  0.4200880000000 1.0
C      1  0.4247490000000  0.5364050000000  0.5022520000000 1.0
C      1  0.5074780000000  0.5363360000000  0.5726190000000 1.0
C      1  0.5742360000000  0.5409700000000  0.4961720000000 1.0
C      1  0.4934370000000  0.5441800000000  0.4172560000000 1.0
C      1  0.5445860000000  0.4839850000000  0.5878340000000 1.0
C      1  0.5832440000000  0.4874230000000  0.4645080000000 1.0
C      1  0.4540850000000  0.4868730000000  0.4129530000000 1.0
C      1  0.4069240000000  0.4814530000000  0.5493990000000 1.0
C      1  0.5545110000000  0.5107030000000  0.5755850000000 1.0
C      1  0.5912020000000  0.5186830000000  0.4563700000000 1.0
C      1  0.4545800000000  0.5189610000000  0.4041820000000 1.0
C      1  0.4138760000000  0.5126090000000  0.5479820000000 1.0
C      1  0.5235240000000  0.6000190000000  0.5081860000000 1.0
C      1  0.5072280000000  0.5986390000000  0.4791910000000 1.0
C      1  0.4761960000000  0.5977560000000  0.4921020000000 1.0
C      1  0.4929760000000  0.5988050000000  0.5201570000000 1.0
C      1  0.5181600000000  0.3987930000000  0.5079770000000 1.0
C      1  0.5078280000000  0.4013250000000  0.4765150000000 1.0
C      1  0.4793940000000  0.4010740000000  0.4946070000000 1.0
C      1  0.4906660000000  0.3991490000000  0.5257310000000 1.0
C      1  0.5085680000000  0.4589630000000  0.4808220000000 1.0
C      1  0.4776120000000  0.4585570000000  0.4912580000000 1.0
C      1  0.4873890000000  0.4566090000000  0.5225890000000 1.0
C      1  0.5188480000000  0.4557820000000  0.5128550000000 1.0
C      1  0.5114100000000  0.5406750000000  0.4755250000000 1.0
C      1  0.4798550000000  0.5402450000000  0.4861330000000 1.0
C      1  0.4902870000000  0.5419190000000  0.5176660000000 1.0
C      1  0.5214400000000  0.5418920000000  0.5070070000000 1.0
C      1  0.4766580000000  0.4301720000000  0.4425860000000 1.0
C      1  0.4390290000000  0.4271800000000  0.5242520000000 1.0
C      1  0.5215880000000  0.4263190000000  0.5625910000000 1.0
C      1  0.5579470000000  0.4297470000000  0.4789690000000 1.0
C      1  0.4769010000000  0.5730760000000  0.4410030000000 1.0
C      1  0.4405660000000  0.5685170000000  0.5221680000000 1.0
C      1  0.5254050000000  0.5687040000000  0.5576820000000 1.0
C      1  0.5592520000000  0.5711420000000  0.4747020000000 1.0
C      1  0.5563150000000  0.4922610000000  0.3980090000000 1.0
C      1  0.3902920000000  0.4804000000000  0.4570660000000 1.0
C      1  0.4533720000000  0.4898040000000  0.6055410000000 1.0
C      1  0.6047180000000  0.4818760000000  0.5497590000000 1.0
C      1  0.5583330000000  0.5259220000000  0.3925490000000 1.0
C      1  0.3941880000000  0.5141320000000  0.4536240000000 1.0
C      1  0.4532160000000  0.5238130000000  0.6064910000000 1.0
C      1  0.6065480000000  0.5150470000000  0.5455690000000 1.0
C      1  0.3906320000000  0.5073720000000  0.4864570000000 1.0
C      1  0.4842560000000  0.5140950000000  0.6128920000000 1.0
C      1  0.6154290000000  0.5177510000000  0.5126810000000 1.0
C      1  0.5269570000000  0.5170900000000  0.3870320000000 1.0
C      1  0.3874220000000  0.4783950000000  0.4904480000000 1.0
C      1  0.4857080000000  0.4832080000000  0.6151260000000 1.0
C      1  0.6125530000000  0.4872420000000  0.5175700000000 1.0
C      1  0.5240250000000  0.4874380000000  0.3889970000000 1.0
C      1  0.5764060000000  0.4894220000000  0.4253760000000 1.0
C      1  0.4098730000000  0.4855350000000  0.4296710000000 1.0
C      1  0.4266670000000  0.4851260000000  0.5842820000000 1.0
C      1  0.5822520000000  0.4808520000000  0.5753130000000 1.0
C      1  0.5773000000000  0.5188330000000  0.4192150000000 1.0
C      1  0.4116020000000  0.5160230000000  0.4242190000000 1.0
C      1  0.4277880000000  0.5155140000000  0.5853300000000 1.0
C      1  0.5870770000000  0.5146020000000  0.5733340000000 1.0
C      1  0.5417180000000  0.5451340000000  0.4604780000000 1.0
C      1  0.4649320000000  0.5439990000000  0.4558500000000 1.0
C      1  0.4603700000000  0.5433390000000  0.5343260000000 1.0
C      1  0.5361020000000  0.5424940000000  0.5377940000000 1.0
C      1  0.5397410000000  0.4566770000000  0.4674120000000 1.0
C      1  0.4633220000000  0.4566370000000  0.4604520000000 1.0
C      1  0.4562390000000  0.4544770000000  0.5366050000000 1.0
C      1  0.5331490000000  0.4526810000000  0.5433880000000 1.0
C      1  0.5001720000000  0.4305850000000  0.4665540000000 1.0
C      1  0.4644960000000  0.4293350000000  0.5012660000000 1.0
C      1  0.4983810000000  0.4280150000000  0.5374810000000 1.0
C      1  0.5316780000000  0.4274790000000  0.5008130000000 1.0
C      1  0.5009990000000  0.5704710000000  0.4648700000000 1.0
C      1  0.4649160000000  0.5683270000000  0.4981470000000 1.0
C      1  0.5019400000000  0.5699840000000  0.5323900000000 1.0
C      1  0.5343760000000  0.5714500000000  0.4981160000000 1.0
C      1  0.4942050000000  0.4832250000000  0.5639010000000 1.0
C      1  0.5588850000000  0.4839850000000  0.5036890000000 1.0
C      1  0.5038470000000  0.4848830000000  0.4332580000000 1.0
C      1  0.4321160000000  0.4822730000000  0.4957640000000 1.0
C      1  0.4917550000000  0.5144170000000  0.5604440000000 1.0
C      1  0.5627690000000  0.5138790000000  0.4934350000000 1.0
C      1  0.5073260000000  0.5180670000000  0.4291380000000 1.0
C      1  0.4382890000000  0.5137810000000  0.4878130000000 1.0
C      1  0.5343580000000  0.5498720000000  0.5851070000000 1.0
C      1  0.5895940000000  0.5556130000000  0.4707600000000 1.0
C      1  0.4632980000000  0.5554530000000  0.4152530000000 1.0
C      1  0.4142180000000  0.5486940000000  0.5311520000000 1.0
C      1  0.5291860000000  0.4471320000000  0.5889960000000 1.0
C      1  0.5860800000000  0.4489690000000  0.4746620000000 1.0
C      1  0.4631250000000  0.4485430000000  0.4178080000000 1.0
C      1  0.4118750000000  0.4442800000000  0.5359530000000 1.0
C      1  0.5000390000000  0.4753380000000  0.3946160000000 1.0
C      1  0.3889600000000  0.4618580000000  0.5177590000000 1.0
C      1  0.5043510000000  0.4630030000000  0.6066720000000 1.0
C      1  0.6035230000000  0.4652050000000  0.4994270000000 1.0
C      1  0.5025280000000  0.5310460000000  0.3897200000000 1.0
C      1  0.3955840000000  0.5261140000000  0.5131320000000 1.0
C      1  0.5112630000000  0.5331230000000  0.6044760000000 1.0
C      1  0.6062220000000  0.5383280000000  0.4953070000000 1.0
C      1  0.4630400000000  0.4845880000000  0.4981630000000 1.0
C      1  0.4920630000000  0.4854530000000  0.5330580000000 1.0
C      1  0.5265370000000  0.4860670000000  0.5073060000000 1.0
C      1  0.5063160000000  0.4864660000000  0.4661580000000 1.0
C      1  0.4705590000000  0.5111920000000  0.4924900000000 1.0
C      1  0.4919020000000  0.5127830000000  0.5282600000000 1.0
C      1  0.5321710000000  0.5132020000000  0.5027510000000 1.0
C      1  0.5062490000000  0.5137960000000  0.4605230000000 1.0
C      1  0.5199540000000  0.5719760000000  0.4089260000000 1.0
C      1  0.4106800000000  0.5647780000000  0.4782210000000 1.0
C      1  0.4850430000000  0.5656310000000  0.5876140000000 1.0
C      1  0.5888530000000  0.5700690000000  0.5191090000000 1.0
C      1  0.5255480000000  0.4359000000000  0.4128470000000 1.0
C      1  0.4105580000000  0.4305420000000  0.4787570000000 1.0
C      1  0.4759910000000  0.4323940000000  0.5914870000000 1.0
C      1  0.5857820000000  0.4264140000000  0.5246460000000 1.0
C      1  0.4199070000000  0.5407550000000  0.5637580000000 1.0
C      1  0.5661690000000  0.5416820000000  0.5778630000000 1.0
C      1  0.5837060000000  0.5458290000000  0.4390560000000 1.0
C      1  0.4328940000000  0.5401260000000  0.4176440000000 1.0
C      1  0.4199650000000  0.4568540000000  0.5665530000000 1.0
C      1  0.5602950000000  0.4555570000000  0.5794190000000 1.0
C      1  0.5797080000000  0.4611340000000  0.4438710000000 1.0
C      1  0.4328940000000  0.4633940000000  0.4227530000000 1.0
C      1  0.4782300000000  0.5180540000000  0.3817140000000 1.0
C      1  0.3821260000000  0.5102620000000  0.5376130000000 1.0
C      1  0.5226110000000  0.5097220000000  0.6229520000000 1.0
C      1  0.6235030000000  0.5169380000000  0.4664650000000 1.0
C      1  0.4760940000000  0.4890690000000  0.3892510000000 1.0
C      1  0.3751150000000  0.4796860000000  0.5397160000000 1.0
C      1  0.5336720000000  0.4886710000000  0.6153910000000 1.0
C      1  0.6145270000000  0.4916230000000  0.4739450000000 1.0
C      1  0.4267900000000  0.5851850000000  0.4954060000000 1.0
C      1  0.4988450000000  0.5872750000000  0.5700240000000 1.0
C      1  0.5725220000000  0.5896080000000  0.5007490000000 1.0
C      1  0.5032040000000  0.5908370000000  0.4277440000000 1.0
C      1  0.4275670000000  0.4105770000000  0.4963930000000 1.0
C      1  0.4940180000000  0.4107810000000  0.5759900000000 1.0
C      1  0.5697920000000  0.4087220000000  0.5034600000000 1.0
C      1  0.5033520000000  0.4152820000000  0.4267300000000 1.0
C      1  0.5633620000000  0.5677170000000  0.4296610000000 1.0
C      1  0.4289830000000  0.5663560000000  0.4390150000000 1.0
C      1  0.4388520000000  0.5661500000000  0.5699290000000 1.0
C      1  0.5737680000000  0.5609580000000  0.5537920000000 1.0
C      1  0.5593160000000  0.4400980000000  0.4312260000000 1.0
C      1  0.4320750000000  0.4344660000000  0.4407420000000 1.0
C      1  0.4419680000000  0.4351250000000  0.5742640000000 1.0
C      1  0.5689210000000  0.4328200000000  0.5586620000000 1.0
C      1  0.4622620000000  0.4881580000000  0.5668060000000 1.0
C      1  0.5675970000000  0.4819030000000  0.5354200000000 1.0
C      1  0.5362410000000  0.4906570000000  0.4323300000000 1.0
C      1  0.4293570000000  0.4827930000000  0.4643260000000 1.0
C      1  0.4630140000000  0.5219630000000  0.5679860000000 1.0
C      1  0.5717330000000  0.5144270000000  0.5259700000000 1.0
C      1  0.5384650000000  0.5238250000000  0.4268230000000 1.0
C      1  0.4337840000000  0.5159050000000  0.4572230000000 1.0
C      1  0.5572040000000  0.5565820000000  0.5167930000000 1.0
C      1  0.5172580000000  0.5554150000000  0.4389880000000 1.0
C      1  0.4425990000000  0.5524900000000  0.4790540000000 1.0
C      1  0.4844190000000  0.5532950000000  0.5554050000000 1.0
C      1  0.5543540000000  0.4401590000000  0.5221920000000 1.0
C      1  0.5171230000000  0.4486010000000  0.4432890000000 1.0
C      1  0.4409090000000  0.4455300000000  0.4828600000000 1.0
C      1  0.4779310000000  0.4427540000000  0.5587120000000 1.0
C      1  0.5857480000000  0.4557530000000  0.5414380000000 1.0
C      1  0.5449450000000  0.4639040000000  0.4133600000000 1.0
C      1  0.4128020000000  0.4560290000000  0.4565020000000 1.0
C      1  0.4586000000000  0.4615570000000  0.5879560000000 1.0
C      1  0.5896130000000  0.5404090000000  0.5335010000000 1.0
C      1  0.5450070000000  0.5514530000000  0.4106530000000 1.0
C      1  0.4131920000000  0.5416910000000  0.4543850000000 1.0
C      1  0.4587140000000  0.5481710000000  0.5854840000000 1.0
END
