TITL C-2782225-7408-1376 0.000973849350100244 125000 -663.676456987857 0 0 115 (C1) n - 1
REM
REM in /home/nfs/bkarasulu/CARBON/AIRSS/Generating-Clusters/REBO/Higher-Symm/SD-CG/HFTN-CG
REM
REM
REM
REM
REM
REM ./C.cell (12c818d87b63d06a65506943cc24bca4)
REM
REM compiler GCC version 9.2.1 20190827 (Red Hat 9.2.1-1)
REM options -cpp -mtune=generic -march=x86-64 -g -O0 -fpre-include=/usr/include/finclude/math-vector-fortran.h
REM seed 934319148 1094071298 1840658089 -1432040603 1804722974 -949239926 -1625459067 -2147105144 -1398223842 -1606637935 1500329296 -2017333360 -973408942 -176779093 1166807581 -1540376332 -661487556 1151645803 -955799564 379970136 -2055925583 1483398214 148197620 499800129 1322791509 -812784502 -1609126108 -136668536 -1313587401 -287263573 -1950942546 -1974181422 170802457
REM
CELL 1.54180   50.00000   50.00000   50.00000   90.00000   90.00000   90.00000
LATT -1
SFAC C  
C      1  0.6014380000000  0.4691890000000  0.4738020000000 1.0
C      1  0.6088260000000  0.4771460000000  0.5224630000000 1.0
C      1  0.5416260000000  0.5329000000000  0.5378550000000 1.0
C      1  0.5390680000000  0.5298070000000  0.4610650000000 1.0
C      1  0.4502000000000  0.4419890000000  0.4599400000000 1.0
C      1  0.4428220000000  0.4385900000000  0.5217920000000 1.0
C      1  0.4495280000000  0.4954850000000  0.5376070000000 1.0
C      1  0.4530640000000  0.4946050000000  0.4606320000000 1.0
C      1  0.5285090000000  0.6015370000000  0.5199570000000 1.0
C      1  0.5243570000000  0.6023570000000  0.4732100000000 1.0
C      1  0.5136300000000  0.4641070000000  0.4222900000000 1.0
C      1  0.5328330000000  0.4714450000000  0.5777090000000 1.0
C      1  0.4116370000000  0.4758750000000  0.4502900000000 1.0
C      1  0.4086220000000  0.4703280000000  0.5397860000000 1.0
C      1  0.5622410000000  0.5181640000000  0.4215290000000 1.0
C      1  0.5693250000000  0.5273520000000  0.5755860000000 1.0
C      1  0.4593200000000  0.4429590000000  0.5688540000000 1.0
C      1  0.4844850000000  0.4538060000000  0.4246980000000 1.0
C      1  0.5696550000000  0.5343730000000  0.5491220000000 1.0
C      1  0.5658500000000  0.5282030000000  0.4467390000000 1.0
C      1  0.5228790000000  0.4477110000000  0.5664250000000 1.0
C      1  0.5334670000000  0.4428800000000  0.4360770000000 1.0
C      1  0.4066320000000  0.5449050000000  0.5391640000000 1.0
C      1  0.4070620000000  0.5482440000000  0.4632150000000 1.0
C      1  0.4146210000000  0.5811010000000  0.4815360000000 1.0
C      1  0.4144270000000  0.5690770000000  0.5300130000000 1.0
C      1  0.5462550000000  0.4925930000000  0.5588690000000 1.0
C      1  0.5333220000000  0.4827160000000  0.4428370000000 1.0
C      1  0.4755140000000  0.5665200000000  0.4458120000000 1.0
C      1  0.4879320000000  0.5616270000000  0.5525210000000 1.0
C      1  0.4897680000000  0.5361900000000  0.5620260000000 1.0
C      1  0.4914240000000  0.5382430000000  0.4462150000000 1.0
C      1  0.5601540000000  0.4806390000000  0.4485110000000 1.0
C      1  0.5718750000000  0.4926100000000  0.5509160000000 1.0
C      1  0.5116960000000  0.4313310000000  0.5462330000000 1.0
C      1  0.5251480000000  0.4304690000000  0.4599340000000 1.0
C      1  0.4761630000000  0.4397960000000  0.4483670000000 1.0
C      1  0.4630020000000  0.4384450000000  0.5411750000000 1.0
C      1  0.5026770000000  0.5655160000000  0.5282210000000 1.0
C      1  0.4977400000000  0.5611360000000  0.4710460000000 1.0
C      1  0.4827260000000  0.4887410000000  0.5406440000000 1.0
C      1  0.4863250000000  0.4934390000000  0.4619280000000 1.0
C      1  0.5929530000000  0.5072020000000  0.5285090000000 1.0
C      1  0.5855310000000  0.4978450000000  0.4633920000000 1.0
C      1  0.5154400000000  0.4957950000000  0.4099760000000 1.0
C      1  0.5273640000000  0.4989600000000  0.5931470000000 1.0
C      1  0.5504200000000  0.5162150000000  0.5924270000000 1.0
C      1  0.5407460000000  0.5067960000000  0.4084480000000 1.0
C      1  0.4233960000000  0.4990320000000  0.4594820000000 1.0
C      1  0.4210000000000  0.4959480000000  0.5386320000000 1.0
C      1  0.4047260000000  0.5188210000000  0.5288180000000 1.0
C      1  0.4134380000000  0.5244920000000  0.4770500000000 1.0
C      1  0.5873150000000  0.5311460000000  0.4705260000000 1.0
C      1  0.5895280000000  0.5400150000000  0.5248190000000 1.0
C      1  0.4171050000000  0.4456270000000  0.5315200000000 1.0
C      1  0.4261450000000  0.4521760000000  0.4484100000000 1.0
C      1  0.5189840000000  0.5094600000000  0.4472880000000 1.0
C      1  0.5231260000000  0.5150770000000  0.5568020000000 1.0
C      1  0.5958630000000  0.4738640000000  0.5499010000000 1.0
C      1  0.5821790000000  0.4599170000000  0.4519980000000 1.0
C      1  0.5376480000000  0.5023840000000  0.4816750000000 1.0
C      1  0.5367800000000  0.5029830000000  0.5215010000000 1.0
C      1  0.4958470000000  0.4331110000000  0.4671780000000 1.0
C      1  0.4888160000000  0.4406020000000  0.5312030000000 1.0
C      1  0.4961630000000  0.5171030000000  0.5361350000000 1.0
C      1  0.5003100000000  0.5211170000000  0.4742430000000 1.0
C      1  0.4669030000000  0.4968840000000  0.4307170000000 1.0
C      1  0.4825230000000  0.4857180000000  0.5722620000000 1.0
C      1  0.5141130000000  0.4839550000000  0.4790590000000 1.0
C      1  0.5124190000000  0.4827500000000  0.5243620000000 1.0
C      1  0.5476170000000  0.5811450000000  0.4650640000000 1.0
C      1  0.5539320000000  0.5806330000000  0.5223200000000 1.0
C      1  0.4996760000000  0.5099070000000  0.5807020000000 1.0
C      1  0.4925970000000  0.5136280000000  0.4262550000000 1.0
C      1  0.5281800000000  0.5582550000000  0.4599800000000 1.0
C      1  0.5313680000000  0.5616570000000  0.5327880000000 1.0
C      1  0.4694790000000  0.4645240000000  0.5823570000000 1.0
C      1  0.4662440000000  0.4722400000000  0.4153720000000 1.0
C      1  0.5283890000000  0.4301730000000  0.4899860000000 1.0
C      1  0.5212760000000  0.4079590000000  0.5323760000000 1.0
C      1  0.4896910000000  0.4882900000000  0.5012950000000 1.0
C      1  0.5752770000000  0.5505700000000  0.4957800000000 1.0
C      1  0.6070910000000  0.5281450000000  0.4981660000000 1.0
C      1  0.4609950000000  0.5842950000000  0.5079450000000 1.0
C      1  0.5482640000000  0.6082120000000  0.4943990000000 1.0
C      1  0.4542210000000  0.4046640000000  0.4932930000000 1.0
C      1  0.4518670000000  0.4479020000000  0.4905840000000 1.0
C      1  0.4617940000000  0.5030100000000  0.5097800000000 1.0
C      1  0.4287310000000  0.4153290000000  0.4921860000000 1.0
C      1  0.4537690000000  0.5518010000000  0.5000220000000 1.0
C      1  0.3929170000000  0.5160970000000  0.5019630000000 1.0
C      1  0.5299320000000  0.5273130000000  0.5001100000000 1.0
C      1  0.3868220000000  0.4575060000000  0.4913470000000 1.0
C      1  0.5167690000000  0.4590270000000  0.5008280000000 1.0
C      1  0.5544180000000  0.4387990000000  0.5188600000000 1.0
C      1  0.4996190000000  0.5270680000000  0.5077560000000 1.0
C      1  0.5871500000000  0.5006530000000  0.4961810000000 1.0
C      1  0.4254350000000  0.4649900000000  0.4975830000000 1.0
C      1  0.4782210000000  0.6025210000000  0.5130180000000 1.0
C      1  0.4413870000000  0.5236830000000  0.4965990000000 1.0
C      1  0.5428190000000  0.5527830000000  0.4960460000000 1.0
C      1  0.3916080000000  0.4857860000000  0.4941430000000 1.0
C      1  0.4908500000000  0.4394440000000  0.4996280000000 1.0
C      1  0.4823450000000  0.4075760000000  0.4961440000000 1.0
C      1  0.4108590000000  0.4376250000000  0.4928600000000 1.0
C      1  0.4618910000000  0.4779930000000  0.4883320000000 1.0
C      1  0.5689790000000  0.5821690000000  0.4916220000000 1.0
C      1  0.4249360000000  0.4935050000000  0.4989080000000 1.0
C      1  0.5967090000000  0.4621310000000  0.5011120000000 1.0
C      1  0.5676620000000  0.4593340000000  0.5065750000000 1.0
C      1  0.5147290000000  0.4078460000000  0.5040470000000 1.0
C      1  0.4871770000000  0.5554120000000  0.4996020000000 1.0
C      1  0.5239610000000  0.5768880000000  0.4965710000000 1.0
C      1  0.5588710000000  0.4885610000000  0.5016710000000 1.0
C      1  0.4299670000000  0.5747490000000  0.5042490000000 1.0
END
