TITL C-2782237-5345-359 -0.000933335438040449 125000 -1143.15028079869 0 0 197 (C1) n - 1
REM
REM in /home/nfs/bkarasulu/CARBON/AIRSS/Generating-Clusters/REBO/Higher-Symm/SD-CG/HFTN-CG
REM
REM
REM
REM
REM
REM ./C.cell (12c818d87b63d06a65506943cc24bca4)
REM
REM compiler GCC version 9.2.1 20190827 (Red Hat 9.2.1-1)
REM options -cpp -mtune=generic -march=x86-64 -g -O0 -fpre-include=/usr/include/finclude/math-vector-fortran.h
REM seed 179137598 -1053552044 643723805 1776019250 -1621236789 1879244441 -542997687 -980942170 165086621 1272867386 -1490693229 -831225968 420113555 -326547898 -1273051491 -1965896620 -132786323 544610333 -1630308880 -132688440 1141534043 749991918 1593548063 -1808408851 -272619954 1992264518 -1358531394 -1042339890 -244663584 -2042791496 -1200304 -2117442662 -2117066038
REM
CELL 1.54180   50.00000   50.00000   50.00000   90.00000   90.00000   90.00000
LATT -1
SFAC C  
C      1  0.4843680000000  0.4903550000000  0.4278190000000 1.0
C      1  0.5155700000000  0.5091690000000  0.5703890000000 1.0
C      1  0.5689930000000  0.4416280000000  0.4380860000000 1.0
C      1  0.4280280000000  0.5569220000000  0.5653420000000 1.0
C      1  0.5365790000000  0.5407820000000  0.4607950000000 1.0
C      1  0.4528170000000  0.4524400000000  0.5436300000000 1.0
C      1  0.4442280000000  0.4726800000000  0.4822380000000 1.0
C      1  0.5579230000000  0.5309490000000  0.5179430000000 1.0
C      1  0.4592610000000  0.5857890000000  0.5350890000000 1.0
C      1  0.5399200000000  0.4164900000000  0.4666720000000 1.0
C      1  0.5621630000000  0.5090750000000  0.5820140000000 1.0
C      1  0.4373260000000  0.4887900000000  0.4176030000000 1.0
C      1  0.5185600000000  0.4594440000000  0.4897120000000 1.0
C      1  0.4811040000000  0.5392290000000  0.5143250000000 1.0
C      1  0.5019510000000  0.4157900000000  0.5084740000000 1.0
C      1  0.4918420000000  0.5896670000000  0.4938140000000 1.0
C      1  0.4737470000000  0.6166810000000  0.4862050000000 1.0
C      1  0.5224360000000  0.3959650000000  0.5108970000000 1.0
C      1  0.4305890000000  0.5510220000000  0.4414020000000 1.0
C      1  0.5686140000000  0.4464210000000  0.5592970000000 1.0
C      1  0.5246390000000  0.5328220000000  0.5482020000000 1.0
C      1  0.4741310000000  0.4701890000000  0.4529420000000 1.0
C      1  0.4885970000000  0.5092110000000  0.5303410000000 1.0
C      1  0.5077500000000  0.4942690000000  0.4666600000000 1.0
C      1  0.5558740000000  0.5211960000000  0.3995970000000 1.0
C      1  0.4450500000000  0.4777360000000  0.5969380000000 1.0
C      1  0.4713930000000  0.4347000000000  0.5662440000000 1.0
C      1  0.5296980000000  0.5614940000000  0.4341380000000 1.0
C      1  0.4952200000000  0.5180780000000  0.4451280000000 1.0
C      1  0.5038280000000  0.4791170000000  0.5583260000000 1.0
C      1  0.4098610000000  0.5538670000000  0.5123970000000 1.0
C      1  0.5929040000000  0.4486420000000  0.4876370000000 1.0
C      1  0.6014260000000  0.5241410000000  0.4317340000000 1.0
C      1  0.3978920000000  0.4731460000000  0.5671630000000 1.0
C      1  0.6062230000000  0.5328880000000  0.4581510000000 1.0
C      1  0.3930920000000  0.4658910000000  0.5401750000000 1.0
C      1  0.4308250000000  0.5705480000000  0.5342670000000 1.0
C      1  0.5709800000000  0.4285160000000  0.4695350000000 1.0
C      1  0.5314790000000  0.5491390000000  0.5889380000000 1.0
C      1  0.4680670000000  0.4487570000000  0.4116390000000 1.0
C      1  0.5430600000000  0.5052450000000  0.5259580000000 1.0
C      1  0.4669480000000  0.4965390000000  0.4737510000000 1.0
C      1  0.4814030000000  0.4213120000000  0.4218610000000 1.0
C      1  0.5181930000000  0.5767150000000  0.5796710000000 1.0
C      1  0.4777050000000  0.5272240000000  0.4843090000000 1.0
C      1  0.5294960000000  0.4771350000000  0.5138670000000 1.0
C      1  0.4508450000000  0.5018360000000  0.4457090000000 1.0
C      1  0.5493110000000  0.4964640000000  0.5539920000000 1.0
C      1  0.5476700000000  0.5880970000000  0.4430320000000 1.0
C      1  0.4523210000000  0.4073090000000  0.5590190000000 1.0
C      1  0.5066700000000  0.4390360000000  0.5219770000000 1.0
C      1  0.4946280000000  0.5693950000000  0.4679830000000 1.0
C      1  0.4164970000000  0.5334370000000  0.5353190000000 1.0
C      1  0.5797700000000  0.4671350000000  0.4665620000000 1.0
C      1  0.5069580000000  0.6044380000000  0.5390450000000 1.0
C      1  0.4925330000000  0.3956740000000  0.4641080000000 1.0
C      1  0.5259990000000  0.5340030000000  0.3911690000000 1.0
C      1  0.4729160000000  0.4649580000000  0.6101690000000 1.0
C      1  0.4331340000000  0.5732410000000  0.5000360000000 1.0
C      1  0.5781100000000  0.4240870000000  0.5026610000000 1.0
C      1  0.5463710000000  0.4427090000000  0.4138820000000 1.0
C      1  0.4519990000000  0.5550900000000  0.5880730000000 1.0
C      1  0.5160600000000  0.4712820000000  0.4424710000000 1.0
C      1  0.4810230000000  0.5292720000000  0.5570410000000 1.0
C      1  0.4668130000000  0.4364890000000  0.4836370000000 1.0
C      1  0.5315800000000  0.5642910000000  0.5127260000000 1.0
C      1  0.4561940000000  0.5025060000000  0.5344960000000 1.0
C      1  0.5402080000000  0.5012780000000  0.4652410000000 1.0
C      1  0.5619880000000  0.5973790000000  0.4722300000000 1.0
C      1  0.4405140000000  0.4028690000000  0.5273880000000 1.0
C      1  0.5045240000000  0.6024400000000  0.5638490000000 1.0
C      1  0.4949450000000  0.3968520000000  0.4392740000000 1.0
C      1  0.5626710000000  0.5634130000000  0.5086400000000 1.0
C      1  0.4363430000000  0.4392290000000  0.4850140000000 1.0
C      1  0.5250140000000  0.3883250000000  0.5383010000000 1.0
C      1  0.4746720000000  0.6170010000000  0.4570810000000 1.0
C      1  0.4994280000000  0.3939610000000  0.5503650000000 1.0
C      1  0.5015070000000  0.6002520000000  0.4553830000000 1.0
C      1  0.5011320000000  0.4702600000000  0.4057000000000 1.0
C      1  0.4979050000000  0.5278060000000  0.5929830000000 1.0
C      1  0.4326650000000  0.5173720000000  0.5679870000000 1.0
C      1  0.5658240000000  0.4809300000000  0.4316800000000 1.0
C      1  0.5532430000000  0.5378310000000  0.5660290000000 1.0
C      1  0.4469970000000  0.4612800000000  0.4345230000000 1.0
C      1  0.4774500000000  0.5689270000000  0.4203680000000 1.0
C      1  0.5246420000000  0.4303090000000  0.5759330000000 1.0
C      1  0.5633980000000  0.4751770000000  0.5767630000000 1.0
C      1  0.4356150000000  0.5226830000000  0.4231030000000 1.0
C      1  0.5055390000000  0.5403150000000  0.4695130000000 1.0
C      1  0.4985060000000  0.4694490000000  0.5265240000000 1.0
C      1  0.5189620000000  0.4555570000000  0.5867880000000 1.0
C      1  0.4812760000000  0.5419980000000  0.4118380000000 1.0
C      1  0.4465710000000  0.5071950000000  0.5928780000000 1.0
C      1  0.5557130000000  0.4903480000000  0.4030430000000 1.0
C      1  0.4869640000000  0.4620460000000  0.4878810000000 1.0
C      1  0.5156210000000  0.5354440000000  0.5152940000000 1.0
C      1  0.4195190000000  0.4769030000000  0.4589820000000 1.0
C      1  0.5838720000000  0.5317580000000  0.5400000000000 1.0
C      1  0.4767660000000  0.4983160000000  0.5683040000000 1.0
C      1  0.5230680000000  0.4987970000000  0.4239780000000 1.0
C      1  0.5003710000000  0.4168530000000  0.5666600000000 1.0
C      1  0.5017370000000  0.5805780000000  0.4304490000000 1.0
C      1  0.5584670000000  0.4912730000000  0.4902150000000 1.0
C      1  0.4404410000000  0.5088490000000  0.5072130000000 1.0
C      1  0.6057650000000  0.4942100000000  0.4280930000000 1.0
C      1  0.3926640000000  0.5028740000000  0.5727950000000 1.0
C      1  0.4840920000000  0.4946110000000  0.3885380000000 1.0
C      1  0.5144980000000  0.5029600000000  0.6095360000000 1.0
C      1  0.4603900000000  0.4751950000000  0.3997110000000 1.0
C      1  0.5389730000000  0.5223790000000  0.5998970000000 1.0
C      1  0.4127550000000  0.5029280000000  0.5451290000000 1.0
C      1  0.5848790000000  0.4964810000000  0.4552130000000 1.0
C      1  0.5894580000000  0.5526040000000  0.4975880000000 1.0
C      1  0.4112100000000  0.4513550000000  0.4979910000000 1.0
C      1  0.5468650000000  0.5174160000000  0.4383020000000 1.0
C      1  0.4499620000000  0.4824270000000  0.5575350000000 1.0
C      1  0.4283130000000  0.4304130000000  0.5373630000000 1.0
C      1  0.5824080000000  0.5763080000000  0.4571430000000 1.0
C      1  0.5318380000000  0.4836590000000  0.5873100000000 1.0
C      1  0.4668740000000  0.5146850000000  0.4109910000000 1.0
C      1  0.4716040000000  0.5750760000000  0.5820300000000 1.0
C      1  0.5274400000000  0.4210900000000  0.4191900000000 1.0
C      1  0.5970620000000  0.5573700000000  0.4714210000000 1.0
C      1  0.4060030000000  0.4446390000000  0.5240760000000 1.0
C      1  0.4945500000000  0.5546380000000  0.5753250000000 1.0
C      1  0.5057830000000  0.4445850000000  0.4236130000000 1.0
C      1  0.4006360000000  0.5020010000000  0.4973690000000 1.0
C      1  0.5990240000000  0.5005940000000  0.5040700000000 1.0
C      1  0.5345290000000  0.4657190000000  0.5516290000000 1.0
C      1  0.4656490000000  0.5322220000000  0.4470030000000 1.0
C      1  0.4130060000000  0.4838820000000  0.5212960000000 1.0
C      1  0.5865290000000  0.5165810000000  0.4782180000000 1.0
C      1  0.4710700000000  0.3898420000000  0.5364880000000 1.0
C      1  0.5299320000000  0.6069840000000  0.4641280000000 1.0
C      1  0.4037910000000  0.4736380000000  0.4837850000000 1.0
C      1  0.5976680000000  0.5314950000000  0.5135500000000 1.0
C      1  0.4113750000000  0.5008480000000  0.4429270000000 1.0
C      1  0.5875340000000  0.5076070000000  0.5535150000000 1.0
C      1  0.5489510000000  0.3980150000000  0.5517530000000 1.0
C      1  0.4535540000000  0.6084220000000  0.4412360000000 1.0
C      1  0.5585380000000  0.5307410000000  0.4847820000000 1.0
C      1  0.4418710000000  0.4701200000000  0.5162520000000 1.0
C      1  0.5496510000000  0.6035410000000  0.5275680000000 1.0
C      1  0.4491580000000  0.3934890000000  0.4718250000000 1.0
C      1  0.4652510000000  0.5949880000000  0.5644450000000 1.0
C      1  0.5343790000000  0.4035250000000  0.4389530000000 1.0
C      1  0.5479510000000  0.4644400000000  0.4787180000000 1.0
C      1  0.4475620000000  0.5370050000000  0.5207480000000 1.0
C      1  0.5384460000000  0.5843900000000  0.5533810000000 1.0
C      1  0.4615240000000  0.4161090000000  0.4493420000000 1.0
C      1  0.5856360000000  0.4857780000000  0.5317580000000 1.0
C      1  0.4180320000000  0.5148250000000  0.4713140000000 1.0
C      1  0.4602990000000  0.5791590000000  0.4853290000000 1.0
C      1  0.5506920000000  0.4227670000000  0.5199530000000 1.0
C      1  0.4889080000000  0.4586280000000  0.5815030000000 1.0
C      1  0.5106180000000  0.5376230000000  0.4216690000000 1.0
C      1  0.4266240000000  0.4144110000000  0.4681220000000 1.0
C      1  0.5716530000000  0.5814420000000  0.5321140000000 1.0
C      1  0.5507500000000  0.4235750000000  0.5653160000000 1.0
C      1  0.4501410000000  0.5778670000000  0.4337780000000 1.0
C      1  0.5825970000000  0.4462030000000  0.5281550000000 1.0
C      1  0.4224170000000  0.5541330000000  0.4744370000000 1.0
C      1  0.3983860000000  0.5351040000000  0.4896300000000 1.0
C      1  0.6033370000000  0.4673600000000  0.5104440000000 1.0
C      1  0.4346920000000  0.4355350000000  0.4452810000000 1.0
C      1  0.5657820000000  0.5653460000000  0.5579170000000 1.0
C      1  0.5586510000000  0.4685320000000  0.5275070000000 1.0
C      1  0.4458590000000  0.5304560000000  0.4729800000000 1.0
C      1  0.4523890000000  0.5377610000000  0.5521090000000 1.0
C      1  0.5447050000000  0.4632620000000  0.4480200000000 1.0
C      1  0.4641590000000  0.5301920000000  0.5967800000000 1.0
C      1  0.5351200000000  0.4670350000000  0.4030810000000 1.0
C      1  0.4860600000000  0.4384790000000  0.4572540000000 1.0
C      1  0.5140100000000  0.5647560000000  0.5419460000000 1.0
C      1  0.5326190000000  0.4390000000000  0.5332690000000 1.0
C      1  0.4650880000000  0.5620520000000  0.4577820000000 1.0
C      1  0.5279070000000  0.5167260000000  0.4928180000000 1.0
C      1  0.4729120000000  0.4793190000000  0.5093060000000 1.0
C      1  0.4807960000000  0.4094370000000  0.4896540000000 1.0
C      1  0.5147840000000  0.5922970000000  0.5116010000000 1.0
C      1  0.4030770000000  0.5347310000000  0.5669390000000 1.0
C      1  0.5945800000000  0.4632660000000  0.4355760000000 1.0
C      1  0.4580660000000  0.6027850000000  0.5099690000000 1.0
C      1  0.5456450000000  0.4029810000000  0.4943340000000 1.0
C      1  0.4258960000000  0.4646170000000  0.5738240000000 1.0
C      1  0.5737810000000  0.5329050000000  0.4247870000000 1.0
C      1  0.4836780000000  0.4931050000000  0.6003510000000 1.0
C      1  0.5137830000000  0.5063780000000  0.3976940000000 1.0
C      1  0.5401920000000  0.6063060000000  0.4966460000000 1.0
C      1  0.4600280000000  0.3906100000000  0.5039540000000 1.0
C      1  0.4843760000000  0.5661320000000  0.5331070000000 1.0
C      1  0.5153410000000  0.4361670000000  0.4682740000000 1.0
C      1  0.5690890000000  0.5656650000000  0.4289870000000 1.0
C      1  0.4318620000000  0.4320660000000  0.5708570000000 1.0
C      1  0.5472680000000  0.5546330000000  0.4053440000000 1.0
C      1  0.4528160000000  0.4439750000000  0.5942160000000 1.0
C      1  0.4997320000000  0.4987600000000  0.4996100000000 1.0
END
