TITL C-2782226-7400-1384 0.00572256263962965 125000 -1165.72276727319 0 0 199 (C1) n - 1
REM
REM in /home/nfs/bkarasulu/CARBON/AIRSS/Generating-Clusters/REBO/Higher-Symm/SD-CG/HFTN-CG
REM
REM
REM
REM
REM
REM ./C.cell (12c818d87b63d06a65506943cc24bca4)
REM
REM compiler GCC version 9.2.1 20190827 (Red Hat 9.2.1-1)
REM options -cpp -mtune=generic -march=x86-64 -g -O0 -fpre-include=/usr/include/finclude/math-vector-fortran.h
REM seed -2109218250 -1317479742 1217667413 -1512554223 88963900 1028770273 288628052 646318086 2141345509 -1209954321 1533230232 -191966413 -307825178 -968601307 2012635570 1159284635 2009491886 167201819 913717486 1615691281 133438279 374240449 1137958993 -1211377522 1133177044 -1436104984 724140471 -782727800 794934117 -263647211 1164698439 2102116983 -909624979
REM
CELL 1.54180   50.00000   50.00000   50.00000   90.00000   90.00000   90.00000
LATT -1
SFAC C  
C      1  0.5509270000000  0.4320940000000  0.5583890000000 1.0
C      1  0.5520850000000  0.4228200000000  0.4504100000000 1.0
C      1  0.5519980000000  0.5212790000000  0.4161340000000 1.0
C      1  0.5510140000000  0.5901750000000  0.4932320000000 1.0
C      1  0.5508520000000  0.5305250000000  0.5782870000000 1.0
C      1  0.4495430000000  0.4303790000000  0.5569920000000 1.0
C      1  0.4492680000000  0.4276030000000  0.4552640000000 1.0
C      1  0.4510480000000  0.5214910000000  0.4127770000000 1.0
C      1  0.4501430000000  0.5873520000000  0.4954130000000 1.0
C      1  0.4495510000000  0.5350420000000  0.5836290000000 1.0
C      1  0.5133460000000  0.5789180000000  0.4861560000000 1.0
C      1  0.5127080000000  0.5351660000000  0.5674960000000 1.0
C      1  0.5130010000000  0.4445010000000  0.5578690000000 1.0
C      1  0.5130880000000  0.4271540000000  0.4643700000000 1.0
C      1  0.5141600000000  0.5106820000000  0.4235620000000 1.0
C      1  0.4877950000000  0.5777040000000  0.4862210000000 1.0
C      1  0.4867030000000  0.5353410000000  0.5690240000000 1.0
C      1  0.4874450000000  0.4429550000000  0.5587010000000 1.0
C      1  0.4875430000000  0.4285390000000  0.4664890000000 1.0
C      1  0.4880540000000  0.5112580000000  0.4237450000000 1.0
C      1  0.5842280000000  0.5296040000000  0.4566670000000 1.0
C      1  0.5875930000000  0.5634620000000  0.5199270000000 1.0
C      1  0.5825960000000  0.5048040000000  0.5472130000000 1.0
C      1  0.5807580000000  0.4433070000000  0.5182270000000 1.0
C      1  0.5825470000000  0.4642870000000  0.4604950000000 1.0
C      1  0.4189910000000  0.5368820000000  0.4489240000000 1.0
C      1  0.4202250000000  0.5471880000000  0.5109080000000 1.0
C      1  0.4200240000000  0.4994690000000  0.5608710000000 1.0
C      1  0.4176900000000  0.4506690000000  0.5220040000000 1.0
C      1  0.4179550000000  0.4683070000000  0.4598440000000 1.0
C      1  0.5336110000000  0.5166700000000  0.6034910000000 1.0
C      1  0.5346540000000  0.4045110000000  0.5497910000000 1.0
C      1  0.5336440000000  0.4223420000000  0.4230660000000 1.0
C      1  0.5339050000000  0.5472920000000  0.4044600000000 1.0
C      1  0.5341230000000  0.6072250000000  0.5165080000000 1.0
C      1  0.4668570000000  0.5175870000000  0.6069370000000 1.0
C      1  0.4680330000000  0.4033960000000  0.5504570000000 1.0
C      1  0.4676310000000  0.4234480000000  0.4277280000000 1.0
C      1  0.4679680000000  0.5489690000000  0.4035330000000 1.0
C      1  0.4674730000000  0.6056750000000  0.5167620000000 1.0
C      1  0.3883760000000  0.4690720000000  0.5419030000000 1.0
C      1  0.3884500000000  0.4561780000000  0.4845610000000 1.0
C      1  0.3883460000000  0.5033420000000  0.4493350000000 1.0
C      1  0.3899940000000  0.5460830000000  0.4848470000000 1.0
C      1  0.3892310000000  0.5251900000000  0.5403830000000 1.0
C      1  0.6129430000000  0.4694370000000  0.5366090000000 1.0
C      1  0.6124200000000  0.4513100000000  0.4836300000000 1.0
C      1  0.6126120000000  0.5016030000000  0.4536610000000 1.0
C      1  0.6140440000000  0.5496660000000  0.4878060000000 1.0
C      1  0.6136120000000  0.5288790000000  0.5398850000000 1.0
C      1  0.5480530000000  0.4174080000000  0.4811570000000 1.0
C      1  0.5513950000000  0.4899960000000  0.4159630000000 1.0
C      1  0.5507870000000  0.5799230000000  0.4632270000000 1.0
C      1  0.5504670000000  0.5562750000000  0.5603990000000 1.0
C      1  0.5476200000000  0.4621110000000  0.5698660000000 1.0
C      1  0.4509450000000  0.4178290000000  0.4850830000000 1.0
C      1  0.4539770000000  0.4905140000000  0.4221030000000 1.0
C      1  0.4531010000000  0.5739370000000  0.4668730000000 1.0
C      1  0.4536070000000  0.5550580000000  0.5585410000000 1.0
C      1  0.4515690000000  0.4539760000000  0.5765850000000 1.0
C      1  0.5314620000000  0.5300740000000  0.4404640000000 1.0
C      1  0.5304710000000  0.5681470000000  0.5092320000000 1.0
C      1  0.5298950000000  0.5097660000000  0.5623860000000 1.0
C      1  0.5294990000000  0.4401920000000  0.5325450000000 1.0
C      1  0.5311190000000  0.4492640000000  0.4525710000000 1.0
C      1  0.4711500000000  0.5307420000000  0.4387450000000 1.0
C      1  0.4712030000000  0.5644040000000  0.5088740000000 1.0
C      1  0.4691030000000  0.5110930000000  0.5693690000000 1.0
C      1  0.4705660000000  0.4391190000000  0.5327030000000 1.0
C      1  0.4717970000000  0.4528430000000  0.4550010000000 1.0
C      1  0.5596180000000  0.5593570000000  0.4242670000000 1.0
C      1  0.5605050000000  0.5902180000000  0.5318140000000 1.0
C      1  0.5588590000000  0.4949560000000  0.5938140000000 1.0
C      1  0.5600740000000  0.4101740000000  0.5266160000000 1.0
C      1  0.5597100000000  0.4452060000000  0.4186690000000 1.0
C      1  0.4418570000000  0.5583370000000  0.4244020000000 1.0
C      1  0.4422320000000  0.5892130000000  0.5341850000000 1.0
C      1  0.4410140000000  0.4978520000000  0.5947330000000 1.0
C      1  0.4421600000000  0.4055710000000  0.5270930000000 1.0
C      1  0.4425560000000  0.4464880000000  0.4210640000000 1.0
C      1  0.4607190000000  0.4693520000000  0.5456690000000 1.0
C      1  0.4621550000000  0.4508210000000  0.4876950000000 1.0
C      1  0.4653310000000  0.4955890000000  0.4525020000000 1.0
C      1  0.4659340000000  0.5447280000000  0.4814620000000 1.0
C      1  0.4628270000000  0.5309290000000  0.5374100000000 1.0
C      1  0.5340150000000  0.4732060000000  0.5398510000000 1.0
C      1  0.5365760000000  0.4504460000000  0.4864260000000 1.0
C      1  0.5418260000000  0.4972150000000  0.4487820000000 1.0
C      1  0.5421090000000  0.5517210000000  0.4816330000000 1.0
C      1  0.5393420000000  0.5320390000000  0.5380310000000 1.0
C      1  0.4807600000000  0.4846440000000  0.5251880000000 1.0
C      1  0.4843350000000  0.4727450000000  0.4965960000000 1.0
C      1  0.4865630000000  0.4953620000000  0.4745550000000 1.0
C      1  0.4887620000000  0.5225860000000  0.4910340000000 1.0
C      1  0.4855990000000  0.5158290000000  0.5225690000000 1.0
C      1  0.5135310000000  0.4874320000000  0.5196000000000 1.0
C      1  0.5171310000000  0.4754710000000  0.4906300000000 1.0
C      1  0.5191000000000  0.5003200000000  0.4714730000000 1.0
C      1  0.5224800000000  0.5265890000000  0.4878530000000 1.0
C      1  0.5183850000000  0.5187210000000  0.5174660000000 1.0
C      1  0.5761240000000  0.5619820000000  0.4539410000000 1.0
C      1  0.5775080000000  0.5665930000000  0.5499740000000 1.0
C      1  0.5746800000000  0.4791160000000  0.5682100000000 1.0
C      1  0.5743230000000  0.4193440000000  0.4970240000000 1.0
C      1  0.5759840000000  0.4734870000000  0.4285800000000 1.0
C      1  0.4263930000000  0.5674830000000  0.4535710000000 1.0
C      1  0.4265660000000  0.5599790000000  0.5418240000000 1.0
C      1  0.4264990000000  0.4721830000000  0.5774740000000 1.0
C      1  0.4253620000000  0.4235140000000  0.5034390000000 1.0
C      1  0.4266870000000  0.4757780000000  0.4279270000000 1.0
C      1  0.4327890000000  0.4744130000000  0.5324470000000 1.0
C      1  0.4366800000000  0.4706770000000  0.4855660000000 1.0
C      1  0.4424910000000  0.5172200000000  0.4596900000000 1.0
C      1  0.4361770000000  0.5320490000000  0.4905670000000 1.0
C      1  0.4415140000000  0.5078010000000  0.5380740000000 1.0
C      1  0.5603510000000  0.4687710000000  0.5193400000000 1.0
C      1  0.5660160000000  0.4635940000000  0.4853960000000 1.0
C      1  0.5665010000000  0.5052470000000  0.4670180000000 1.0
C      1  0.5682580000000  0.5457320000000  0.5017150000000 1.0
C      1  0.5678440000000  0.5212410000000  0.5261010000000 1.0
C      1  0.5803190000000  0.5893320000000  0.5032990000000 1.0
C      1  0.5791210000000  0.5175290000000  0.5775790000000 1.0
C      1  0.5797690000000  0.4298890000000  0.5471420000000 1.0
C      1  0.5803210000000  0.4357290000000  0.4444510000000 1.0
C      1  0.5802560000000  0.5317960000000  0.4245300000000 1.0
C      1  0.4222530000000  0.5802090000000  0.5077550000000 1.0
C      1  0.4208850000000  0.5231950000000  0.5822530000000 1.0
C      1  0.4211310000000  0.4270260000000  0.5439740000000 1.0
C      1  0.4214880000000  0.4388060000000  0.4471970000000 1.0
C      1  0.4218210000000  0.5305520000000  0.4179470000000 1.0
C      1  0.6090850000000  0.4551790000000  0.5115970000000 1.0
C      1  0.6117560000000  0.4761930000000  0.4663760000000 1.0
C      1  0.6128240000000  0.5275110000000  0.4697690000000 1.0
C      1  0.6133620000000  0.5457320000000  0.5169200000000 1.0
C      1  0.6129320000000  0.4982250000000  0.5381000000000 1.0
C      1  0.3889320000000  0.4602660000000  0.5127020000000 1.0
C      1  0.3889070000000  0.4794420000000  0.4651680000000 1.0
C      1  0.3923430000000  0.5287850000000  0.4623630000000 1.0
C      1  0.3899910000000  0.5353710000000  0.5135380000000 1.0
C      1  0.3921550000000  0.4968930000000  0.5467850000000 1.0
C      1  0.4859440000000  0.5563720000000  0.5350800000000 1.0
C      1  0.4832540000000  0.4831030000000  0.5672960000000 1.0
C      1  0.4849870000000  0.4319480000000  0.5062060000000 1.0
C      1  0.4880550000000  0.4742050000000  0.4386730000000 1.0
C      1  0.4875410000000  0.5518100000000  0.4557820000000 1.0
C      1  0.5163680000000  0.5578710000000  0.5348600000000 1.0
C      1  0.5130000000000  0.4836890000000  0.5654330000000 1.0
C      1  0.5152120000000  0.4322320000000  0.5058970000000 1.0
C      1  0.5185030000000  0.4737530000000  0.4382900000000 1.0
C      1  0.5177590000000  0.5526690000000  0.4563600000000 1.0
C      1  0.5240070000000  0.3975240000000  0.4715670000000 1.0
C      1  0.5252500000000  0.4944380000000  0.3973010000000 1.0
C      1  0.5244450000000  0.5990410000000  0.4630860000000 1.0
C      1  0.5252010000000  0.5631920000000  0.5790010000000 1.0
C      1  0.5251930000000  0.4435790000000  0.5875110000000 1.0
C      1  0.4760110000000  0.3991970000000  0.4741270000000 1.0
C      1  0.4766520000000  0.4946110000000  0.3981290000000 1.0
C      1  0.4762170000000  0.5972130000000  0.4632170000000 1.0
C      1  0.4769940000000  0.5645410000000  0.5798360000000 1.0
C      1  0.4771350000000  0.4398050000000  0.5895220000000 1.0
C      1  0.5179630000000  0.4111000000000  0.5787090000000 1.0
C      1  0.5159090000000  0.3974890000000  0.4381980000000 1.0
C      1  0.5159920000000  0.5256550000000  0.3868110000000 1.0
C      1  0.5158120000000  0.6183480000000  0.4900650000000 1.0
C      1  0.5160440000000  0.5443930000000  0.6060140000000 1.0
C      1  0.4864980000000  0.4086430000000  0.5786060000000 1.0
C      1  0.4846320000000  0.3983150000000  0.4408760000000 1.0
C      1  0.4855060000000  0.5256640000000  0.3867910000000 1.0
C      1  0.4847730000000  0.6171500000000  0.4898300000000 1.0
C      1  0.4855310000000  0.5459390000000  0.6072860000000 1.0
C      1  0.4063210000000  0.5016610000000  0.4262010000000 1.0
C      1  0.4066260000000  0.5695580000000  0.4807660000000 1.0
C      1  0.4064680000000  0.5405510000000  0.5580820000000 1.0
C      1  0.4055070000000  0.4529170000000  0.5597840000000 1.0
C      1  0.4063920000000  0.4344020000000  0.4773480000000 1.0
C      1  0.5949790000000  0.5016840000000  0.4303820000000 1.0
C      1  0.5956690000000  0.5708930000000  0.4795600000000 1.0
C      1  0.5960510000000  0.5400230000000  0.5603300000000 1.0
C      1  0.5949230000000  0.4576470000000  0.5562410000000 1.0
C      1  0.5956430000000  0.4292620000000  0.4741230000000 1.0
C      1  0.4744850000000  0.5863480000000  0.5435020000000 1.0
C      1  0.4727250000000  0.4851170000000  0.5986200000000 1.0
C      1  0.4745360000000  0.4025240000000  0.5170890000000 1.0
C      1  0.4752550000000  0.4539580000000  0.4152060000000 1.0
C      1  0.4739320000000  0.5691050000000  0.4300310000000 1.0
C      1  0.5284700000000  0.5880950000000  0.5436670000000 1.0
C      1  0.5264590000000  0.4846780000000  0.5954020000000 1.0
C      1  0.5279300000000  0.4035390000000  0.5168370000000 1.0
C      1  0.5277480000000  0.4541040000000  0.4130480000000 1.0
C      1  0.5274360000000  0.5691640000000  0.4296860000000 1.0
C      1  0.5012450000000  0.3956560000000  0.4969900000000 1.0
C      1  0.5007320000000  0.5868050000000  0.4417090000000 1.0
C      1  0.5009070000000  0.4707830000000  0.4004250000000 1.0
C      1  0.5014830000000  0.5820150000000  0.5636410000000 1.0
C      1  0.4996210000000  0.4638730000000  0.5983050000000 1.0
C      1  0.5815440000000  0.5182580000000  0.4948150000000 1.0
C      1  0.4237970000000  0.5018840000000  0.4806490000000 1.0
C      1  0.5636820000000  0.4925320000000  0.4983580000000 1.0
C      1  0.4362250000000  0.4951060000000  0.5089680000000 1.0
END
