TITL C-2782238-9940-900 -0.0016687542400761 125000 -1137.40839702764 0 0 193 (C1) n - 1
REM
REM in /home/nfs/bkarasulu/CARBON/AIRSS/Generating-Clusters/REBO/Higher-Symm/SD-CG/HFTN-CG
REM
REM
REM
REM
REM
REM ./C.cell (12c818d87b63d06a65506943cc24bca4)
REM
REM compiler GCC version 9.2.1 20190827 (Red Hat 9.2.1-1)
REM options -cpp -mtune=generic -march=x86-64 -g -O0 -fpre-include=/usr/include/finclude/math-vector-fortran.h
REM seed -111340688 -418029917 -666606276 879560409 796623751 -864528641 1864247037 770746150 -803385695 2047824871 83855752 2084589847 -1976383630 -916144821 -1964199335 919241533 877701190 974739504 -972485209 1737437126 1559151718 1083777087 -233176489 -176008134 1213121269 82382019 -718122964 -1635572457 461385071 -1585211794 -1990695737 1923811410 347557754
REM
CELL 1.54180   50.00000   50.00000   50.00000   90.00000   90.00000   90.00000
LATT -1
SFAC C  
C      1  0.4610970000000  0.5763700000000  0.5218550000000 1.0
C      1  0.5374390000000  0.4300830000000  0.4843930000000 1.0
C      1  0.5978880000000  0.5267190000000  0.5151230000000 1.0
C      1  0.3996440000000  0.4702800000000  0.4887500000000 1.0
C      1  0.4279830000000  0.4540900000000  0.4956690000000 1.0
C      1  0.5687580000000  0.5415000000000  0.5049980000000 1.0
C      1  0.6027650000000  0.5483740000000  0.4891500000000 1.0
C      1  0.3930320000000  0.4478740000000  0.5136390000000 1.0
C      1  0.4640880000000  0.4782200000000  0.4006470000000 1.0
C      1  0.5369090000000  0.5249200000000  0.6053220000000 1.0
C      1  0.4600160000000  0.4765780000000  0.4345300000000 1.0
C      1  0.5312680000000  0.5043760000000  0.5787980000000 1.0
C      1  0.5527710000000  0.5424630000000  0.4095210000000 1.0
C      1  0.4428190000000  0.4516700000000  0.5772860000000 1.0
C      1  0.4930610000000  0.4241630000000  0.4289850000000 1.0
C      1  0.5043970000000  0.5789810000000  0.5705270000000 1.0
C      1  0.5515710000000  0.4250270000000  0.5685950000000 1.0
C      1  0.4503080000000  0.5809510000000  0.4256020000000 1.0
C      1  0.4528410000000  0.5840160000000  0.5677240000000 1.0
C      1  0.5457820000000  0.4187070000000  0.4331220000000 1.0
C      1  0.4574030000000  0.4765120000000  0.4813580000000 1.0
C      1  0.5375860000000  0.5244610000000  0.5233370000000 1.0
C      1  0.4346120000000  0.5293390000000  0.4817860000000 1.0
C      1  0.5705350000000  0.4706480000000  0.5045190000000 1.0
C      1  0.5679870000000  0.4441640000000  0.4250960000000 1.0
C      1  0.4314070000000  0.5585710000000  0.5767570000000 1.0
C      1  0.5613430000000  0.4752280000000  0.5336230000000 1.0
C      1  0.4512490000000  0.5173690000000  0.4577740000000 1.0
C      1  0.4171190000000  0.5569430000000  0.5457030000000 1.0
C      1  0.5804100000000  0.4446650000000  0.4567460000000 1.0
C      1  0.5203380000000  0.4585700000000  0.3996360000000 1.0
C      1  0.4831880000000  0.5419060000000  0.5982270000000 1.0
C      1  0.5568060000000  0.5203600000000  0.4479760000000 1.0
C      1  0.4456300000000  0.4827990000000  0.5453640000000 1.0
C      1  0.4116440000000  0.5334940000000  0.5328480000000 1.0
C      1  0.5788280000000  0.4683990000000  0.4715810000000 1.0
C      1  0.4664380000000  0.4911400000000  0.5982800000000 1.0
C      1  0.5361880000000  0.5130560000000  0.3996160000000 1.0
C      1  0.5764630000000  0.5711920000000  0.4537530000000 1.0
C      1  0.4216240000000  0.4185900000000  0.5392540000000 1.0
C      1  0.4755320000000  0.5963530000000  0.4661290000000 1.0
C      1  0.5235830000000  0.4062580000000  0.5327330000000 1.0
C      1  0.4622400000000  0.5466850000000  0.5776760000000 1.0
C      1  0.5374170000000  0.4564300000000  0.4243720000000 1.0
C      1  0.5679300000000  0.5378190000000  0.5655010000000 1.0
C      1  0.4246060000000  0.4589040000000  0.4324970000000 1.0
C      1  0.5188890000000  0.4122490000000  0.4407430000000 1.0
C      1  0.4797500000000  0.5926120000000  0.5601570000000 1.0
C      1  0.5679040000000  0.5707910000000  0.5165450000000 1.0
C      1  0.4297080000000  0.4223920000000  0.4905880000000 1.0
C      1  0.5587820000000  0.5699150000000  0.5436620000000 1.0
C      1  0.4521270000000  0.4325730000000  0.4683170000000 1.0
C      1  0.4572960000000  0.5176650000000  0.3862510000000 1.0
C      1  0.5470480000000  0.4735480000000  0.6115150000000 1.0
C      1  0.4151750000000  0.5561790000000  0.4838050000000 1.0
C      1  0.5872400000000  0.4421870000000  0.5070640000000 1.0
C      1  0.3985590000000  0.4804660000000  0.5579460000000 1.0
C      1  0.5992740000000  0.5238150000000  0.4332610000000 1.0
C      1  0.5766980000000  0.4930090000000  0.4524690000000 1.0
C      1  0.4250110000000  0.5077390000000  0.5463450000000 1.0
C      1  0.5093510000000  0.5478980000000  0.4428990000000 1.0
C      1  0.4880240000000  0.4535240000000  0.5586930000000 1.0
C      1  0.5115210000000  0.5064110000000  0.6134220000000 1.0
C      1  0.4883830000000  0.4930690000000  0.3884160000000 1.0
C      1  0.3999260000000  0.5257240000000  0.4814970000000 1.0
C      1  0.6061930000000  0.4661740000000  0.5214450000000 1.0
C      1  0.3725550000000  0.5228070000000  0.5447510000000 1.0
C      1  0.6281600000000  0.4890000000000  0.4583130000000 1.0
C      1  0.5005080000000  0.5356830000000  0.4798890000000 1.0
C      1  0.4946660000000  0.4640370000000  0.5209440000000 1.0
C      1  0.4539400000000  0.5643050000000  0.4759840000000 1.0
C      1  0.5441790000000  0.4389330000000  0.5227540000000 1.0
C      1  0.6062200000000  0.4926330000000  0.4372660000000 1.0
C      1  0.3973930000000  0.5138560000000  0.5653710000000 1.0
C      1  0.5171350000000  0.4864970000000  0.3902440000000 1.0
C      1  0.4852120000000  0.5150070000000  0.6071870000000 1.0
C      1  0.5280090000000  0.5899840000000  0.4735790000000 1.0
C      1  0.4722080000000  0.4087060000000  0.5263580000000 1.0
C      1  0.4276740000000  0.5731590000000  0.4576060000000 1.0
C      1  0.5732430000000  0.4273550000000  0.5340850000000 1.0
C      1  0.4940590000000  0.4560200000000  0.4359530000000 1.0
C      1  0.5128150000000  0.5471070000000  0.5598690000000 1.0
C      1  0.6005420000000  0.5357730000000  0.4590480000000 1.0
C      1  0.3861240000000  0.4586080000000  0.5377780000000 1.0
C      1  0.4311330000000  0.4823180000000  0.4088830000000 1.0
C      1  0.5620630000000  0.5142010000000  0.5861060000000 1.0
C      1  0.5705320000000  0.4959390000000  0.4103890000000 1.0
C      1  0.4358520000000  0.4969620000000  0.5900920000000 1.0
C      1  0.5274300000000  0.4617480000000  0.4564530000000 1.0
C      1  0.4748240000000  0.5488370000000  0.5474890000000 1.0
C      1  0.5769870000000  0.5007240000000  0.4936240000000 1.0
C      1  0.4268130000000  0.5103680000000  0.5064940000000 1.0
C      1  0.5051650000000  0.4481270000000  0.5936500000000 1.0
C      1  0.4911380000000  0.5523810000000  0.4079370000000 1.0
C      1  0.4502560000000  0.5206680000000  0.5608260000000 1.0
C      1  0.5514540000000  0.4834440000000  0.4335850000000 1.0
C      1  0.4978400000000  0.4401440000000  0.3996920000000 1.0
C      1  0.5048600000000  0.5606280000000  0.5964990000000 1.0
C      1  0.5328930000000  0.5952020000000  0.5244560000000 1.0
C      1  0.4717290000000  0.3983880000000  0.4747040000000 1.0
C      1  0.5006980000000  0.6035960000000  0.4848190000000 1.0
C      1  0.5002170000000  0.3986950000000  0.5131350000000 1.0
C      1  0.5233450000000  0.4527860000000  0.5054370000000 1.0
C      1  0.4638190000000  0.5545190000000  0.5035000000000 1.0
C      1  0.4451960000000  0.5304820000000  0.4293790000000 1.0
C      1  0.5547300000000  0.4647360000000  0.5655770000000 1.0
C      1  0.5215080000000  0.4570330000000  0.5644380000000 1.0
C      1  0.4784680000000  0.5356540000000  0.4349520000000 1.0
C      1  0.4840350000000  0.4349510000000  0.5089420000000 1.0
C      1  0.5125390000000  0.5655090000000  0.4871690000000 1.0
C      1  0.5288910000000  0.4759220000000  0.5375830000000 1.0
C      1  0.4819420000000  0.5097570000000  0.4558380000000 1.0
C      1  0.3957650000000  0.4991330000000  0.5023320000000 1.0
C      1  0.6069300000000  0.4950080000000  0.5059540000000 1.0
C      1  0.4274920000000  0.4803250000000  0.5175550000000 1.0
C      1  0.5742840000000  0.5262870000000  0.4751120000000 1.0
C      1  0.4992340000000  0.5190080000000  0.5605230000000 1.0
C      1  0.4983570000000  0.4802290000000  0.4249560000000 1.0
C      1  0.5867930000000  0.4704270000000  0.4202610000000 1.0
C      1  0.4233580000000  0.5258560000000  0.5817770000000 1.0
C      1  0.5511240000000  0.5907600000000  0.4958570000000 1.0
C      1  0.4548100000000  0.4049970000000  0.4973070000000 1.0
C      1  0.4751580000000  0.5173360000000  0.5415630000000 1.0
C      1  0.5328180000000  0.4914770000000  0.4608940000000 1.0
C      1  0.5833720000000  0.4940120000000  0.5517040000000 1.0
C      1  0.4200190000000  0.5040890000000  0.4545670000000 1.0
C      1  0.5244060000000  0.4856670000000  0.5056040000000 1.0
C      1  0.4788760000000  0.5264010000000  0.5017690000000 1.0
C      1  0.4392790000000  0.5117610000000  0.4063110000000 1.0
C      1  0.5623650000000  0.4818780000000  0.5895460000000 1.0
C      1  0.4402100000000  0.5750090000000  0.5415560000000 1.0
C      1  0.5584120000000  0.4256950000000  0.4591360000000 1.0
C      1  0.5786750000000  0.5740630000000  0.4840920000000 1.0
C      1  0.4097330000000  0.4246250000000  0.5151420000000 1.0
C      1  0.5013200000000  0.5810470000000  0.4226020000000 1.0
C      1  0.5020830000000  0.4201090000000  0.5749000000000 1.0
C      1  0.4985620000000  0.3977320000000  0.4846490000000 1.0
C      1  0.5024260000000  0.6062140000000  0.5138550000000 1.0
C      1  0.4105980000000  0.4767840000000  0.4578120000000 1.0
C      1  0.5866970000000  0.5219820000000  0.5457880000000 1.0
C      1  0.4238330000000  0.4735460000000  0.5774600000000 1.0
C      1  0.5776780000000  0.5230640000000  0.4139690000000 1.0
C      1  0.5257800000000  0.5056280000000  0.5463390000000 1.0
C      1  0.4858240000000  0.4845120000000  0.4749410000000 1.0
C      1  0.5306950000000  0.5170300000000  0.4301990000000 1.0
C      1  0.4697430000000  0.4864180000000  0.5652710000000 1.0
C      1  0.4690810000000  0.4477890000000  0.4058660000000 1.0
C      1  0.5327140000000  0.5540710000000  0.6001340000000 1.0
C      1  0.4657150000000  0.4136020000000  0.4448710000000 1.0
C      1  0.5334510000000  0.5868170000000  0.5575230000000 1.0
C      1  0.4571060000000  0.5011350000000  0.5007620000000 1.0
C      1  0.5467150000000  0.5048710000000  0.4986860000000 1.0
C      1  0.5138710000000  0.5110120000000  0.4657080000000 1.0
C      1  0.4779190000000  0.4934810000000  0.5244500000000 1.0
C      1  0.5047290000000  0.4344570000000  0.5357360000000 1.0
C      1  0.4851650000000  0.5639110000000  0.4700990000000 1.0
C      1  0.5268350000000  0.4147270000000  0.5625550000000 1.0
C      1  0.4748920000000  0.5910140000000  0.4349170000000 1.0
C      1  0.5663270000000  0.4188240000000  0.4964270000000 1.0
C      1  0.4246270000000  0.5826380000000  0.4960570000000 1.0
C      1  0.4867730000000  0.5239240000000  0.3976630000000 1.0
C      1  0.5165800000000  0.4759700000000  0.6058940000000 1.0
C      1  0.5037170000000  0.5074580000000  0.4221420000000 1.0
C      1  0.5010450000000  0.4901450000000  0.5785620000000 1.0
C      1  0.4735750000000  0.4581310000000  0.5902940000000 1.0
C      1  0.5237340000000  0.5564000000000  0.4126170000000 1.0
C      1  0.4973640000000  0.4575590000000  0.4665970000000 1.0
C      1  0.4981310000000  0.5612390000000  0.5353210000000 1.0
C      1  0.5365460000000  0.5431930000000  0.4622390000000 1.0
C      1  0.4618560000000  0.4540950000000  0.5422600000000 1.0
C      1  0.3847380000000  0.4977370000000  0.5314840000000 1.0
C      1  0.6275730000000  0.4928590000000  0.4828390000000 1.0
C      1  0.5524060000000  0.4032530000000  0.5223460000000 1.0
C      1  0.4443440000000  0.5974510000000  0.4753930000000 1.0
C      1  0.5402310000000  0.5428400000000  0.5474960000000 1.0
C      1  0.4471450000000  0.4611030000000  0.4579740000000 1.0
C      1  0.5790000000000  0.4431950000000  0.5597280000000 1.0
C      1  0.4281550000000  0.5565600000000  0.4311650000000 1.0
C      1  0.5180220000000  0.4101680000000  0.4692380000000 1.0
C      1  0.4810120000000  0.5969860000000  0.5304930000000 1.0
C      1  0.5522570000000  0.5659900000000  0.5774110000000 1.0
C      1  0.4504650000000  0.4374580000000  0.4259730000000 1.0
C      1  0.5158450000000  0.5688410000000  0.5160020000000 1.0
C      1  0.4810380000000  0.4367530000000  0.4803290000000 1.0
C      1  0.5972740000000  0.4676520000000  0.5492960000000 1.0
C      1  0.4107200000000  0.5343220000000  0.4501330000000 1.0
C      1  0.5262660000000  0.5780350000000  0.4456480000000 1.0
C      1  0.4770140000000  0.4150890000000  0.5589160000000 1.0
C      1  0.5388910000000  0.5358880000000  0.4910560000000 1.0
C      1  0.4554970000000  0.4626560000000  0.5124100000000 1.0
C      1  0.4459880000000  0.4285830000000  0.5552040000000 1.0
C      1  0.5537440000000  0.5604290000000  0.4385510000000 1.0
C      1  0.4977310000000  0.4975170000000  0.4995230000000 1.0
END
