TITL C-2782227-3064-468 -0.00617921124342839 125000 -933.107132435197 0 0 163 (C1) n - 1
REM
REM in /home/nfs/bkarasulu/CARBON/AIRSS/Generating-Clusters/REBO/Higher-Symm/SD-CG/HFTN-CG
REM
REM
REM
REM
REM
REM ./C.cell (12c818d87b63d06a65506943cc24bca4)
REM
REM compiler GCC version 9.2.1 20190827 (Red Hat 9.2.1-1)
REM options -cpp -mtune=generic -march=x86-64 -g -O0 -fpre-include=/usr/include/finclude/math-vector-fortran.h
REM seed -1283988239 1785888265 -1046812888 97589040 177243318 -2092112322 -1716218378 566004545 853860520 545099986 -466934254 -656988323 649933641 617683887 1134590213 1610358801 173367408 599753724 1865812282 398576592 278489777 1523973634 -77826281 275369656 1391843921 -1768751762 -1106947612 -1358684760 49061255 -1296386739 -2128006321 1448201390 210361126
REM
CELL 1.54180   50.00000   50.00000   50.00000   90.00000   90.00000   90.00000
LATT -1
SFAC C  
C      1  0.4397630000000  0.5088680000000  0.4067860000000 1.0
C      1  0.4621820000000  0.4518320000000  0.4079460000000 1.0
C      1  0.5226910000000  0.4424490000000  0.4081280000000 1.0
C      1  0.5613610000000  0.4901020000000  0.4079880000000 1.0
C      1  0.5387570000000  0.5473210000000  0.4092960000000 1.0
C      1  0.4784720000000  0.5565210000000  0.4081930000000 1.0
C      1  0.4400560000000  0.5132680000000  0.5897440000000 1.0
C      1  0.4589100000000  0.4549450000000  0.5895540000000 1.0
C      1  0.5188360000000  0.4420460000000  0.5893490000000 1.0
C      1  0.5600330000000  0.4874250000000  0.5895760000000 1.0
C      1  0.5413440000000  0.5457760000000  0.5902320000000 1.0
C      1  0.4814320000000  0.5587170000000  0.5898290000000 1.0
C      1  0.4105950000000  0.4927760000000  0.5160120000000 1.0
C      1  0.4621080000000  0.4186240000000  0.5155600000000 1.0
C      1  0.5520280000000  0.4265720000000  0.5162810000000 1.0
C      1  0.5907310000000  0.5081510000000  0.5158460000000 1.0
C      1  0.5383380000000  0.5824050000000  0.5158000000000 1.0
C      1  0.4483900000000  0.5748020000000  0.5180520000000 1.0
C      1  0.4167270000000  0.4885910000000  0.4842110000000 1.0
C      1  0.4685720000000  0.4227540000000  0.4838080000000 1.0
C      1  0.5523040000000  0.4337140000000  0.4845430000000 1.0
C      1  0.5840830000000  0.5115910000000  0.4842010000000 1.0
C      1  0.5316700000000  0.5764900000000  0.4842230000000 1.0
C      1  0.4464840000000  0.5678850000000  0.4860100000000 1.0
C      1  0.5722470000000  0.5858260000000  0.5151530000000 1.0
C      1  0.4613940000000  0.6062200000000  0.5196790000000 1.0
C      1  0.3909840000000  0.5206600000000  0.5158730000000 1.0
C      1  0.4281750000000  0.4153100000000  0.5154800000000 1.0
C      1  0.5385890000000  0.3952350000000  0.5161080000000 1.0
C      1  0.6104700000000  0.4803460000000  0.5157090000000 1.0
C      1  0.5634620000000  0.5781220000000  0.4850200000000 1.0
C      1  0.4609900000000  0.5986180000000  0.4885710000000 1.0
C      1  0.4006540000000  0.5163040000000  0.4853100000000 1.0
C      1  0.4366290000000  0.4216790000000  0.4849370000000 1.0
C      1  0.5370080000000  0.4058260000000  0.4855840000000 1.0
C      1  0.6005630000000  0.4844700000000  0.4851670000000 1.0
C      1  0.4326180000000  0.4224310000000  0.4550160000000 1.0
C      1  0.5337810000000  0.4023450000000  0.4557960000000 1.0
C      1  0.6021500000000  0.4798260000000  0.4553920000000 1.0
C      1  0.5678380000000  0.5775830000000  0.4550700000000 1.0
C      1  0.4662020000000  0.5917160000000  0.4608350000000 1.0
C      1  0.3995880000000  0.5194930000000  0.4553240000000 1.0
C      1  0.4331700000000  0.4282860000000  0.5413780000000 1.0
C      1  0.5291050000000  0.4060570000000  0.5418050000000 1.0
C      1  0.5966780000000  0.4781770000000  0.5416060000000 1.0
C      1  0.5676920000000  0.5726930000000  0.5411530000000 1.0
C      1  0.4717320000000  0.5949000000000  0.5446300000000 1.0
C      1  0.4041710000000  0.5224360000000  0.5420190000000 1.0
C      1  0.5687010000000  0.4759990000000  0.5385270000000 1.0
C      1  0.5559750000000  0.5471360000000  0.5385730000000 1.0
C      1  0.4877070000000  0.5721410000000  0.5399930000000 1.0
C      1  0.4321310000000  0.5250280000000  0.5392590000000 1.0
C      1  0.4450690000000  0.4537110000000  0.5383090000000 1.0
C      1  0.5130440000000  0.4290260000000  0.5384220000000 1.0
C      1  0.5719350000000  0.4782510000000  0.4581030000000 1.0
C      1  0.5540550000000  0.5497970000000  0.4586280000000 1.0
C      1  0.4821670000000  0.5687430000000  0.4598700000000 1.0
C      1  0.4300870000000  0.5210710000000  0.4588120000000 1.0
C      1  0.4461600000000  0.4495490000000  0.4580600000000 1.0
C      1  0.5176870000000  0.4279500000000  0.4586030000000 1.0
C      1  0.4857180000000  0.5229080000000  0.4379120000000 1.0
C      1  0.4726710000000  0.4987720000000  0.4369960000000 1.0
C      1  0.4871810000000  0.4754610000000  0.4374610000000 1.0
C      1  0.5147230000000  0.4758970000000  0.4372360000000 1.0
C      1  0.5278430000000  0.5001710000000  0.4377840000000 1.0
C      1  0.5130960000000  0.5236200000000  0.4403180000000 1.0
C      1  0.4874670000000  0.5242430000000  0.5600290000000 1.0
C      1  0.4733420000000  0.5008900000000  0.5592960000000 1.0
C      1  0.4864880000000  0.4770780000000  0.5589670000000 1.0
C      1  0.5136870000000  0.4765290000000  0.5588220000000 1.0
C      1  0.5279010000000  0.4997150000000  0.5595040000000 1.0
C      1  0.5147500000000  0.5236310000000  0.5598200000000 1.0
C      1  0.5908050000000  0.5413270000000  0.4713570000000 1.0
C      1  0.5072410000000  0.5962680000000  0.4741510000000 1.0
C      1  0.4190840000000  0.5576930000000  0.4701540000000 1.0
C      1  0.4095330000000  0.4590600000000  0.4705980000000 1.0
C      1  0.4909740000000  0.4015540000000  0.4718390000000 1.0
C      1  0.5815510000000  0.4419050000000  0.4712270000000 1.0
C      1  0.5936140000000  0.5390690000000  0.5283250000000 1.0
C      1  0.5133830000000  0.6005820000000  0.5290640000000 1.0
C      1  0.4196920000000  0.5613130000000  0.5285520000000 1.0
C      1  0.4075130000000  0.4616870000000  0.5276890000000 1.0
C      1  0.4872540000000  0.4004670000000  0.5280430000000 1.0
C      1  0.5805010000000  0.4394040000000  0.5280460000000 1.0
C      1  0.5562770000000  0.5183480000000  0.5811860000000 1.0
C      1  0.5128210000000  0.5578400000000  0.5814480000000 1.0
C      1  0.4562820000000  0.5401950000000  0.5816210000000 1.0
C      1  0.4439550000000  0.4824590000000  0.5809620000000 1.0
C      1  0.4875120000000  0.4429030000000  0.5808300000000 1.0
C      1  0.5436810000000  0.4607920000000  0.5807570000000 1.0
C      1  0.5559610000000  0.5207430000000  0.4165110000000 1.0
C      1  0.5093250000000  0.5571530000000  0.4183520000000 1.0
C      1  0.4542380000000  0.5365530000000  0.4156130000000 1.0
C      1  0.4453910000000  0.4784820000000  0.4159320000000 1.0
C      1  0.4913960000000  0.4415490000000  0.4167120000000 1.0
C      1  0.5465600000000  0.4624520000000  0.4163820000000 1.0
C      1  0.5727940000000  0.5278630000000  0.4452890000000 1.0
C      1  0.5106070000000  0.5745800000000  0.4476060000000 1.0
C      1  0.4385980000000  0.5478350000000  0.4436720000000 1.0
C      1  0.4278780000000  0.4716920000000  0.4443820000000 1.0
C      1  0.4889640000000  0.4240260000000  0.4458490000000 1.0
C      1  0.5612340000000  0.4513810000000  0.4450990000000 1.0
C      1  0.5738920000000  0.5249260000000  0.5527700000000 1.0
C      1  0.5164950000000  0.5759230000000  0.5528590000000 1.0
C      1  0.4425150000000  0.5519040000000  0.5526980000000 1.0
C      1  0.4271980000000  0.4761390000000  0.5519960000000 1.0
C      1  0.4846010000000  0.4248690000000  0.5521350000000 1.0
C      1  0.5578280000000  0.4492990000000  0.5519930000000 1.0
C      1  0.4940260000000  0.4721230000000  0.5977750000000 1.0
C      1  0.5215150000000  0.4810100000000  0.5976460000000 1.0
C      1  0.5276810000000  0.5092130000000  0.5981730000000 1.0
C      1  0.5061590000000  0.5286400000000  0.5983920000000 1.0
C      1  0.4783900000000  0.5198590000000  0.5985430000000 1.0
C      1  0.4724860000000  0.4914710000000  0.5980040000000 1.0
C      1  0.4962130000000  0.4707740000000  0.3989640000000 1.0
C      1  0.5235760000000  0.4812990000000  0.3988260000000 1.0
C      1  0.5279750000000  0.5102260000000  0.3993150000000 1.0
C      1  0.5049900000000  0.5275430000000  0.4014070000000 1.0
C      1  0.4779230000000  0.5175810000000  0.3992650000000 1.0
C      1  0.4733360000000  0.4888760000000  0.3984740000000 1.0
C      1  0.5035840000000  0.5576660000000  0.4831310000000 1.0
C      1  0.4471870000000  0.5338590000000  0.4841140000000 1.0
C      1  0.4451370000000  0.4712780000000  0.4825090000000 1.0
C      1  0.4978040000000  0.4391090000000  0.4822950000000 1.0
C      1  0.5529980000000  0.4668360000000  0.4824500000000 1.0
C      1  0.5552440000000  0.5280320000000  0.4825430000000 1.0
C      1  0.5092310000000  0.5643030000000  0.5147220000000 1.0
C      1  0.4501050000000  0.5406750000000  0.5148610000000 1.0
C      1  0.4409280000000  0.4769260000000  0.5136650000000 1.0
C      1  0.4911550000000  0.4367620000000  0.5134890000000 1.0
C      1  0.5508170000000  0.4608090000000  0.5137550000000 1.0
C      1  0.5604420000000  0.5242130000000  0.5136980000000 1.0
C      1  0.4687640000000  0.5439540000000  0.4521280000000 1.0
C      1  0.4454710000000  0.4966660000000  0.4517060000000 1.0
C      1  0.4753330000000  0.4515600000000  0.4519310000000 1.0
C      1  0.5307120000000  0.4538880000000  0.4520590000000 1.0
C      1  0.5554750000000  0.5024060000000  0.4520060000000 1.0
C      1  0.5246960000000  0.5467420000000  0.4533320000000 1.0
C      1  0.4733890000000  0.5476160000000  0.5463010000000 1.0
C      1  0.4462680000000  0.5004200000000  0.5453280000000 1.0
C      1  0.4734040000000  0.4534700000000  0.5449260000000 1.0
C      1  0.5273760000000  0.4534620000000  0.5450010000000 1.0
C      1  0.5548490000000  0.5007280000000  0.5453170000000 1.0
C      1  0.5277140000000  0.5473260000000  0.5455900000000 1.0
C      1  0.5048020000000  0.5269690000000  0.4792920000000 1.0
C      1  0.4736320000000  0.5186360000000  0.4755640000000 1.0
C      1  0.4701230000000  0.4879570000000  0.4751850000000 1.0
C      1  0.4952790000000  0.4695720000000  0.4760010000000 1.0
C      1  0.5254120000000  0.4795770000000  0.4753530000000 1.0
C      1  0.5309440000000  0.5101220000000  0.4760670000000 1.0
C      1  0.5083800000000  0.5316890000000  0.5212990000000 1.0
C      1  0.4775380000000  0.5236980000000  0.5214590000000 1.0
C      1  0.4695420000000  0.4925430000000  0.5204780000000 1.0
C      1  0.4923740000000  0.4692800000000  0.5203160000000 1.0
C      1  0.5233710000000  0.4785660000000  0.5201700000000 1.0
C      1  0.5316030000000  0.5097640000000  0.5211330000000 1.0
C      1  0.4073140000000  0.5465040000000  0.5003530000000 1.0
C      1  0.5939820000000  0.4544010000000  0.5005270000000 1.0
C      1  0.4915540000000  0.6048260000000  0.5032210000000 1.0
C      1  0.5077780000000  0.3964210000000  0.5011210000000 1.0
C      1  0.5865730000000  0.5580980000000  0.5008670000000 1.0
C      1  0.4138770000000  0.4424810000000  0.5002050000000 1.0
C      1  0.5000180000000  0.4998020000000  0.4987560000000 1.0
END
