TITL C-2782227-3064-78 0.48089209873139 125000 -1164.05823512823 0 0 197 (C1) n - 1
REM
REM in /home/nfs/bkarasulu/CARBON/AIRSS/Generating-Clusters/REBO/Higher-Symm/SD-CG/HFTN-CG
REM
REM
REM
REM
REM
REM ./C.cell (12c818d87b63d06a65506943cc24bca4)
REM
REM compiler GCC version 9.2.1 20190827 (Red Hat 9.2.1-1)
REM options -cpp -mtune=generic -march=x86-64 -g -O0 -fpre-include=/usr/include/finclude/math-vector-fortran.h
REM seed -135779864 144832487 263960985 -415224698 1409448002 -189924952 497046538 686464066 1975032638 -1025935579 -1073778517 109129312 -1647500119 2096382565 852711247 -1032630320 -100594208 1416675122 1609043882 -181461796 1817653070 -506186641 154112462 -305151055 -1565204522 -1539510662 1804220001 1278591379 1675949414 1915306557 1901350989 -847105259 -2075380354
REM
CELL 1.54180   50.00000   50.00000   50.00000   90.00000   90.00000   90.00000
LATT -1
SFAC C  
C      1  0.4751600000000  0.4907380000000  0.3871190000000 1.0
C      1  0.3837290000000  0.4895980000000  0.4918170000000 1.0
C      1  0.4567640000000  0.4891500000000  0.6120170000000 1.0
C      1  0.5926420000000  0.4922100000000  0.5790450000000 1.0
C      1  0.6054050000000  0.4883030000000  0.4385250000000 1.0
C      1  0.5623310000000  0.4512100000000  0.5622830000000 1.0
C      1  0.5718010000000  0.4488960000000  0.4711460000000 1.0
C      1  0.4953350000000  0.4481510000000  0.4166570000000 1.0
C      1  0.4109030000000  0.4588850000000  0.4824500000000 1.0
C      1  0.4563580000000  0.4462090000000  0.5729210000000 1.0
C      1  0.4517490000000  0.4737770000000  0.3884320000000 1.0
C      1  0.3797270000000  0.4717630000000  0.5147950000000 1.0
C      1  0.4773520000000  0.4732710000000  0.6244550000000 1.0
C      1  0.6087470000000  0.4744530000000  0.5626240000000 1.0
C      1  0.5951270000000  0.4695940000000  0.4189940000000 1.0
C      1  0.4687080000000  0.5076900000000  0.4363740000000 1.0
C      1  0.4259180000000  0.5100200000000  0.5160370000000 1.0
C      1  0.4888410000000  0.5059340000000  0.5745580000000 1.0
C      1  0.5634240000000  0.5180180000000  0.5434680000000 1.0
C      1  0.5704660000000  0.5068760000000  0.4443140000000 1.0
C      1  0.6079360000000  0.4866220000000  0.4664730000000 1.0
C      1  0.5036560000000  0.4897350000000  0.3856520000000 1.0
C      1  0.3879220000000  0.4857190000000  0.4639710000000 1.0
C      1  0.4328730000000  0.4865860000000  0.5963120000000 1.0
C      1  0.5708990000000  0.4874270000000  0.5963240000000 1.0
C      1  0.5309040000000  0.4500950000000  0.5153070000000 1.0
C      1  0.5098640000000  0.4455480000000  0.4782500000000 1.0
C      1  0.4770080000000  0.4463560000000  0.4723460000000 1.0
C      1  0.4665820000000  0.4549810000000  0.5024440000000 1.0
C      1  0.4885020000000  0.4455100000000  0.5264190000000 1.0
C      1  0.3990710000000  0.5095880000000  0.5378110000000 1.0
C      1  0.5023340000000  0.5099410000000  0.6066510000000 1.0
C      1  0.6061480000000  0.5127110000000  0.5338190000000 1.0
C      1  0.5711050000000  0.5095510000000  0.4081490000000 1.0
C      1  0.4391130000000  0.5101200000000  0.4173390000000 1.0
C      1  0.4548840000000  0.5707550000000  0.4112640000000 1.0
C      1  0.3951470000000  0.5705550000000  0.5157840000000 1.0
C      1  0.4827040000000  0.5713730000000  0.6026420000000 1.0
C      1  0.5925420000000  0.5962880000000  0.5497340000000 1.0
C      1  0.5874910000000  0.5839890000000  0.4342380000000 1.0
C      1  0.4381190000000  0.4776480000000  0.4797960000000 1.0
C      1  0.4569920000000  0.4739100000000  0.5549060000000 1.0
C      1  0.5370650000000  0.4726930000000  0.5544850000000 1.0
C      1  0.5571200000000  0.4775250000000  0.4804280000000 1.0
C      1  0.5057100000000  0.4753130000000  0.4312630000000 1.0
C      1  0.4931630000000  0.4075430000000  0.5707150000000 1.0
C      1  0.5630940000000  0.4080600000000  0.5388410000000 1.0
C      1  0.5452710000000  0.4090570000000  0.4439280000000 1.0
C      1  0.4634520000000  0.4074110000000  0.4311780000000 1.0
C      1  0.4299880000000  0.4146580000000  0.5078540000000 1.0
C      1  0.5210630000000  0.6157240000000  0.4807060000000 1.0
C      1  0.4898420000000  0.6067290000000  0.4728890000000 1.0
C      1  0.4697630000000  0.6151780000000  0.4972620000000 1.0
C      1  0.4876640000000  0.6146820000000  0.5252560000000 1.0
C      1  0.5184600000000  0.6076570000000  0.5121250000000 1.0
C      1  0.5158690000000  0.5777160000000  0.5631960000000 1.0
C      1  0.5687010000000  0.5877750000000  0.4966810000000 1.0
C      1  0.5329440000000  0.5869110000000  0.4362970000000 1.0
C      1  0.4435310000000  0.5805450000000  0.4593520000000 1.0
C      1  0.4453230000000  0.5826660000000  0.5387430000000 1.0
C      1  0.4789760000000  0.5600480000000  0.4175050000000 1.0
C      1  0.4334270000000  0.5488660000000  0.5214850000000 1.0
C      1  0.4683720000000  0.5586410000000  0.5834580000000 1.0
C      1  0.5720910000000  0.5714990000000  0.5449930000000 1.0
C      1  0.5672780000000  0.5606110000000  0.4459840000000 1.0
C      1  0.4158440000000  0.5299520000000  0.5592830000000 1.0
C      1  0.5303030000000  0.5243840000000  0.5973950000000 1.0
C      1  0.5969150000000  0.5270290000000  0.5055170000000 1.0
C      1  0.5406360000000  0.5246770000000  0.4091200000000 1.0
C      1  0.4197410000000  0.5232240000000  0.4407610000000 1.0
C      1  0.4392040000000  0.4135860000000  0.4208340000000 1.0
C      1  0.4099430000000  0.4398820000000  0.5087900000000 1.0
C      1  0.5111340000000  0.4093800000000  0.5919170000000 1.0
C      1  0.5766370000000  0.4361130000000  0.5352230000000 1.0
C      1  0.5461360000000  0.4097170000000  0.4167810000000 1.0
C      1  0.5912620000000  0.5828110000000  0.5206390000000 1.0
C      1  0.5599790000000  0.5795160000000  0.4186200000000 1.0
C      1  0.4344190000000  0.5739450000000  0.4285710000000 1.0
C      1  0.4112010000000  0.5818450000000  0.5350260000000 1.0
C      1  0.5085200000000  0.5771490000000  0.5964410000000 1.0
C      1  0.5997700000000  0.4616850000000  0.4817480000000 1.0
C      1  0.5150320000000  0.4637040000000  0.3939050000000 1.0
C      1  0.4006770000000  0.4567510000000  0.4533820000000 1.0
C      1  0.4294360000000  0.4627170000000  0.5816370000000 1.0
C      1  0.5560320000000  0.4607480000000  0.5927160000000 1.0
C      1  0.5181320000000  0.5176940000000  0.4545970000000 1.0
C      1  0.4521970000000  0.5298860000000  0.4794580000000 1.0
C      1  0.4665710000000  0.5203000000000  0.5325560000000 1.0
C      1  0.5243780000000  0.5269240000000  0.5466310000000 1.0
C      1  0.5462440000000  0.5249690000000  0.4961750000000 1.0
C      1  0.4415350000000  0.6055330000000  0.5136730000000 1.0
C      1  0.4883960000000  0.5962200000000  0.5541930000000 1.0
C      1  0.5448310000000  0.5916620000000  0.5187210000000 1.0
C      1  0.5327860000000  0.6145420000000  0.4509180000000 1.0
C      1  0.4735010000000  0.5890080000000  0.4514170000000 1.0
C      1  0.3901640000000  0.4798170000000  0.5397360000000 1.0
C      1  0.5037010000000  0.4811800000000  0.6188470000000 1.0
C      1  0.6115850000000  0.4836830000000  0.5352830000000 1.0
C      1  0.5735060000000  0.4787030000000  0.4036350000000 1.0
C      1  0.4326460000000  0.4810930000000  0.4077090000000 1.0
C      1  0.4901360000000  0.5598680000000  0.4499320000000 1.0
C      1  0.4323480000000  0.5749480000000  0.5017830000000 1.0
C      1  0.4801620000000  0.5630080000000  0.5535560000000 1.0
C      1  0.5421660000000  0.5631890000000  0.5306320000000 1.0
C      1  0.5423320000000  0.5581110000000  0.4689690000000 1.0
C      1  0.4701570000000  0.5142650000000  0.5997580000000 1.0
C      1  0.5911830000000  0.5175960000000  0.5619930000000 1.0
C      1  0.5975210000000  0.5182400000000  0.4280360000000 1.0
C      1  0.4690170000000  0.5149640000000  0.4046530000000 1.0
C      1  0.3949080000000  0.5154130000000  0.5048460000000 1.0
C      1  0.5878430000000  0.5591490000000  0.4988750000000 1.0
C      1  0.5363390000000  0.5562790000000  0.4210420000000 1.0
C      1  0.4221920000000  0.5531400000000  0.4504010000000 1.0
C      1  0.4245470000000  0.5627910000000  0.5578990000000 1.0
C      1  0.5293660000000  0.5547950000000  0.5858490000000 1.0
C      1  0.4524360000000  0.5448620000000  0.5495870000000 1.0
C      1  0.5427730000000  0.5485190000000  0.5589350000000 1.0
C      1  0.5691150000000  0.5419610000000  0.4809950000000 1.0
C      1  0.5109880000000  0.5404900000000  0.4312590000000 1.0
C      1  0.4294240000000  0.5498920000000  0.4805470000000 1.0
C      1  0.5835470000000  0.5347170000000  0.4539290000000 1.0
C      1  0.4921680000000  0.5345090000000  0.4039970000000 1.0
C      1  0.4059740000000  0.5441400000000  0.5018000000000 1.0
C      1  0.4506820000000  0.5322810000000  0.5817680000000 1.0
C      1  0.5743850000000  0.5447320000000  0.5615820000000 1.0
C      1  0.5359690000000  0.4076600000000  0.5424190000000 1.0
C      1  0.5451720000000  0.4036080000000  0.4732190000000 1.0
C      1  0.4934680000000  0.4014740000000  0.4376480000000 1.0
C      1  0.4442570000000  0.4018160000000  0.4877720000000 1.0
C      1  0.4739200000000  0.4041750000000  0.5470480000000 1.0
C      1  0.5896740000000  0.4377540000000  0.5048690000000 1.0
C      1  0.5304730000000  0.4346980000000  0.4032560000000 1.0
C      1  0.4195120000000  0.4320090000000  0.4393500000000 1.0
C      1  0.4202880000000  0.4363960000000  0.5406420000000 1.0
C      1  0.5339920000000  0.4345140000000  0.5903800000000 1.0
C      1  0.5193510000000  0.4796850000000  0.5193690000000 1.0
C      1  0.5178950000000  0.4749580000000  0.4868700000000 1.0
C      1  0.4877650000000  0.4786070000000  0.4747680000000 1.0
C      1  0.4707440000000  0.4872060000000  0.5006630000000 1.0
C      1  0.4882180000000  0.4788750000000  0.5260610000000 1.0
C      1  0.4252450000000  0.4640570000000  0.4322690000000 1.0
C      1  0.4092930000000  0.4609650000000  0.5575510000000 1.0
C      1  0.5237920000000  0.4638960000000  0.6030470000000 1.0
C      1  0.5979100000000  0.4689660000000  0.5139350000000 1.0
C      1  0.5469450000000  0.4644670000000  0.4044870000000 1.0
C      1  0.5205790000000  0.3961930000000  0.4849840000000 1.0
C      1  0.4932500000000  0.3969250000000  0.4707750000000 1.0
C      1  0.4717330000000  0.3964050000000  0.4948660000000 1.0
C      1  0.4850120000000  0.3982530000000  0.5208940000000 1.0
C      1  0.5174120000000  0.3996330000000  0.5171050000000 1.0
C      1  0.4738210000000  0.5829510000000  0.5199550000000 1.0
C      1  0.5068710000000  0.5809290000000  0.5301250000000 1.0
C      1  0.5407300000000  0.5877860000000  0.4792870000000 1.0
C      1  0.5116290000000  0.5824730000000  0.4615210000000 1.0
C      1  0.4613670000000  0.5831580000000  0.4882970000000 1.0
C      1  0.3940800000000  0.5074140000000  0.4482690000000 1.0
C      1  0.4261400000000  0.5114960000000  0.5845140000000 1.0
C      1  0.5563410000000  0.5088880000000  0.6055380000000 1.0
C      1  0.6086890000000  0.5099480000000  0.4812710000000 1.0
C      1  0.5155260000000  0.5156080000000  0.3932340000000 1.0
C      1  0.4480090000000  0.4388280000000  0.5208050000000 1.0
C      1  0.4958400000000  0.4367960000000  0.5533900000000 1.0
C      1  0.5377030000000  0.4250570000000  0.5065920000000 1.0
C      1  0.5274270000000  0.4351200000000  0.4562470000000 1.0
C      1  0.4693040000000  0.4199920000000  0.4625630000000 1.0
C      1  0.5350410000000  0.5018230000000  0.4789870000000 1.0
C      1  0.4928260000000  0.4973160000000  0.4499240000000 1.0
C      1  0.4460550000000  0.5045970000000  0.4961670000000 1.0
C      1  0.4774140000000  0.4966220000000  0.5498240000000 1.0
C      1  0.5377170000000  0.4993370000000  0.5363950000000 1.0
C      1  0.4851330000000  0.5290230000000  0.5083410000000 1.0
C      1  0.4994720000000  0.5429910000000  0.5339220000000 1.0
C      1  0.5249130000000  0.5445470000000  0.5108320000000 1.0
C      1  0.5150770000000  0.5423870000000  0.4782480000000 1.0
C      1  0.4810240000000  0.5427970000000  0.4779620000000 1.0
C      1  0.4735940000000  0.4649080000000  0.4369010000000 1.0
C      1  0.4255620000000  0.4702400000000  0.5107650000000 1.0
C      1  0.4862370000000  0.4622940000000  0.5688600000000 1.0
C      1  0.5625470000000  0.4669520000000  0.5324710000000 1.0
C      1  0.5462610000000  0.4595650000000  0.4535940000000 1.0
C      1  0.4305160000000  0.4772820000000  0.5385600000000 1.0
C      1  0.5137670000000  0.4748630000000  0.5749910000000 1.0
C      1  0.5696040000000  0.4838520000000  0.5078590000000 1.0
C      1  0.5351710000000  0.4764630000000  0.4312430000000 1.0
C      1  0.4485130000000  0.4760640000000  0.4499890000000 1.0
C      1  0.5691850000000  0.5134370000000  0.5136920000000 1.0
C      1  0.5418840000000  0.5054360000000  0.4349790000000 1.0
C      1  0.4447740000000  0.5094680000000  0.4565870000000 1.0
C      1  0.4379230000000  0.5079310000000  0.5461450000000 1.0
C      1  0.5198490000000  0.5081430000000  0.5710610000000 1.0
C      1  0.4509410000000  0.4246450000000  0.5504290000000 1.0
C      1  0.5256600000000  0.4276250000000  0.5596200000000 1.0
C      1  0.5642030000000  0.4231060000000  0.4890460000000 1.0
C      1  0.5113170000000  0.4243940000000  0.4296380000000 1.0
C      1  0.4370970000000  0.4134400000000  0.4606150000000 1.0
C      1  0.5034210000000  0.5079490000000  0.4993250000000 1.0
C      1  0.4984540000000  0.4309150000000  0.5021530000000 1.0
END
