TITL C-2782234-8014-35 -0.0026246749800275 125000 -1126.32969240881 0 0 189 (C1) n - 1
REM
REM in /home/nfs/bkarasulu/CARBON/AIRSS/Generating-Clusters/REBO/Higher-Symm/SD-CG/HFTN-CG
REM
REM
REM
REM
REM
REM ./C.cell (12c818d87b63d06a65506943cc24bca4)
REM
REM compiler GCC version 9.2.1 20190827 (Red Hat 9.2.1-1)
REM options -cpp -mtune=generic -march=x86-64 -g -O0 -fpre-include=/usr/include/finclude/math-vector-fortran.h
REM seed 2055139179 -1904998468 1201794105 1299378574 -447258602 444953473 1234439620 -81111836 2040223012 -2016692292 -30167161 1207633832 1996657939 1810878366 1810749832 -2123229518 1881238958 -1666160232 2128547130 1323468027 -888947261 -1743221217 1235958423 -1280752200 -1813423014 1618233767 -1890532521 126949218 -140954731 2083994065 631836667 -1997576950 1659646435
REM
CELL 1.54180   50.00000   50.00000   50.00000   90.00000   90.00000   90.00000
LATT -1
SFAC C  
C      1  0.4882300000000  0.4425750000000  0.4333130000000 1.0
C      1  0.4619820000000  0.5478080000000  0.4529990000000 1.0
C      1  0.5614700000000  0.5138880000000  0.4408500000000 1.0
C      1  0.4809120000000  0.4452810000000  0.5738670000000 1.0
C      1  0.4515770000000  0.5437470000000  0.5396940000000 1.0
C      1  0.5629760000000  0.5105970000000  0.5536590000000 1.0
C      1  0.5222710000000  0.4434420000000  0.4328720000000 1.0
C      1  0.5426420000000  0.5391660000000  0.4418460000000 1.0
C      1  0.4439640000000  0.5184780000000  0.4536450000000 1.0
C      1  0.5148360000000  0.4466840000000  0.5701090000000 1.0
C      1  0.5499740000000  0.5415640000000  0.5467400000000 1.0
C      1  0.4450050000000  0.5111120000000  0.5459430000000 1.0
C      1  0.5140210000000  0.5744680000000  0.4789810000000 1.0
C      1  0.5575560000000  0.4508490000000  0.4741230000000 1.0
C      1  0.4332030000000  0.4735550000000  0.4745230000000 1.0
C      1  0.5140910000000  0.5744230000000  0.5263330000000 1.0
C      1  0.5602110000000  0.4546740000000  0.5252530000000 1.0
C      1  0.4331610000000  0.4735140000000  0.5243250000000 1.0
C      1  0.4866210000000  0.5745100000000  0.4759810000000 1.0
C      1  0.4474120000000  0.4513290000000  0.4760440000000 1.0
C      1  0.5714210000000  0.4738600000000  0.4708650000000 1.0
C      1  0.4880980000000  0.5738240000000  0.5245440000000 1.0
C      1  0.4472180000000  0.4515010000000  0.5263960000000 1.0
C      1  0.5732140000000  0.4794410000000  0.5269960000000 1.0
C      1  0.4814530000000  0.5210430000000  0.4403900000000 1.0
C      1  0.5223640000000  0.4966840000000  0.4294890000000 1.0
C      1  0.4795210000000  0.4734640000000  0.4441020000000 1.0
C      1  0.4945310000000  0.5277460000000  0.5632270000000 1.0
C      1  0.5393590000000  0.4949280000000  0.5707630000000 1.0
C      1  0.4875450000000  0.4748740000000  0.5625140000000 1.0
C      1  0.5127180000000  0.5231980000000  0.4417480000000 1.0
C      1  0.4623690000000  0.4970530000000  0.4344910000000 1.0
C      1  0.5122900000000  0.4726760000000  0.4436100000000 1.0
C      1  0.5263150000000  0.5229530000000  0.5626850000000 1.0
C      1  0.4748280000000  0.5031420000000  0.5605720000000 1.0
C      1  0.5196540000000  0.4763140000000  0.5566540000000 1.0
C      1  0.5913340000000  0.4987970000000  0.4470780000000 1.0
C      1  0.4579610000000  0.4303020000000  0.4437360000000 1.0
C      1  0.4478660000000  0.5766920000000  0.4535410000000 1.0
C      1  0.5888980000000  0.4981530000000  0.5586720000000 1.0
C      1  0.4538810000000  0.4299680000000  0.5593290000000 1.0
C      1  0.4585090000000  0.5712820000000  0.5512770000000 1.0
C      1  0.4173080000000  0.5031710000000  0.4528530000000 1.0
C      1  0.5437100000000  0.4249410000000  0.4472340000000 1.0
C      1  0.5431670000000  0.5719230000000  0.4519260000000 1.0
C      1  0.4113580000000  0.5057670000000  0.5452950000000 1.0
C      1  0.5447780000000  0.4312150000000  0.5640370000000 1.0
C      1  0.5469730000000  0.5717260000000  0.5488870000000 1.0
C      1  0.5308390000000  0.5503540000000  0.5192120000000 1.0
C      1  0.5346710000000  0.4550450000000  0.5138560000000 1.0
C      1  0.4467510000000  0.4991240000000  0.5139480000000 1.0
C      1  0.5271890000000  0.5511060000000  0.4885850000000 1.0
C      1  0.5329800000000  0.4536740000000  0.4864400000000 1.0
C      1  0.4447770000000  0.5006760000000  0.4817550000000 1.0
C      1  0.4735090000000  0.5490370000000  0.5156170000000 1.0
C      1  0.4759350000000  0.4519930000000  0.5186280000000 1.0
C      1  0.5593280000000  0.5072780000000  0.5219520000000 1.0
C      1  0.4731710000000  0.5486050000000  0.4855160000000 1.0
C      1  0.4753840000000  0.4513960000000  0.4866850000000 1.0
C      1  0.5579540000000  0.4985220000000  0.4690080000000 1.0
C      1  0.4029090000000  0.4763600000000  0.4673590000000 1.0
C      1  0.5304720000000  0.5990140000000  0.4684430000000 1.0
C      1  0.5674360000000  0.4220550000000  0.4715600000000 1.0
C      1  0.4030580000000  0.4768390000000  0.5297870000000 1.0
C      1  0.5323740000000  0.5984940000000  0.5336610000000 1.0
C      1  0.5650910000000  0.4284000000000  0.5399420000000 1.0
C      1  0.6022740000000  0.4755030000000  0.4695740000000 1.0
C      1  0.4682330000000  0.5984640000000  0.4696670000000 1.0
C      1  0.4368580000000  0.4234200000000  0.4683310000000 1.0
C      1  0.6033150000000  0.4809510000000  0.5344510000000 1.0
C      1  0.4683530000000  0.5968180000000  0.5310960000000 1.0
C      1  0.4354270000000  0.4237780000000  0.5335050000000 1.0
C      1  0.5510910000000  0.4053500000000  0.4925620000000 1.0
C      1  0.3911950000000  0.5034140000000  0.4831260000000 1.0
C      1  0.5548700000000  0.5862040000000  0.4873080000000 1.0
C      1  0.5501120000000  0.4077710000000  0.5208340000000 1.0
C      1  0.3910630000000  0.5029010000000  0.5114730000000 1.0
C      1  0.5591100000000  0.5892300000000  0.5151250000000 1.0
C      1  0.4496450000000  0.4022430000000  0.4872180000000 1.0
C      1  0.6113890000000  0.5012400000000  0.4871210000000 1.0
C      1  0.4396530000000  0.5946020000000  0.4877580000000 1.0
C      1  0.4488830000000  0.4022870000000  0.5158030000000 1.0
C      1  0.6150240000000  0.5032190000000  0.5155370000000 1.0
C      1  0.4403700000000  0.5932620000000  0.5159800000000 1.0
C      1  0.5121730000000  0.5195980000000  0.6460050000000 1.0
C      1  0.5158410000000  0.4678290000000  0.6414100000000 1.0
C      1  0.4711830000000  0.4913030000000  0.6362310000000 1.0
C      1  0.5145250000000  0.5256630000000  0.3517430000000 1.0
C      1  0.4980590000000  0.4760710000000  0.3467170000000 1.0
C      1  0.4634290000000  0.5146030000000  0.3556070000000 1.0
C      1  0.4865050000000  0.5186790000000  0.6346820000000 1.0
C      1  0.4850440000000  0.4667040000000  0.6338590000000 1.0
C      1  0.5280610000000  0.4920770000000  0.6486230000000 1.0
C      1  0.4881720000000  0.5337360000000  0.3564870000000 1.0
C      1  0.4692750000000  0.4875570000000  0.3516730000000 1.0
C      1  0.5188720000000  0.4946150000000  0.3490190000000 1.0
C      1  0.5671690000000  0.4559020000000  0.6113670000000 1.0
C      1  0.4383380000000  0.4883160000000  0.5991110000000 1.0
C      1  0.4867930000000  0.5951490000000  0.5897620000000 1.0
C      1  0.5466440000000  0.4567130000000  0.3856030000000 1.0
C      1  0.4301840000000  0.4791320000000  0.3915480000000 1.0
C      1  0.5109670000000  0.5667280000000  0.4014360000000 1.0
C      1  0.4350310000000  0.4593140000000  0.6096090000000 1.0
C      1  0.5688830000000  0.4868310000000  0.6207100000000 1.0
C      1  0.4700010000000  0.5721710000000  0.5764650000000 1.0
C      1  0.4496560000000  0.4550090000000  0.3845740000000 1.0
C      1  0.5533880000000  0.4869960000000  0.3854990000000 1.0
C      1  0.4810940000000  0.5596710000000  0.3991180000000 1.0
C      1  0.4731980000000  0.6440660000000  0.4874370000000 1.0
C      1  0.6366000000000  0.4473720000000  0.4914660000000 1.0
C      1  0.3949410000000  0.4041550000000  0.4861250000000 1.0
C      1  0.4734850000000  0.6433330000000  0.5150040000000 1.0
C      1  0.6367130000000  0.4484190000000  0.5189690000000 1.0
C      1  0.3944670000000  0.4044390000000  0.5136840000000 1.0
C      1  0.5255890000000  0.6440840000000  0.4870800000000 1.0
C      1  0.3667600000000  0.4482130000000  0.4850540000000 1.0
C      1  0.6071410000000  0.4043360000000  0.4950490000000 1.0
C      1  0.5259230000000  0.6436160000000  0.5146350000000 1.0
C      1  0.3665370000000  0.4487520000000  0.5126170000000 1.0
C      1  0.6063650000000  0.4063250000000  0.5224880000000 1.0
C      1  0.5383900000000  0.4635630000000  0.4138160000000 1.0
C      1  0.4467760000000  0.4783240000000  0.4163840000000 1.0
C      1  0.5189030000000  0.5615690000000  0.4325520000000 1.0
C      1  0.5406450000000  0.4475920000000  0.5925990000000 1.0
C      1  0.4395490000000  0.4865310000000  0.5690210000000 1.0
C      1  0.5042660000000  0.5710970000000  0.5963680000000 1.0
C      1  0.4597750000000  0.4481190000000  0.4154560000000 1.0
C      1  0.5509890000000  0.4951670000000  0.4169120000000 1.0
C      1  0.4850550000000  0.5591610000000  0.4304140000000 1.0
C      1  0.4482340000000  0.4556340000000  0.5785910000000 1.0
C      1  0.5505830000000  0.4800000000000  0.5931670000000 1.0
C      1  0.4854770000000  0.5450240000000  0.5863330000000 1.0
C      1  0.4658740000000  0.4581710000000  0.3619630000000 1.0
C      1  0.4690110000000  0.5478610000000  0.3768680000000 1.0
C      1  0.5449270000000  0.5031970000000  0.3643160000000 1.0
C      1  0.4856880000000  0.4432210000000  0.6115520000000 1.0
C      1  0.4733530000000  0.5301990000000  0.6089660000000 1.0
C      1  0.5572310000000  0.5016340000000  0.6411070000000 1.0
C      1  0.4929860000000  0.4455000000000  0.3521430000000 1.0
C      1  0.5431390000000  0.5345630000000  0.3613010000000 1.0
C      1  0.4424260000000  0.5317280000000  0.3715760000000 1.0
C      1  0.5152500000000  0.4444220000000  0.6208900000000 1.0
C      1  0.5420830000000  0.5289890000000  0.6448560000000 1.0
C      1  0.4553710000000  0.5054870000000  0.6136200000000 1.0
C      1  0.4761210000000  0.4998770000000  0.4869180000000 1.0
C      1  0.5185110000000  0.5264520000000  0.4741770000000 1.0
C      1  0.5179270000000  0.4758430000000  0.4747620000000 1.0
C      1  0.4779630000000  0.5001090000000  0.5186670000000 1.0
C      1  0.5176730000000  0.5248200000000  0.5307530000000 1.0
C      1  0.5201670000000  0.4769870000000  0.5255660000000 1.0
C      1  0.5310320000000  0.5018460000000  0.4839700000000 1.0
C      1  0.4872990000000  0.5239120000000  0.4726230000000 1.0
C      1  0.4873760000000  0.4752420000000  0.4746540000000 1.0
C      1  0.5306620000000  0.5024560000000  0.5144860000000 1.0
C      1  0.4870640000000  0.5253380000000  0.5298380000000 1.0
C      1  0.4896950000000  0.4754110000000  0.5302540000000 1.0
C      1  0.5977250000000  0.4235330000000  0.4761860000000 1.0
C      1  0.3905440000000  0.4489770000000  0.4693820000000 1.0
C      1  0.5137000000000  0.6238270000000  0.4709210000000 1.0
C      1  0.5966310000000  0.4287500000000  0.5373240000000 1.0
C      1  0.3899690000000  0.4497700000000  0.5287630000000 1.0
C      1  0.5144460000000  0.6229860000000  0.5306410000000 1.0
C      1  0.4060740000000  0.4248280000000  0.4698600000000 1.0
C      1  0.6133950000000  0.4476580000000  0.4749660000000 1.0
C      1  0.4849330000000  0.6236920000000  0.4713100000000 1.0
C      1  0.4049640000000  0.4254310000000  0.5299210000000 1.0
C      1  0.6133830000000  0.4521090000000  0.5349500000000 1.0
C      1  0.4854960000000  0.6223330000000  0.5301360000000 1.0
C      1  0.4209810000000  0.5761920000000  0.4675830000000 1.0
C      1  0.6024570000000  0.5255890000000  0.4742220000000 1.0
C      1  0.4741510000000  0.3913680000000  0.4765140000000 1.0
C      1  0.4209860000000  0.5770140000000  0.5297480000000 1.0
C      1  0.6133280000000  0.5300600000000  0.5274460000000 1.0
C      1  0.4725620000000  0.3913430000000  0.5282510000000 1.0
C      1  0.5669770000000  0.5625810000000  0.4726260000000 1.0
C      1  0.3925590000000  0.5292570000000  0.4700220000000 1.0
C      1  0.5260260000000  0.3965660000000  0.4817310000000 1.0
C      1  0.5804680000000  0.5739760000000  0.5272200000000 1.0
C      1  0.3969740000000  0.5283650000000  0.5313070000000 1.0
C      1  0.5244430000000  0.3999660000000  0.5310180000000 1.0
C      1  0.4121390000000  0.5495880000000  0.4753250000000 1.0
C      1  0.5779480000000  0.5383770000000  0.4815670000000 1.0
C      1  0.4988530000000  0.4033730000000  0.4840230000000 1.0
C      1  0.4142540000000  0.5500610000000  0.5232430000000 1.0
C      1  0.5893390000000  0.5466410000000  0.5257390000000 1.0
C      1  0.4975630000000  0.4043470000000  0.5239170000000 1.0
C      1  0.4927840000000  0.4280310000000  0.5031580000000 1.0
C      1  0.5713010000000  0.5313560000000  0.5086370000000 1.0
C      1  0.4267220000000  0.5426070000000  0.4988010000000 1.0
END
