TITL C-2782230-7391-357 0.00680550700714022 125000 -452.796954566833 0 0 77 (C1) n - 1
REM
REM in /home/nfs/bkarasulu/CARBON/AIRSS/Generating-Clusters/REBO/Higher-Symm/SD-CG/HFTN-CG
REM
REM
REM
REM
REM
REM ./C.cell (12c818d87b63d06a65506943cc24bca4)
REM
REM compiler GCC version 9.2.1 20190827 (Red Hat 9.2.1-1)
REM options -cpp -mtune=generic -march=x86-64 -g -O0 -fpre-include=/usr/include/finclude/math-vector-fortran.h
REM seed 1693573994 -1410939597 584691055 -320179981 1936506653 666801592 -977691648 307111989 1152161859 1524341725 1513065650 -1295074103 1441493372 -37735462 1315742310 -251672637 -1207830066 287130783 207360211 1210719172 755930731 338968610 871608869 -1275738623 -99494705 420429656 465350641 -63629381 1647932158 1815137791 -481485775 -2019780730 317373769
REM
CELL 1.54180   50.00000   50.00000   50.00000   90.00000   90.00000   90.00000
LATT -1
SFAC C  
C      1  0.5306260000000  0.5505080000000  0.4497780000000 1.0
C      1  0.4619590000000  0.5277300000000  0.5630720000000 1.0
C      1  0.5555460000000  0.4506470000000  0.5256810000000 1.0
C      1  0.5325800000000  0.4347600000000  0.5440080000000 1.0
C      1  0.4648320000000  0.4474980000000  0.4444260000000 1.0
C      1  0.4753260000000  0.5544270000000  0.5481360000000 1.0
C      1  0.4458040000000  0.4751530000000  0.4375410000000 1.0
C      1  0.5418870000000  0.4732270000000  0.5467730000000 1.0
C      1  0.5549810000000  0.5283830000000  0.4404770000000 1.0
C      1  0.5596640000000  0.5513950000000  0.4650560000000 1.0
C      1  0.4421840000000  0.5421100000000  0.5337530000000 1.0
C      1  0.4383190000000  0.4548750000000  0.4635120000000 1.0
C      1  0.4886190000000  0.4221380000000  0.4833510000000 1.0
C      1  0.4900330000000  0.4890330000000  0.4215960000000 1.0
C      1  0.4248420000000  0.4899060000000  0.4967600000000 1.0
C      1  0.4873770000000  0.5854930000000  0.5087930000000 1.0
C      1  0.5028300000000  0.5830640000000  0.4842260000000 1.0
C      1  0.5053460000000  0.4154620000000  0.5063990000000 1.0
C      1  0.4919520000000  0.5052410000000  0.5769920000000 1.0
C      1  0.5127140000000  0.5047040000000  0.4230660000000 1.0
C      1  0.5134940000000  0.4885550000000  0.5705290000000 1.0
C      1  0.4276980000000  0.5108240000000  0.5140610000000 1.0
C      1  0.5716220000000  0.5118260000000  0.4867340000000 1.0
C      1  0.5748330000000  0.4919870000000  0.5063510000000 1.0
C      1  0.5024530000000  0.4282300000000  0.5337830000000 1.0
C      1  0.5417250000000  0.5010250000000  0.4287830000000 1.0
C      1  0.4351190000000  0.5381210000000  0.5027470000000 1.0
C      1  0.5066450000000  0.5712170000000  0.4569800000000 1.0
C      1  0.4966950000000  0.5754200000000  0.5353590000000 1.0
C      1  0.4901370000000  0.4279770000000  0.4560470000000 1.0
C      1  0.5400630000000  0.5012330000000  0.5661140000000 1.0
C      1  0.4626470000000  0.4978610000000  0.4235950000000 1.0
C      1  0.4642040000000  0.4957230000000  0.5713400000000 1.0
C      1  0.4340530000000  0.4614810000000  0.4939970000000 1.0
C      1  0.5702850000000  0.4645140000000  0.5011740000000 1.0
C      1  0.5622180000000  0.5394610000000  0.4911960000000 1.0
C      1  0.5351950000000  0.4881010000000  0.5060960000000 1.0
C      1  0.4900940000000  0.5312260000000  0.4887180000000 1.0
C      1  0.4731690000000  0.5004560000000  0.5322900000000 1.0
C      1  0.5223750000000  0.5119350000000  0.5267260000000 1.0
C      1  0.4731780000000  0.5055070000000  0.4741090000000 1.0
C      1  0.4637960000000  0.4965430000000  0.5021290000000 1.0
C      1  0.4829090000000  0.4744960000000  0.5174640000000 1.0
C      1  0.5097030000000  0.4693400000000  0.4927980000000 1.0
C      1  0.5036300000000  0.5396960000000  0.5187900000000 1.0
C      1  0.4943170000000  0.4879530000000  0.4613450000000 1.0
C      1  0.4925780000000  0.5181350000000  0.5392910000000 1.0
C      1  0.5242430000000  0.4956680000000  0.4720880000000 1.0
C      1  0.5148290000000  0.5570150000000  0.5526830000000 1.0
C      1  0.5520100000000  0.5241450000000  0.5503480000000 1.0
C      1  0.5414940000000  0.5485440000000  0.5096270000000 1.0
C      1  0.5162740000000  0.4437720000000  0.4488920000000 1.0
C      1  0.4830640000000  0.4465490000000  0.5478570000000 1.0
C      1  0.4912490000000  0.5453460000000  0.4515550000000 1.0
C      1  0.5512620000000  0.4781150000000  0.4484720000000 1.0
C      1  0.4471990000000  0.4788120000000  0.5535470000000 1.0
C      1  0.4514700000000  0.5121260000000  0.4515290000000 1.0
C      1  0.5493940000000  0.4471350000000  0.4864610000000 1.0
C      1  0.4521410000000  0.4499940000000  0.5120480000000 1.0
C      1  0.4554380000000  0.5507600000000  0.4850490000000 1.0
C      1  0.5346020000000  0.4285290000000  0.5101200000000 1.0
C      1  0.5146410000000  0.5205930000000  0.4506730000000 1.0
C      1  0.4375710000000  0.5105880000000  0.5458620000000 1.0
C      1  0.5142070000000  0.5551240000000  0.4927230000000 1.0
C      1  0.4645820000000  0.5613670000000  0.5162430000000 1.0
C      1  0.4835550000000  0.4480950000000  0.4989810000000 1.0
C      1  0.5125510000000  0.4589920000000  0.5571650000000 1.0
C      1  0.4927700000000  0.4643100000000  0.4405040000000 1.0
C      1  0.4938300000000  0.5383620000000  0.5720510000000 1.0
C      1  0.4307820000000  0.4887390000000  0.4650060000000 1.0
C      1  0.5591950000000  0.4984410000000  0.5316440000000 1.0
C      1  0.5656070000000  0.5033320000000  0.4602010000000 1.0
C      1  0.4642180000000  0.5416050000000  0.4600440000000 1.0
C      1  0.4568180000000  0.4552040000000  0.5406970000000 1.0
C      1  0.5404700000000  0.4541320000000  0.4601440000000 1.0
C      1  0.5384350000000  0.5464710000000  0.5386660000000 1.0
C      1  0.5029110000000  0.5044260000000  0.5005170000000 1.0
END
