TITL C-2782226-7400-123 0.00185121260340294 125000 -610.749934178025 0 0 107 (C1) n - 1
REM
REM in /home/nfs/bkarasulu/CARBON/AIRSS/Generating-Clusters/REBO/Higher-Symm/SD-CG/HFTN-CG
REM
REM
REM
REM
REM
REM ./C.cell (12c818d87b63d06a65506943cc24bca4)
REM
REM compiler GCC version 9.2.1 20190827 (Red Hat 9.2.1-1)
REM options -cpp -mtune=generic -march=x86-64 -g -O0 -fpre-include=/usr/include/finclude/math-vector-fortran.h
REM seed -576897389 -900701861 1247009080 367385437 -1200581775 1394140521 1314229950 1556881920 441524855 -1128324633 1631866850 1719495466 1200239878 -515595104 1651814687 1047892432 216425907 1398159580 473575879 1372782120 -597920440 1974680547 -1911627180 2124908762 -1000942798 -610629520 -391749137 2030683509 966114291 1103630911 -1005505053 -1401606200 -879348117
REM
CELL 1.54180   50.00000   50.00000   50.00000   90.00000   90.00000   90.00000
LATT -1
SFAC C  
C      1  0.4119580000000  0.5025410000000  0.5108670000000 1.0
C      1  0.5907150000000  0.5054180000000  0.4858520000000 1.0
C      1  0.4123000000000  0.5026510000000  0.4861060000000 1.0
C      1  0.5909620000000  0.5054060000000  0.5107330000000 1.0
C      1  0.4742390000000  0.4436950000000  0.4420270000000 1.0
C      1  0.5288460000000  0.4448150000000  0.5564980000000 1.0
C      1  0.4738060000000  0.4431720000000  0.5545760000000 1.0
C      1  0.5291290000000  0.4452930000000  0.4401680000000 1.0
C      1  0.4269310000000  0.5048300000000  0.4580970000000 1.0
C      1  0.5761710000000  0.5042130000000  0.5387290000000 1.0
C      1  0.4263640000000  0.5041790000000  0.5389770000000 1.0
C      1  0.5769710000000  0.5034720000000  0.4588300000000 1.0
C      1  0.5612580000000  0.4527710000000  0.4742340000000 1.0
C      1  0.4402590000000  0.4577580000000  0.5224310000000 1.0
C      1  0.5616410000000  0.4525530000000  0.5228480000000 1.0
C      1  0.4405940000000  0.4582390000000  0.4742650000000 1.0
C      1  0.4788220000000  0.4725950000000  0.5285690000000 1.0
C      1  0.5322380000000  0.4779360000000  0.4633850000000 1.0
C      1  0.4763720000000  0.4744060000000  0.4666750000000 1.0
C      1  0.5314450000000  0.4767050000000  0.5325500000000 1.0
C      1  0.5268800000000  0.4952770000000  0.4180670000000 1.0
C      1  0.4706530000000  0.4923520000000  0.5750680000000 1.0
C      1  0.5265160000000  0.4947510000000  0.5795970000000 1.0
C      1  0.4709490000000  0.4931700000000  0.4221590000000 1.0
C      1  0.4369770000000  0.4743630000000  0.4513240000000 1.0
C      1  0.5642770000000  0.4748430000000  0.5430030000000 1.0
C      1  0.4366660000000  0.4737630000000  0.5454940000000 1.0
C      1  0.5650040000000  0.4740970000000  0.4533860000000 1.0
C      1  0.5542900000000  0.5057340000000  0.5654190000000 1.0
C      1  0.4482140000000  0.5115180000000  0.4322800000000 1.0
C      1  0.5547130000000  0.5058160000000  0.4323100000000 1.0
C      1  0.4475950000000  0.5103210000000  0.5649700000000 1.0
C      1  0.4354990000000  0.5370400000000  0.4503270000000 1.0
C      1  0.5642500000000  0.5342510000000  0.5494750000000 1.0
C      1  0.4349310000000  0.5361930000000  0.5474750000000 1.0
C      1  0.5632150000000  0.5351010000000  0.4475480000000 1.0
C      1  0.4755960000000  0.5345460000000  0.5305520000000 1.0
C      1  0.5241190000000  0.5371810000000  0.4676070000000 1.0
C      1  0.4759300000000  0.5353550000000  0.4673230000000 1.0
C      1  0.5245660000000  0.5367110000000  0.5301590000000 1.0
C      1  0.4686710000000  0.5048510000000  0.4748190000000 1.0
C      1  0.5333410000000  0.5068030000000  0.5215390000000 1.0
C      1  0.4689040000000  0.5035450000000  0.5231090000000 1.0
C      1  0.5330800000000  0.5071160000000  0.4758780000000 1.0
C      1  0.4563960000000  0.5623780000000  0.5510380000000 1.0
C      1  0.5440530000000  0.5634320000000  0.4460120000000 1.0
C      1  0.4567690000000  0.5634910000000  0.4472900000000 1.0
C      1  0.5449470000000  0.5622860000000  0.5520950000000 1.0
C      1  0.5564810000000  0.5701110000000  0.5127520000000 1.0
C      1  0.4458680000000  0.5726250000000  0.4854040000000 1.0
C      1  0.5562440000000  0.5698840000000  0.4850020000000 1.0
C      1  0.4457880000000  0.5723410000000  0.5131780000000 1.0
C      1  0.4565390000000  0.4665560000000  0.5640200000000 1.0
C      1  0.5469470000000  0.4714210000000  0.4273300000000 1.0
C      1  0.4567790000000  0.4671760000000  0.4326180000000 1.0
C      1  0.5462970000000  0.4713300000000  0.5689200000000 1.0
C      1  0.4257170000000  0.5595670000000  0.4717270000000 1.0
C      1  0.5752030000000  0.5560280000000  0.5271630000000 1.0
C      1  0.4254170000000  0.5591570000000  0.5264170000000 1.0
C      1  0.5742510000000  0.5549910000000  0.4704530000000 1.0
C      1  0.5141870000000  0.5489420000000  0.5584670000000 1.0
C      1  0.4857550000000  0.5479130000000  0.4387660000000 1.0
C      1  0.5140260000000  0.5486390000000  0.4388280000000 1.0
C      1  0.4860420000000  0.5479450000000  0.5586660000000 1.0
C      1  0.4618190000000  0.4379170000000  0.4703860000000 1.0
C      1  0.5379610000000  0.4374100000000  0.5282700000000 1.0
C      1  0.4612730000000  0.4372030000000  0.5262160000000 1.0
C      1  0.5374640000000  0.4376870000000  0.4689750000000 1.0
C      1  0.4691370000000  0.5653340000000  0.5805660000000 1.0
C      1  0.5297720000000  0.5676370000000  0.4173370000000 1.0
C      1  0.4692890000000  0.5666900000000  0.4176830000000 1.0
C      1  0.5306820000000  0.5662570000000  0.5807830000000 1.0
C      1  0.4763810000000  0.5679600000000  0.5233480000000 1.0
C      1  0.5255890000000  0.5702160000000  0.4745950000000 1.0
C      1  0.4764260000000  0.5685620000000  0.4753150000000 1.0
C      1  0.5260730000000  0.5698410000000  0.5238540000000 1.0
C      1  0.5001110000000  0.5026760000000  0.4354200000000 1.0
C      1  0.4998860000000  0.5024640000000  0.5623640000000 1.0
C      1  0.4501220000000  0.5014540000000  0.4990240000000 1.0
C      1  0.5546120000000  0.4939900000000  0.4986360000000 1.0
C      1  0.4384390000000  0.4723150000000  0.4984670000000 1.0
C      1  0.5634030000000  0.4653320000000  0.4985020000000 1.0
C      1  0.5014360000000  0.4481780000000  0.4308140000000 1.0
C      1  0.5011140000000  0.4476670000000  0.5656060000000 1.0
C      1  0.4993310000000  0.4754580000000  0.4154380000000 1.0
C      1  0.4990810000000  0.4746550000000  0.5815420000000 1.0
C      1  0.5339420000000  0.5397520000000  0.4989070000000 1.0
C      1  0.4656390000000  0.5382590000000  0.4989470000000 1.0
C      1  0.5248560000000  0.4293170000000  0.4995780000000 1.0
C      1  0.4741780000000  0.4283110000000  0.4991350000000 1.0
C      1  0.5593960000000  0.5266410000000  0.4986750000000 1.0
C      1  0.4358340000000  0.5322100000000  0.4989300000000 1.0
C      1  0.5069900000000  0.4653110000000  0.5302830000000 1.0
C      1  0.5070480000000  0.4655570000000  0.4662340000000 1.0
C      1  0.5013500000000  0.5049870000000  0.4646210000000 1.0
C      1  0.5015700000000  0.5047390000000  0.5331450000000 1.0
C      1  0.4995450000000  0.4476430000000  0.4916500000000 1.0
C      1  0.5008720000000  0.3559900000000  0.5044260000000 1.0
C      1  0.4998660000000  0.6063640000000  0.4998360000000 1.0
C      1  0.4869790000000  0.4780750000000  0.4981650000000 1.0
C      1  0.5013570000000  0.5732190000000  0.4994330000000 1.0
C      1  0.5003630000000  0.3825520000000  0.5025740000000 1.0
C      1  0.4997380000000  0.5386740000000  0.4990910000000 1.0
C      1  0.5005060000000  0.5065630000000  0.4988860000000 1.0
C      1  0.5013720000000  0.3298510000000  0.5062480000000 1.0
C      1  0.4987200000000  0.6318560000000  0.5001460000000 1.0
C      1  0.4998580000000  0.4089540000000  0.5007330000000 1.0
END
