TITL C-2782238-9940-1219 -0.000155599249475593 125000 -681.217069039259 0 0 120 (C2) n - 1
REM
REM in /home/nfs/bkarasulu/CARBON/AIRSS/Generating-Clusters/REBO/Higher-Symm/SD-CG/HFTN-CG
REM
REM
REM
REM
REM
REM ./C.cell (12c818d87b63d06a65506943cc24bca4)
REM
REM compiler GCC version 9.2.1 20190827 (Red Hat 9.2.1-1)
REM options -cpp -mtune=generic -march=x86-64 -g -O0 -fpre-include=/usr/include/finclude/math-vector-fortran.h
REM seed 613594802 1970779601 1644535300 808730242 -1027212278 1423830040 -1996182471 -287798368 502652223 -2005676351 -1118112788 -1126792714 1275534025 -1873894670 -761095217 -522965217 949320299 585693249 57780929 -311359139 591455337 1217984980 769078022 -1638804091 1304350479 -389196017 -937988457 -38131012 -2100412372 -1160350111 739308227 1979551344 1919879885
REM
CELL 1.54180   50.00000   50.00000   50.00000   90.00000   90.00000   90.00000
LATT -1
SFAC C  
C      1  0.4116080000000  0.4967530000000  0.5153790000000 1.0
C      1  0.5878700000000  0.5146170000000  0.5047110000000 1.0
C      1  0.4116070000000  0.5032510000000  0.4846250000000 1.0
C      1  0.5878700000000  0.4853790000000  0.4952850000000 1.0
C      1  0.5567180000000  0.4817020000000  0.4849480000000 1.0
C      1  0.4386460000000  0.4787240000000  0.5154740000000 1.0
C      1  0.5567190000000  0.5182960000000  0.5150500000000 1.0
C      1  0.4386460000000  0.5212790000000  0.4845290000000 1.0
C      1  0.5655660000000  0.4399150000000  0.5267090000000 1.0
C      1  0.4334490000000  0.5279080000000  0.5572900000000 1.0
C      1  0.5655680000000  0.5600820000000  0.4732880000000 1.0
C      1  0.4334450000000  0.4720950000000  0.4427130000000 1.0
C      1  0.5750120000000  0.4657670000000  0.5167090000000 1.0
C      1  0.4187360000000  0.5208710000000  0.5322360000000 1.0
C      1  0.5750130000000  0.5342300000000  0.4832880000000 1.0
C      1  0.4187330000000  0.4791330000000  0.4677680000000 1.0
C      1  0.4962610000000  0.4499620000000  0.4933940000000 1.0
C      1  0.5076200000000  0.4859760000000  0.5511680000000 1.0
C      1  0.4962640000000  0.5500390000000  0.5066060000000 1.0
C      1  0.5076190000000  0.5140230000000  0.4488320000000 1.0
C      1  0.4951710000000  0.4619480000000  0.4330880000000 1.0
C      1  0.5061060000000  0.4258980000000  0.5435160000000 1.0
C      1  0.4951750000000  0.5380520000000  0.5669120000000 1.0
C      1  0.5061080000000  0.5741020000000  0.4564830000000 1.0
C      1  0.5601220000000  0.5215440000000  0.4611620000000 1.0
C      1  0.4340410000000  0.4544250000000  0.4809500000000 1.0
C      1  0.5601230000000  0.4784530000000  0.5388350000000 1.0
C      1  0.4340440000000  0.5455780000000  0.5190520000000 1.0
C      1  0.5438920000000  0.5443880000000  0.5062110000000 1.0
C      1  0.4565620000000  0.5130900000000  0.4611160000000 1.0
C      1  0.5438890000000  0.4556100000000  0.4937870000000 1.0
C      1  0.4565640000000  0.4869120000000  0.5388860000000 1.0
C      1  0.4274900000000  0.5739720000000  0.5369800000000 1.0
C      1  0.5745080000000  0.5393940000000  0.4285010000000 1.0
C      1  0.4274860000000  0.4260310000000  0.4630230000000 1.0
C      1  0.5745090000000  0.4606030000000  0.5714950000000 1.0
C      1  0.4512820000000  0.5046080000000  0.5657230000000 1.0
C      1  0.5490080000000  0.5749570000000  0.4975780000000 1.0
C      1  0.4512790000000  0.4953950000000  0.4342790000000 1.0
C      1  0.5490040000000  0.4250410000000  0.5024200000000 1.0
C      1  0.4726390000000  0.4408460000000  0.4449300000000 1.0
C      1  0.5298200000000  0.4390740000000  0.5628470000000 1.0
C      1  0.4726440000000  0.5591550000000  0.5550710000000 1.0
C      1  0.5298200000000  0.5609250000000  0.4371520000000 1.0
C      1  0.5628640000000  0.4553790000000  0.4499420000000 1.0
C      1  0.4365760000000  0.4528890000000  0.5459040000000 1.0
C      1  0.5628680000000  0.5446180000000  0.5500550000000 1.0
C      1  0.4365760000000  0.5471140000000  0.4540990000000 1.0
C      1  0.5684010000000  0.5078400000000  0.4161570000000 1.0
C      1  0.4343040000000  0.4172430000000  0.4954490000000 1.0
C      1  0.5684040000000  0.4921570000000  0.5838400000000 1.0
C      1  0.4343080000000  0.5827600000000  0.5045540000000 1.0
C      1  0.5178830000000  0.5663060000000  0.4858390000000 1.0
C      1  0.4838730000000  0.4902920000000  0.4432510000000 1.0
C      1  0.5178810000000  0.4336940000000  0.5141600000000 1.0
C      1  0.4838760000000  0.5097090000000  0.5567500000000 1.0
C      1  0.4110750000000  0.5354120000000  0.4731270000000 1.0
C      1  0.5813980000000  0.4790350000000  0.4624780000000 1.0
C      1  0.4110740000000  0.4645910000000  0.5268770000000 1.0
C      1  0.5814010000000  0.5209620000000  0.5375190000000 1.0
C      1  0.5196790000000  0.5179460000000  0.5773850000000 1.0
C      1  0.4806780000000  0.5778530000000  0.4773160000000 1.0
C      1  0.5196750000000  0.4820530000000  0.4226140000000 1.0
C      1  0.4806760000000  0.4221480000000  0.5226850000000 1.0
C      1  0.4879830000000  0.5892650000000  0.5042810000000 1.0
C      1  0.5135600000000  0.5086280000000  0.4096920000000 1.0
C      1  0.4879790000000  0.4107350000000  0.4957200000000 1.0
C      1  0.5135630000000  0.4913720000000  0.5903070000000 1.0
C      1  0.4682150000000  0.4771480000000  0.5019030000000 1.0
C      1  0.5307200000000  0.4991290000000  0.5214740000000 1.0
C      1  0.4682160000000  0.5228530000000  0.4980980000000 1.0
C      1  0.5307190000000  0.5008690000000  0.4785240000000 1.0
C      1  0.5537300000000  0.4788160000000  0.4263730000000 1.0
C      1  0.4468650000000  0.4280040000000  0.5245640000000 1.0
C      1  0.5537340000000  0.5211810000000  0.5736250000000 1.0
C      1  0.4468670000000  0.5719990000000  0.4754380000000 1.0
C      1  0.4666780000000  0.5551060000000  0.5215900000000 1.0
C      1  0.5345110000000  0.5277880000000  0.4436710000000 1.0
C      1  0.4666740000000  0.4448960000000  0.4784110000000 1.0
C      1  0.5345120000000  0.4722100000000  0.5563280000000 1.0
C      1  0.4929860000000  0.5136190000000  0.4766340000000 1.0
C      1  0.5085380000000  0.4811870000000  0.4935470000000 1.0
C      1  0.4929870000000  0.4863810000000  0.5233660000000 1.0
C      1  0.5085390000000  0.5188120000000  0.5064520000000 1.0
C      1  0.5606280000000  0.5580030000000  0.4448080000000 1.0
C      1  0.4419660000000  0.4449430000000  0.4429440000000 1.0
C      1  0.5606280000000  0.4419950000000  0.5551890000000 1.0
C      1  0.4419710000000  0.5550600000000  0.5570580000000 1.0
C      1  0.5332010000000  0.4544600000000  0.4647430000000 1.0
C      1  0.4694550000000  0.4605650000000  0.5529350000000 1.0
C      1  0.5332050000000  0.5455390000000  0.5352550000000 1.0
C      1  0.4694550000000  0.5394360000000  0.4470660000000 1.0
C      1  0.4683590000000  0.4528010000000  0.5217500000000 1.0
C      1  0.5337450000000  0.5167430000000  0.5475710000000 1.0
C      1  0.4683600000000  0.5472000000000  0.4782510000000 1.0
C      1  0.5337420000000  0.4832550000000  0.4524270000000 1.0
C      1  0.5773920000000  0.4961390000000  0.5535310000000 1.0
C      1  0.4153370000000  0.5570930000000  0.4948510000000 1.0
C      1  0.5773890000000  0.5038580000000  0.4464650000000 1.0
C      1  0.4153350000000  0.4429110000000  0.5051530000000 1.0
C      1  0.5111760000000  0.5601160000000  0.5475910000000 1.0
C      1  0.4910500000000  0.5540340000000  0.4342340000000 1.0
C      1  0.5111710000000  0.4398830000000  0.4524080000000 1.0
C      1  0.4910510000000  0.4459660000000  0.5657660000000 1.0
C      1  0.5419550000000  0.5260620000000  0.4101260000000 1.0
C      1  0.4606540000000  0.4108990000000  0.4768380000000 1.0
C      1  0.5419570000000  0.4739370000000  0.5898720000000 1.0
C      1  0.4606590000000  0.5891030000000  0.5231640000000 1.0
C      1  0.5268240000000  0.4666480000000  0.5176480000000 1.0
C      1  0.4728150000000  0.5121790000000  0.5243710000000 1.0
C      1  0.5268250000000  0.5333510000000  0.4823510000000 1.0
C      1  0.4728130000000  0.4878230000000  0.4756300000000 1.0
C      1  0.5628620000000  0.4288910000000  0.4713280000000 1.0
C      1  0.4366840000000  0.4741960000000  0.5707540000000 1.0
C      1  0.5628660000000  0.5711060000000  0.5286690000000 1.0
C      1  0.4366810000000  0.5258070000000  0.4292490000000 1.0
C      1  0.4909350000000  0.4176290000000  0.4624900000000 1.0
C      1  0.5123060000000  0.4575680000000  0.5860090000000 1.0
C      1  0.4909410000000  0.5823710000000  0.5375110000000 1.0
C      1  0.5123040000000  0.5424320000000  0.4139910000000 1.0
END
