TITL C-2782230-7391-685 -0.00109849590789523 125000 -157.808927092975 0 0 28 (C1) n - 1
REM
REM in /home/nfs/bkarasulu/CARBON/AIRSS/Generating-Clusters/REBO/Higher-Symm/SD-CG/HFTN-CG
REM
REM
REM
REM
REM
REM ./C.cell (12c818d87b63d06a65506943cc24bca4)
REM
REM compiler GCC version 9.2.1 20190827 (Red Hat 9.2.1-1)
REM options -cpp -mtune=generic -march=x86-64 -g -O0 -fpre-include=/usr/include/finclude/math-vector-fortran.h
REM seed 930261603 1201882997 -15660254 1817907354 1940508131 -1819935963 1177006240 -1189360321 -1673052317 830669675 -1531844365 -790865985 -215469167 963160267 1607923282 882636451 1134514219 1203172209 1038213987 1904944165 1420108492 -1589503211 1477940990 -1799796659 1515318393 637499975 -1490804503 496301479 545333815 -570342152 1077987701 1248752383 1782747206
REM
CELL 1.54180   50.00000   50.00000   50.00000   90.00000   90.00000   90.00000
LATT -1
SFAC C  
C      1  0.5493690000000  0.5029930000000  0.4960940000000 1.0
C      1  0.4960250000000  0.5227810000000  0.5516190000000 1.0
C      1  0.4419050000000  0.5545140000000  0.5448140000000 1.0
C      1  0.4537500000000  0.5008300000000  0.4894540000000 1.0
C      1  0.5083120000000  0.5096680000000  0.4364020000000 1.0
C      1  0.4866880000000  0.5373360000000  0.4812950000000 1.0
C      1  0.5145110000000  0.5409310000000  0.4771370000000 1.0
C      1  0.5250360000000  0.5492270000000  0.5057270000000 1.0
C      1  0.4990840000000  0.5638980000000  0.5221630000000 1.0
C      1  0.4764470000000  0.5503970000000  0.5039260000000 1.0
C      1  0.5138500000000  0.5112050000000  0.5384240000000 1.0
C      1  0.4606630000000  0.5627960000000  0.5630590000000 1.0
C      1  0.4438420000000  0.5131270000000  0.5092160000000 1.0
C      1  0.4845750000000  0.5030820000000  0.4440410000000 1.0
C      1  0.5501630000000  0.5050520000000  0.4706950000000 1.0
C      1  0.4772190000000  0.5095430000000  0.4731200000000 1.0
C      1  0.5269050000000  0.5202700000000  0.4578650000000 1.0
C      1  0.5251320000000  0.5180190000000  0.5108880000000 1.0
C      1  0.4812250000000  0.5474620000000  0.5433290000000 1.0
C      1  0.4537010000000  0.5387150000000  0.5208990000000 1.0
C      1  0.5274080000000  0.3959810000000  0.4821920000000 1.0
C      1  0.5314580000000  0.3701010000000  0.4813870000000 1.0
C      1  0.5191780000000  0.4485770000000  0.4838280000000 1.0
C      1  0.5232930000000  0.4222790000000  0.4830100000000 1.0
C      1  0.5287200000000  0.5786130000000  0.5206480000000 1.0
C      1  0.5150620000000  0.4748810000000  0.4846460000000 1.0
C      1  0.5108140000000  0.5020310000000  0.4854910000000 1.0
C      1  0.5437320000000  0.5984610000000  0.5266770000000 1.0
END
