TITL C-2782228-2999-1132 -0.000377476307150213 125000 -339.0025898023 0 0 57 (D3) n - 1
REM
REM in /home/nfs/bkarasulu/CARBON/AIRSS/Generating-Clusters/REBO/Higher-Symm/SD-CG/HFTN-CG
REM
REM
REM
REM
REM
REM ./C.cell (12c818d87b63d06a65506943cc24bca4)
REM
REM compiler GCC version 9.2.1 20190827 (Red Hat 9.2.1-1)
REM options -cpp -mtune=generic -march=x86-64 -g -O0 -fpre-include=/usr/include/finclude/math-vector-fortran.h
REM seed 1804875744 258925596 62762874 -1836286426 -899006763 -1535533476 -2102199413 -559925153 -209192373 -1086062942 454244842 -1625189893 2020348170 67545299 1046665753 -468885563 1893117397 959160247 -574495139 -2084247634 -977090272 -1161925261 -217773882 306912596 528479969 -499628500 -178945998 -481982899 924599464 2040404720 -562987681 734696694 -1831877256
REM
CELL 1.54180   50.00000   50.00000   50.00000   90.00000   90.00000   90.00000
LATT -1
SFAC C  
C      1  0.5243190000000  0.4663820000000  0.4519600000000 1.0
C      1  0.5243650000000  0.4752020000000  0.5531120000000 1.0
C      1  0.5243680000000  0.5583920000000  0.4948970000000 1.0
C      1  0.4788110000000  0.4690910000000  0.4509720000000 1.0
C      1  0.4788550000000  0.4729980000000  0.5513020000000 1.0
C      1  0.4788600000000  0.5579320000000  0.4977540000000 1.0
C      1  0.5219550000000  0.5308900000000  0.4509420000000 1.0
C      1  0.5219960000000  0.5270220000000  0.5512730000000 1.0
C      1  0.5219450000000  0.4420670000000  0.4977570000000 1.0
C      1  0.4764470000000  0.5336000000000  0.4519680000000 1.0
C      1  0.4764880000000  0.5248180000000  0.5531230000000 1.0
C      1  0.4764360000000  0.4416060000000  0.4949400000000 1.0
C      1  0.5263940000000  0.5130830000000  0.4759900000000 1.0
C      1  0.5263910000000  0.4726620000000  0.5006510000000 1.0
C      1  0.5264140000000  0.5142290000000  0.5233260000000 1.0
C      1  0.4738610000000  0.5141810000000  0.4764430000000 1.0
C      1  0.4738580000000  0.4725120000000  0.4995220000000 1.0
C      1  0.4738810000000  0.5133340000000  0.5240690000000 1.0
C      1  0.5269260000000  0.4858100000000  0.4764250000000 1.0
C      1  0.5269500000000  0.5274880000000  0.4994890000000 1.0
C      1  0.5269470000000  0.4866750000000  0.5240510000000 1.0
C      1  0.4743930000000  0.4869080000000  0.4760170000000 1.0
C      1  0.4744170000000  0.5273380000000  0.5006630000000 1.0
C      1  0.4744130000000  0.4857790000000  0.5233540000000 1.0
C      1  0.4873420000000  0.4848290000000  0.4271840000000 1.0
C      1  0.4873810000000  0.4445260000000  0.5495590000000 1.0
C      1  0.4874110000000  0.5706580000000  0.5232740000000 1.0
C      1  0.5183770000000  0.4809220000000  0.4270360000000 1.0
C      1  0.5184200000000  0.4463490000000  0.5529880000000 1.0
C      1  0.5184470000000  0.5727120000000  0.5199530000000 1.0
C      1  0.4823680000000  0.5190510000000  0.4270440000000 1.0
C      1  0.4824330000000  0.5536720000000  0.5529830000000 1.0
C      1  0.4823780000000  0.4272950000000  0.5199960000000 1.0
C      1  0.5134030000000  0.5151440000000  0.4271670000000 1.0
C      1  0.5134690000000  0.5554920000000  0.5495270000000 1.0
C      1  0.5134160000000  0.4293510000000  0.5232900000000 1.0
C      1  0.5418940000000  0.5551750000000  0.4502460000000 1.0
C      1  0.5418640000000  0.4293200000000  0.4770560000000 1.0
C      1  0.5419340000000  0.5154650000000  0.5726450000000 1.0
C      1  0.4576570000000  0.5586350000000  0.4546140000000 1.0
C      1  0.4576220000000  0.4313830000000  0.4719530000000 1.0
C      1  0.4576920000000  0.5100250000000  0.5734870000000 1.0
C      1  0.5431120000000  0.4413480000000  0.4546000000000 1.0
C      1  0.5431610000000  0.5686060000000  0.4718910000000 1.0
C      1  0.5431790000000  0.4900030000000  0.5734540000000 1.0
C      1  0.4588710000000  0.4448060000000  0.4503030000000 1.0
C      1  0.4589240000000  0.5706720000000  0.4770640000000 1.0
C      1  0.4589360000000  0.4845630000000  0.5726860000000 1.0
C      1  0.4667100000000  0.5810450000000  0.5461810000000 1.0
C      1  0.5341370000000  0.4189730000000  0.5461820000000 1.0
C      1  0.4666230000000  0.4994750000000  0.4067540000000 1.0
C      1  0.4666570000000  0.4195130000000  0.5471090000000 1.0
C      1  0.5341040000000  0.5004890000000  0.4067250000000 1.0
C      1  0.5341910000000  0.5805050000000  0.5470490000000 1.0
C      1  0.5004260000000  0.5000100000000  0.5507900000000 1.0
C      1  0.5003780000000  0.4560100000000  0.4746130000000 1.0
C      1  0.5004070000000  0.5439800000000  0.4745970000000 1.0
END
