TITL C-2782238-9940-1082 -0.00249050047775523 125000 -518.487717712246 0 0 90 (C1) n - 1
REM
REM in /home/nfs/bkarasulu/CARBON/AIRSS/Generating-Clusters/REBO/Higher-Symm/SD-CG/HFTN-CG
REM
REM
REM
REM
REM
REM ./C.cell (12c818d87b63d06a65506943cc24bca4)
REM
REM compiler GCC version 9.2.1 20190827 (Red Hat 9.2.1-1)
REM options -cpp -mtune=generic -march=x86-64 -g -O0 -fpre-include=/usr/include/finclude/math-vector-fortran.h
REM seed -1747561830 1775747964 1108820465 2042034622 -1367255675 1186433747 -731361714 802422813 -726878231 1625601400 1804476496 1723804395 1427597743 1087649406 1486392204 1396872021 1605326168 125088163 -200823919 -4577071 1839672490 897993359 1296092322 -2112553404 1741775002 327667548 900942656 -76570673 -806148864 -1590947624 -1669635813 142422092 -2123126948
REM
CELL 1.54180   50.00000   50.00000   50.00000   90.00000   90.00000   90.00000
LATT -1
SFAC C  
C      1  0.5583250000000  0.5356610000000  0.4451160000000 1.0
C      1  0.5793670000000  0.4754110000000  0.4631300000000 1.0
C      1  0.5781820000000  0.4598450000000  0.4896410000000 1.0
C      1  0.6196010000000  0.4274240000000  0.5042740000000 1.0
C      1  0.4398630000000  0.4876050000000  0.4604760000000 1.0
C      1  0.4504710000000  0.5513580000000  0.4551040000000 1.0
C      1  0.5349000000000  0.5019610000000  0.4666540000000 1.0
C      1  0.5039540000000  0.4940490000000  0.5685110000000 1.0
C      1  0.5132680000000  0.5236690000000  0.4570980000000 1.0
C      1  0.4847050000000  0.5556690000000  0.5039830000000 1.0
C      1  0.4617070000000  0.5325650000000  0.4263090000000 1.0
C      1  0.4997680000000  0.5929850000000  0.4712500000000 1.0
C      1  0.4218200000000  0.4572830000000  0.5263090000000 1.0
C      1  0.4370890000000  0.4279280000000  0.5039420000000 1.0
C      1  0.4585500000000  0.4817990000000  0.5810480000000 1.0
C      1  0.5119280000000  0.5770120000000  0.4513710000000 1.0
C      1  0.4596060000000  0.4682830000000  0.4805020000000 1.0
C      1  0.4905890000000  0.5018830000000  0.5049960000000 1.0
C      1  0.4645100000000  0.4304980000000  0.4573380000000 1.0
C      1  0.5678700000000  0.5053490000000  0.5250560000000 1.0
C      1  0.5322720000000  0.5593470000000  0.5145350000000 1.0
C      1  0.4580250000000  0.5732780000000  0.5161950000000 1.0
C      1  0.4953100000000  0.5297770000000  0.4861360000000 1.0
C      1  0.5103400000000  0.4822020000000  0.4565190000000 1.0
C      1  0.4972290000000  0.4495420000000  0.5867950000000 1.0
C      1  0.4287590000000  0.5648740000000  0.5284130000000 1.0
C      1  0.5399740000000  0.4471400000000  0.4653430000000 1.0
C      1  0.4854630000000  0.4751170000000  0.5471550000000 1.0
C      1  0.4487950000000  0.4775960000000  0.5231930000000 1.0
C      1  0.4575250000000  0.4505280000000  0.5056810000000 1.0
C      1  0.5215630000000  0.4305380000000  0.4547390000000 1.0
C      1  0.5446700000000  0.4460240000000  0.4958710000000 1.0
C      1  0.5270450000000  0.5257100000000  0.5423280000000 1.0
C      1  0.6002010000000  0.4426100000000  0.4974200000000 1.0
C      1  0.5300290000000  0.4889760000000  0.4294990000000 1.0
C      1  0.5625430000000  0.4804020000000  0.5055330000000 1.0
C      1  0.4962550000000  0.4764830000000  0.5212670000000 1.0
C      1  0.5279640000000  0.4984100000000  0.5316540000000 1.0
C      1  0.5077610000000  0.4385460000000  0.5616510000000 1.0
C      1  0.4273070000000  0.4747020000000  0.5750690000000 1.0
C      1  0.5630610000000  0.5544980000000  0.5006640000000 1.0
C      1  0.5491310000000  0.4735980000000  0.4531030000000 1.0
C      1  0.5288190000000  0.5366620000000  0.4915230000000 1.0
C      1  0.3994680000000  0.4507860000000  0.5125820000000 1.0
C      1  0.5557170000000  0.5189460000000  0.4962340000000 1.0
C      1  0.5440880000000  0.4422200000000  0.5281390000000 1.0
C      1  0.4799080000000  0.5700890000000  0.5407850000000 1.0
C      1  0.4565710000000  0.5014310000000  0.5026730000000 1.0
C      1  0.4311880000000  0.5473990000000  0.5030460000000 1.0
C      1  0.4445360000000  0.4934100000000  0.5520360000000 1.0
C      1  0.5588910000000  0.5514350000000  0.4698180000000 1.0
C      1  0.5330620000000  0.4799560000000  0.5582010000000 1.0
C      1  0.5725890000000  0.5387580000000  0.5258370000000 1.0
C      1  0.4367460000000  0.5216140000000  0.5135880000000 1.0
C      1  0.4684950000000  0.5121280000000  0.4735100000000 1.0
C      1  0.5265170000000  0.5532570000000  0.4616890000000 1.0
C      1  0.4879400000000  0.4385280000000  0.5117850000000 1.0
C      1  0.4790570000000  0.5822630000000  0.4845590000000 1.0
C      1  0.4587370000000  0.5572460000000  0.5643080000000 1.0
C      1  0.4817540000000  0.5156790000000  0.4125810000000 1.0
C      1  0.5663340000000  0.5057040000000  0.4703770000000 1.0
C      1  0.4342530000000  0.5479890000000  0.5523360000000 1.0
C      1  0.4357070000000  0.4544940000000  0.5530640000000 1.0
C      1  0.5141330000000  0.4555180000000  0.5054210000000 1.0
C      1  0.5651950000000  0.5201770000000  0.5727890000000 1.0
C      1  0.4869730000000  0.5439090000000  0.5616520000000 1.0
C      1  0.5339010000000  0.4819930000000  0.5093650000000 1.0
C      1  0.4516250000000  0.5626700000000  0.4827660000000 1.0
C      1  0.4788010000000  0.4883790000000  0.4518630000000 1.0
C      1  0.4867110000000  0.4354490000000  0.5422990000000 1.0
C      1  0.4948980000000  0.5734770000000  0.4290840000000 1.0
C      1  0.5318270000000  0.4504000000000  0.5513860000000 1.0
C      1  0.4786810000000  0.4232370000000  0.4856350000000 1.0
C      1  0.4700850000000  0.5632200000000  0.4307370000000 1.0
C      1  0.5606280000000  0.4972870000000  0.5544900000000 1.0
C      1  0.4352080000000  0.5205960000000  0.5423820000000 1.0
C      1  0.4641280000000  0.4527140000000  0.5520730000000 1.0
C      1  0.5535280000000  0.5362830000000  0.5494160000000 1.0
C      1  0.4718340000000  0.4909680000000  0.4052930000000 1.0
C      1  0.4661110000000  0.4754610000000  0.4266420000000 1.0
C      1  0.5086820000000  0.5635870000000  0.5255750000000 1.0
C      1  0.4456120000000  0.5182500000000  0.4516230000000 1.0
C      1  0.5952600000000  0.5028010000000  0.4558620000000 1.0
C      1  0.5423340000000  0.5206740000000  0.4298590000000 1.0
C      1  0.4955650000000  0.4221370000000  0.4583350000000 1.0
C      1  0.5088340000000  0.5156910000000  0.4252430000000 1.0
C      1  0.4521700000000  0.4575390000000  0.4499330000000 1.0
C      1  0.4852450000000  0.4761350000000  0.5869010000000 1.0
C      1  0.5050890000000  0.5241660000000  0.5617080000000 1.0
C      1  0.4892680000000  0.4791530000000  0.4821240000000 1.0
END
