TITL C-2782234-8014-518 4.04641856902813e-07 125000 -55.7202500419976 0 0 10 (D(inf)h) n - 1
REM
REM in /home/nfs/bkarasulu/CARBON/AIRSS/Generating-Clusters/REBO/Higher-Symm/SD-CG/HFTN-CG
REM
REM
REM
REM
REM
REM ./C.cell (12c818d87b63d06a65506943cc24bca4)
REM
REM compiler GCC version 9.2.1 20190827 (Red Hat 9.2.1-1)
REM options -cpp -mtune=generic -march=x86-64 -g -O0 -fpre-include=/usr/include/finclude/math-vector-fortran.h
REM seed -1954391534 -1335002791 1944360562 245433671 1380214905 1339761946 2105681813 521220613 489529301 -675340179 1981081599 -385299114 473025008 912946925 -940300269 -1965173696 -260752199 221944122 2017401299 1645869714 1816682610 -581758889 -183679934 -816027465 817613553 1442914092 -1152351742 -394029607 -2138506600 1005825467 41626096 -2129626682 -2077627940
REM
CELL 1.54180   50.00000   50.00000   50.00000   90.00000   90.00000   90.00000
LATT -1
SFAC C  
C      1  0.5932080000000  0.5004730000000  0.4997020000000 1.0
C      1  0.4866850000000  0.5004730000000  0.4997020000000 1.0
C      1  0.3805850000000  0.5004730000000  0.4997020000000 1.0
C      1  0.5399460000000  0.5004730000000  0.4997020000000 1.0
C      1  0.5665770000000  0.5004730000000  0.4997020000000 1.0
C      1  0.4334230000000  0.5004730000000  0.4997020000000 1.0
C      1  0.4067920000000  0.5004730000000  0.4997020000000 1.0
C      1  0.6194150000000  0.5004730000000  0.4997020000000 1.0
C      1  0.4600540000000  0.5004730000000  0.4997020000000 1.0
C      1  0.5133150000000  0.5004730000000  0.4997020000000 1.0
END
