TITL C-2782235-7892-1239 0.000760344987037535 125000 -915.895692812911 0 0 154 (C1) n - 1
REM
REM in /home/nfs/bkarasulu/CARBON/AIRSS/Generating-Clusters/REBO/Higher-Symm/SD-CG/HFTN-CG
REM
REM
REM
REM
REM
REM ./C.cell (12c818d87b63d06a65506943cc24bca4)
REM
REM compiler GCC version 9.2.1 20190827 (Red Hat 9.2.1-1)
REM options -cpp -mtune=generic -march=x86-64 -g -O0 -fpre-include=/usr/include/finclude/math-vector-fortran.h
REM seed -2085460854 786994265 1902215279 -1997172158 -376370583 1315725146 1311787856 2013204326 985945366 -1896377846 -304097147 232516361 -273840424 -929845584 -612583344 -2012704429 -1016063178 -1658062827 2030241965 701361542 -1227922630 224982016 1926955934 1673238434 -1128626549 -1178226509 -901785250 -1449712418 -1387966275 638561772 865953857 -465383127 -509796214
REM
CELL 1.54180   50.00000   50.00000   50.00000   90.00000   90.00000   90.00000
LATT -1
SFAC C  
C      1  0.4957370000000  0.4122280000000  0.4649720000000 1.0
C      1  0.4109520000000  0.4620000000000  0.4929070000000 1.0
C      1  0.4665200000000  0.4946320000000  0.4157210000000 1.0
C      1  0.5025060000000  0.5830870000000  0.4661230000000 1.0
C      1  0.4958340000000  0.5879480000000  0.5418450000000 1.0
C      1  0.5081330000000  0.4106540000000  0.5402000000000 1.0
C      1  0.5901190000000  0.5339250000000  0.4918030000000 1.0
C      1  0.4088110000000  0.5377000000000  0.5054630000000 1.0
C      1  0.5870760000000  0.4578050000000  0.5037810000000 1.0
C      1  0.5397960000000  0.5048720000000  0.4068170000000 1.0
C      1  0.4624000000000  0.5024740000000  0.5856090000000 1.0
C      1  0.5387110000000  0.4982770000000  0.5876450000000 1.0
C      1  0.4975860000000  0.4249330000000  0.4904540000000 1.0
C      1  0.4265020000000  0.4867510000000  0.4890790000000 1.0
C      1  0.4920730000000  0.4916460000000  0.4277150000000 1.0
C      1  0.5050500000000  0.5696530000000  0.4912480000000 1.0
C      1  0.4902970000000  0.5730740000000  0.5189080000000 1.0
C      1  0.5161240000000  0.4209420000000  0.5150880000000 1.0
C      1  0.5742190000000  0.5099100000000  0.4921520000000 1.0
C      1  0.4251010000000  0.5143790000000  0.5064240000000 1.0
C      1  0.5774510000000  0.4834930000000  0.5099850000000 1.0
C      1  0.5167850000000  0.5094490000000  0.4222180000000 1.0
C      1  0.4878860000000  0.5021960000000  0.5732200000000 1.0
C      1  0.5152140000000  0.4877100000000  0.5763360000000 1.0
C      1  0.4787420000000  0.4660960000000  0.5876340000000 1.0
C      1  0.4598600000000  0.5920410000000  0.4887960000000 1.0
C      1  0.5900650000000  0.4790650000000  0.4571140000000 1.0
C      1  0.5083320000000  0.5385060000000  0.5993450000000 1.0
C      1  0.4828970000000  0.5307770000000  0.4108620000000 1.0
C      1  0.5219830000000  0.4667580000000  0.4185580000000 1.0
C      1  0.5318850000000  0.4068260000000  0.4811510000000 1.0
C      1  0.4607890000000  0.4092740000000  0.5185460000000 1.0
C      1  0.5406080000000  0.5842950000000  0.5174080000000 1.0
C      1  0.4178780000000  0.5252460000000  0.4686340000000 1.0
C      1  0.5909690000000  0.5165320000000  0.5277920000000 1.0
C      1  0.4168190000000  0.4813620000000  0.5273980000000 1.0
C      1  0.5136390000000  0.3863670000000  0.4610900000000 1.0
C      1  0.3902970000000  0.4627550000000  0.5170090000000 1.0
C      1  0.4626770000000  0.5129840000000  0.3900930000000 1.0
C      1  0.4809570000000  0.6039230000000  0.4667980000000 1.0
C      1  0.5231690000000  0.6001570000000  0.5403680000000 1.0
C      1  0.4843620000000  0.3954440000000  0.5369220000000 1.0
C      1  0.6150460000000  0.5341560000000  0.5117040000000 1.0
C      1  0.3893630000000  0.5397010000000  0.4802620000000 1.0
C      1  0.6028790000000  0.4594170000000  0.4800310000000 1.0
C      1  0.5402850000000  0.4772590000000  0.3920150000000 1.0
C      1  0.4572820000000  0.4815900000000  0.6088500000000 1.0
C      1  0.5318690000000  0.5168940000000  0.6079050000000 1.0
C      1  0.4624820000000  0.5987130000000  0.5783450000000 1.0
C      1  0.5977700000000  0.5753080000000  0.4640670000000 1.0
C      1  0.5826650000000  0.4772700000000  0.5883480000000 1.0
C      1  0.5312450000000  0.4140620000000  0.5834590000000 1.0
C      1  0.4670550000000  0.4128360000000  0.4246430000000 1.0
C      1  0.5304610000000  0.5903820000000  0.4258890000000 1.0
C      1  0.4029440000000  0.4202260000000  0.4673920000000 1.0
C      1  0.5892710000000  0.4181230000000  0.5318230000000 1.0
C      1  0.3978100000000  0.5774040000000  0.5344990000000 1.0
C      1  0.4223120000000  0.5301060000000  0.5872610000000 1.0
C      1  0.5795510000000  0.5337220000000  0.4010860000000 1.0
C      1  0.4226770000000  0.4745080000000  0.4190090000000 1.0
C      1  0.4322390000000  0.4324330000000  0.3970450000000 1.0
C      1  0.4205810000000  0.3979000000000  0.4280480000000 1.0
C      1  0.3923710000000  0.4364030000000  0.4230910000000 1.0
C      1  0.5652140000000  0.5795330000000  0.3934120000000 1.0
C      1  0.4293270000000  0.5750240000000  0.6048760000000 1.0
C      1  0.5699460000000  0.4335890000000  0.6061060000000 1.0
C      1  0.5766300000000  0.6051800000000  0.4321870000000 1.0
C      1  0.4140510000000  0.6052810000000  0.5709380000000 1.0
C      1  0.5762460000000  0.3983320000000  0.5743440000000 1.0
C      1  0.6065120000000  0.5712550000000  0.4162860000000 1.0
C      1  0.3894280000000  0.5652690000000  0.5805220000000 1.0
C      1  0.6055680000000  0.4362100000000  0.5740870000000 1.0
C      1  0.5556550000000  0.5959490000000  0.4149260000000 1.0
C      1  0.5945030000000  0.4143420000000  0.5591280000000 1.0
C      1  0.4114760000000  0.5546410000000  0.5954160000000 1.0
C      1  0.4415950000000  0.4105490000000  0.4130990000000 1.0
C      1  0.5579340000000  0.4118000000000  0.5918230000000 1.0
C      1  0.4359640000000  0.5969450000000  0.5874980000000 1.0
C      1  0.3954210000000  0.5856380000000  0.5612470000000 1.0
C      1  0.5980470000000  0.5871520000000  0.4386120000000 1.0
C      1  0.4004570000000  0.4146190000000  0.4399750000000 1.0
C      1  0.5891970000000  0.4503440000000  0.5929350000000 1.0
C      1  0.4130030000000  0.4502390000000  0.4087790000000 1.0
C      1  0.5863420000000  0.5608390000000  0.3987340000000 1.0
C      1  0.4503540000000  0.4736320000000  0.5349590000000 1.0
C      1  0.4743740000000  0.5353460000000  0.4437070000000 1.0
C      1  0.5352250000000  0.4404630000000  0.4751460000000 1.0
C      1  0.5583490000000  0.5271380000000  0.5278200000000 1.0
C      1  0.4494070000000  0.5382850000000  0.4646500000000 1.0
C      1  0.5562070000000  0.4832680000000  0.4562470000000 1.0
C      1  0.5273220000000  0.4590790000000  0.4521850000000 1.0
C      1  0.4745920000000  0.4651570000000  0.5535860000000 1.0
C      1  0.5036450000000  0.5377880000000  0.5659620000000 1.0
C      1  0.4560820000000  0.5581120000000  0.4866770000000 1.0
C      1  0.5448920000000  0.5503910000000  0.5146870000000 1.0
C      1  0.4603520000000  0.4432440000000  0.5149360000000 1.0
C      1  0.5088700000000  0.4841830000000  0.3922690000000 1.0
C      1  0.4835470000000  0.3867410000000  0.5068420000000 1.0
C      1  0.3926630000000  0.5079260000000  0.4842270000000 1.0
C      1  0.4941460000000  0.5066190000000  0.3894830000000 1.0
C      1  0.5022430000000  0.5109540000000  0.6174250000000 1.0
C      1  0.4888360000000  0.4879780000000  0.6118310000000 1.0
C      1  0.5137820000000  0.6040480000000  0.5096060000000 1.0
C      1  0.4895120000000  0.6068220000000  0.4976090000000 1.0
C      1  0.5072030000000  0.3862090000000  0.4929460000000 1.0
C      1  0.6125140000000  0.4894050000000  0.4804910000000 1.0
C      1  0.3913330000000  0.4934410000000  0.5075170000000 1.0
C      1  0.6118750000000  0.5029180000000  0.5042930000000 1.0
C      1  0.5764250000000  0.4968060000000  0.4338690000000 1.0
C      1  0.4942990000000  0.4433260000000  0.5709260000000 1.0
C      1  0.4345390000000  0.5771230000000  0.5030230000000 1.0
C      1  0.4377150000000  0.5103860000000  0.4488490000000 1.0
C      1  0.5716710000000  0.5094160000000  0.5537540000000 1.0
C      1  0.4302310000000  0.4965810000000  0.5521010000000 1.0
C      1  0.4953270000000  0.5637280000000  0.5824240000000 1.0
C      1  0.4969070000000  0.5553460000000  0.4278490000000 1.0
C      1  0.5040630000000  0.4436490000000  0.4315310000000 1.0
C      1  0.5562640000000  0.4230620000000  0.4955570000000 1.0
C      1  0.4373720000000  0.4243100000000  0.5018400000000 1.0
C      1  0.5643090000000  0.5720780000000  0.4989730000000 1.0
C      1  0.4174090000000  0.4345790000000  0.4865140000000 1.0
C      1  0.4417740000000  0.4917650000000  0.4299310000000 1.0
C      1  0.4875210000000  0.4239710000000  0.4400290000000 1.0
C      1  0.5840060000000  0.5610730000000  0.4837280000000 1.0
C      1  0.4137070000000  0.5646100000000  0.5154250000000 1.0
C      1  0.5770520000000  0.4317350000000  0.5106780000000 1.0
C      1  0.5665160000000  0.5127690000000  0.4140370000000 1.0
C      1  0.4377790000000  0.5113350000000  0.5735370000000 1.0
C      1  0.5654840000000  0.4962380000000  0.5767430000000 1.0
C      1  0.5106070000000  0.5759080000000  0.4392200000000 1.0
C      1  0.4848180000000  0.5850540000000  0.5684030000000 1.0
C      1  0.5115000000000  0.4231000000000  0.5658600000000 1.0
C      1  0.5055460000000  0.5226960000000  0.4489300000000 1.0
C      1  0.5279490000000  0.4491050000000  0.5064630000000 1.0
C      1  0.4520440000000  0.5029380000000  0.5176670000000 1.0
C      1  0.4976020000000  0.4760320000000  0.4540900000000 1.0
C      1  0.5069710000000  0.4743630000000  0.5491860000000 1.0
C      1  0.4919780000000  0.5175950000000  0.5450120000000 1.0
C      1  0.4757220000000  0.5477980000000  0.5074020000000 1.0
C      1  0.5223930000000  0.5443040000000  0.4946460000000 1.0
C      1  0.4823620000000  0.4510070000000  0.4950620000000 1.0
C      1  0.5510900000000  0.4945500000000  0.5230090000000 1.0
C      1  0.4524250000000  0.4840100000000  0.4779650000000 1.0
C      1  0.5465730000000  0.5035300000000  0.4773900000000 1.0
C      1  0.4992210000000  0.5017100000000  0.4731350000000 1.0
C      1  0.5031560000000  0.4710600000000  0.5051180000000 1.0
C      1  0.4733960000000  0.5022240000000  0.4934330000000 1.0
C      1  0.5059830000000  0.4977130000000  0.5260580000000 1.0
C      1  0.4965480000000  0.5258770000000  0.4963720000000 1.0
C      1  0.5274660000000  0.4937570000000  0.5003180000000 1.0
C      1  0.4686380000000  0.5265640000000  0.5289250000000 1.0
C      1  0.5293280000000  0.5276770000000  0.4695170000000 1.0
C      1  0.5331200000000  0.4690100000000  0.5310740000000 1.0
C      1  0.4726610000000  0.4641880000000  0.4694690000000 1.0
END
