TITL C-2782227-3064-638 0.00469022845814883 125000 -862.849419310707 0 0 148 (C1) n - 1
REM
REM in /home/nfs/bkarasulu/CARBON/AIRSS/Generating-Clusters/REBO/Higher-Symm/SD-CG/HFTN-CG
REM
REM
REM
REM
REM
REM ./C.cell (12c818d87b63d06a65506943cc24bca4)
REM
REM compiler GCC version 9.2.1 20190827 (Red Hat 9.2.1-1)
REM options -cpp -mtune=generic -march=x86-64 -g -O0 -fpre-include=/usr/include/finclude/math-vector-fortran.h
REM seed 1271842613 1479119973 1602980423 -1141791545 -1161407504 1607351659 -1381576752 -175293211 82817114 -399302139 219075835 -362605018 -1022999470 1965417929 1277994278 887186528 -1708387589 -101852361 -1325111744 -806258714 980368393 730933734 -42402897 647175304 -151707769 1716640339 1146954017 -1112136279 1313451933 -1350491531 -1018951456 -532171838 -2016325760
REM
CELL 1.54180   50.00000   50.00000   50.00000   90.00000   90.00000   90.00000
LATT -1
SFAC C  
C      1  0.4421670000000  0.4752800000000  0.4961140000000 1.0
C      1  0.4406180000000  0.5211180000000  0.4738380000000 1.0
C      1  0.4456750000000  0.5060880000000  0.5240210000000 1.0
C      1  0.5538700000000  0.4795390000000  0.4973210000000 1.0
C      1  0.5602370000000  0.5288180000000  0.4767010000000 1.0
C      1  0.5580600000000  0.5088600000000  0.5241920000000 1.0
C      1  0.4937750000000  0.4855800000000  0.4019440000000 1.0
C      1  0.4835980000000  0.5675160000000  0.5279800000000 1.0
C      1  0.4827610000000  0.4314360000000  0.5488180000000 1.0
C      1  0.5168470000000  0.4934900000000  0.4234160000000 1.0
C      1  0.5148540000000  0.5649140000000  0.5312140000000 1.0
C      1  0.5133240000000  0.4346760000000  0.5459900000000 1.0
C      1  0.4253820000000  0.5081440000000  0.4248750000000 1.0
C      1  0.4319870000000  0.5545430000000  0.5376010000000 1.0
C      1  0.4283900000000  0.4367110000000  0.5305440000000 1.0
C      1  0.5747480000000  0.5008510000000  0.4209460000000 1.0
C      1  0.5719290000000  0.5569580000000  0.5403140000000 1.0
C      1  0.5707180000000  0.4387460000000  0.5293530000000 1.0
C      1  0.4676170000000  0.5082080000000  0.4475430000000 1.0
C      1  0.4650550000000  0.5321910000000  0.5299590000000 1.0
C      1  0.4647990000000  0.4541830000000  0.5213380000000 1.0
C      1  0.5488670000000  0.5104180000000  0.4546460000000 1.0
C      1  0.5333630000000  0.5299870000000  0.5253250000000 1.0
C      1  0.5382910000000  0.4546670000000  0.5122260000000 1.0
C      1  0.5866630000000  0.5009560000000  0.5348920000000 1.0
C      1  0.5771410000000  0.4736320000000  0.4771370000000 1.0
C      1  0.5925080000000  0.5346760000000  0.4771920000000 1.0
C      1  0.4154330000000  0.5013350000000  0.5344930000000 1.0
C      1  0.4138930000000  0.4693580000000  0.4844160000000 1.0
C      1  0.4129600000000  0.5364010000000  0.4738780000000 1.0
C      1  0.4848400000000  0.5351230000000  0.4021070000000 1.0
C      1  0.4831560000000  0.5713930000000  0.5754560000000 1.0
C      1  0.4852460000000  0.3973860000000  0.5280580000000 1.0
C      1  0.5149800000000  0.5346690000000  0.4010620000000 1.0
C      1  0.5135370000000  0.5714960000000  0.5796500000000 1.0
C      1  0.5158080000000  0.3990250000000  0.5282410000000 1.0
C      1  0.4461900000000  0.3999440000000  0.5058260000000 1.0
C      1  0.4466690000000  0.5496060000000  0.4164730000000 1.0
C      1  0.4486770000000  0.5526830000000  0.5818300000000 1.0
C      1  0.5513370000000  0.4022360000000  0.5067330000000 1.0
C      1  0.5562740000000  0.5450110000000  0.4204390000000 1.0
C      1  0.5455060000000  0.5481870000000  0.5751950000000 1.0
C      1  0.5379100000000  0.5660410000000  0.4649350000000 1.0
C      1  0.5393610000000  0.5010040000000  0.5737240000000 1.0
C      1  0.5339740000000  0.4339450000000  0.4653230000000 1.0
C      1  0.4638130000000  0.5651250000000  0.4621920000000 1.0
C      1  0.4623260000000  0.5000210000000  0.5716190000000 1.0
C      1  0.4616410000000  0.4361490000000  0.4670570000000 1.0
C      1  0.4717730000000  0.5865030000000  0.4948280000000 1.0
C      1  0.4762460000000  0.4536400000000  0.5822440000000 1.0
C      1  0.4706430000000  0.4448390000000  0.4369890000000 1.0
C      1  0.5235970000000  0.5860180000000  0.4985080000000 1.0
C      1  0.5325790000000  0.4607320000000  0.5805550000000 1.0
C      1  0.5207060000000  0.4545560000000  0.4305290000000 1.0
C      1  0.4900110000000  0.5112370000000  0.4678160000000 1.0
C      1  0.4854440000000  0.5095590000000  0.5253130000000 1.0
C      1  0.4886420000000  0.4665300000000  0.5047200000000 1.0
C      1  0.5153530000000  0.5217250000000  0.4574170000000 1.0
C      1  0.5092540000000  0.5143200000000  0.5409920000000 1.0
C      1  0.5150840000000  0.4722160000000  0.5026740000000 1.0
C      1  0.4868500000000  0.6007790000000  0.4702880000000 1.0
C      1  0.4906860000000  0.4700600000000  0.6060820000000 1.0
C      1  0.4861260000000  0.4224920000000  0.4239440000000 1.0
C      1  0.5122410000000  0.6004250000000  0.4720210000000 1.0
C      1  0.5157840000000  0.4734880000000  0.6049620000000 1.0
C      1  0.5112390000000  0.4248750000000  0.4250290000000 1.0
C      1  0.4393610000000  0.5373680000000  0.5103290000000 1.0
C      1  0.4348790000000  0.4678300000000  0.5285380000000 1.0
C      1  0.4391710000000  0.4947450000000  0.4531060000000 1.0
C      1  0.5612680000000  0.5418000000000  0.5145110000000 1.0
C      1  0.5630770000000  0.4695510000000  0.5288290000000 1.0
C      1  0.5679850000000  0.4865840000000  0.4491880000000 1.0
C      1  0.5608200000000  0.4494580000000  0.5739820000000 1.0
C      1  0.5482150000000  0.4625920000000  0.4181240000000 1.0
C      1  0.5511410000000  0.5896250000000  0.5128140000000 1.0
C      1  0.4480960000000  0.4504250000000  0.5713140000000 1.0
C      1  0.4518100000000  0.4686250000000  0.4256080000000 1.0
C      1  0.4432820000000  0.5878160000000  0.5067530000000 1.0
C      1  0.5614820000000  0.4273240000000  0.5548230000000 1.0
C      1  0.5535720000000  0.4875030000000  0.4054210000000 1.0
C      1  0.5554650000000  0.5819640000000  0.5403390000000 1.0
C      1  0.4425250000000  0.4274270000000  0.5545420000000 1.0
C      1  0.4487750000000  0.4932320000000  0.4129870000000 1.0
C      1  0.4421970000000  0.5817080000000  0.5348040000000 1.0
C      1  0.5301240000000  0.5048940000000  0.3934500000000 1.0
C      1  0.5296240000000  0.5805150000000  0.5567880000000 1.0
C      1  0.5363130000000  0.4106830000000  0.5532350000000 1.0
C      1  0.4724990000000  0.5035490000000  0.3999970000000 1.0
C      1  0.4682060000000  0.5887470000000  0.5501020000000 1.0
C      1  0.4641410000000  0.4036010000000  0.5543420000000 1.0
C      1  0.4669320000000  0.5304640000000  0.4810250000000 1.0
C      1  0.4701660000000  0.4847980000000  0.5349400000000 1.0
C      1  0.4686410000000  0.4729680000000  0.4839920000000 1.0
C      1  0.5295190000000  0.5263390000000  0.4857890000000 1.0
C      1  0.5309300000000  0.4918190000000  0.5361220000000 1.0
C      1  0.5263150000000  0.4923240000000  0.4816460000000 1.0
C      1  0.4687760000000  0.5499000000000  0.5531750000000 1.0
C      1  0.4651940000000  0.4244550000000  0.5212060000000 1.0
C      1  0.4667810000000  0.5291580000000  0.4299170000000 1.0
C      1  0.5218430000000  0.5416700000000  0.5539090000000 1.0
C      1  0.5308900000000  0.4281860000000  0.5185370000000 1.0
C      1  0.5316130000000  0.5230080000000  0.4287200000000 1.0
C      1  0.4307730000000  0.4403320000000  0.4807250000000 1.0
C      1  0.4328950000000  0.5563830000000  0.4573200000000 1.0
C      1  0.4318650000000  0.5111880000000  0.5611720000000 1.0
C      1  0.5636590000000  0.4424280000000  0.4799540000000 1.0
C      1  0.5713740000000  0.5583930000000  0.4647640000000 1.0
C      1  0.5701140000000  0.5110070000000  0.5622500000000 1.0
C      1  0.5133020000000  0.4175950000000  0.4766400000000 1.0
C      1  0.5171600000000  0.5675270000000  0.4447830000000 1.0
C      1  0.5152350000000  0.5145770000000  0.5833090000000 1.0
C      1  0.4842080000000  0.4169080000000  0.4777700000000 1.0
C      1  0.4860180000000  0.5685220000000  0.4438220000000 1.0
C      1  0.4844000000000  0.5151770000000  0.5819010000000 1.0
C      1  0.5793540000000  0.5287560000000  0.4179560000000 1.0
C      1  0.5697140000000  0.5411860000000  0.5637310000000 1.0
C      1  0.5683340000000  0.4262050000000  0.5046680000000 1.0
C      1  0.4219310000000  0.5352900000000  0.4170290000000 1.0
C      1  0.4308520000000  0.5408870000000  0.5618810000000 1.0
C      1  0.4283670000000  0.4234730000000  0.5057070000000 1.0
C      1  0.5201230000000  0.4672710000000  0.5514770000000 1.0
C      1  0.5126620000000  0.4785860000000  0.4534630000000 1.0
C      1  0.5147610000000  0.5531640000000  0.4991870000000 1.0
C      1  0.4875510000000  0.4643850000000  0.5525780000000 1.0
C      1  0.4813840000000  0.4695740000000  0.4578780000000 1.0
C      1  0.4807810000000  0.5542610000000  0.4966870000000 1.0
C      1  0.5608530000000  0.4788420000000  0.5588850000000 1.0
C      1  0.5556840000000  0.4549340000000  0.4494030000000 1.0
C      1  0.5567260000000  0.5646920000000  0.4935770000000 1.0
C      1  0.4391530000000  0.4782140000000  0.5589070000000 1.0
C      1  0.4412610000000  0.4624080000000  0.4568950000000 1.0
C      1  0.4421450000000  0.5606360000000  0.4888180000000 1.0
C      1  0.6032740000000  0.4837570000000  0.4871450000000 1.0
C      1  0.6089360000000  0.5155870000000  0.4878030000000 1.0
C      1  0.6063990000000  0.4981710000000  0.5158010000000 1.0
C      1  0.3937740000000  0.4875890000000  0.4887750000000 1.0
C      1  0.3944030000000  0.5201340000000  0.4876700000000 1.0
C      1  0.3948410000000  0.5042800000000  0.5163290000000 1.0
C      1  0.5236360000000  0.3970670000000  0.4949330000000 1.0
C      1  0.5286570000000  0.5611430000000  0.4178920000000 1.0
C      1  0.5212880000000  0.5438650000000  0.5937030000000 1.0
C      1  0.4748690000000  0.3959640000000  0.4954620000000 1.0
C      1  0.4753870000000  0.5649060000000  0.4159280000000 1.0
C      1  0.4759240000000  0.5417910000000  0.5914210000000 1.0
C      1  0.5066200000000  0.4400820000000  0.5850240000000 1.0
C      1  0.4982900000000  0.4581170000000  0.4070600000000 1.0
C      1  0.4969730000000  0.6013510000000  0.5089460000000 1.0
C      1  0.4926060000000  0.5057160000000  0.4983960000000 1.0
END
