TITL C-2782237-5345-633 -0.000979037342535815 125000 -364.00548047902 0 0 62 (C1) n - 1
REM
REM in /home/nfs/bkarasulu/CARBON/AIRSS/Generating-Clusters/REBO/Higher-Symm/SD-CG/HFTN-CG
REM
REM
REM
REM
REM
REM ./C.cell (12c818d87b63d06a65506943cc24bca4)
REM
REM compiler GCC version 9.2.1 20190827 (Red Hat 9.2.1-1)
REM options -cpp -mtune=generic -march=x86-64 -g -O0 -fpre-include=/usr/include/finclude/math-vector-fortran.h
REM seed 210020812 -595040770 -2121701998 -401077374 -20518912 1328570418 635760419 -61394572 835479109 1907728712 322907503 -1949297995 -362022336 -1974463630 -808356872 1435978446 -388071875 -1946267066 1123181791 -1667133827 2037297191 219234950 -1023366309 -699109518 -930538676 1280960230 1671455964 651039810 -402723617 890310090 -34826100 366728 1371894425
REM
CELL 1.54180   50.00000   50.00000   50.00000   90.00000   90.00000   90.00000
LATT -1
SFAC C  
C      1  0.5441350000000  0.4501000000000  0.4770240000000 1.0
C      1  0.4979100000000  0.4511040000000  0.5499680000000 1.0
C      1  0.4552350000000  0.4577580000000  0.4722100000000 1.0
C      1  0.5219210000000  0.4388530000000  0.5572180000000 1.0
C      1  0.4372370000000  0.4446730000000  0.4890930000000 1.0
C      1  0.5356210000000  0.4368570000000  0.4538600000000 1.0
C      1  0.5490030000000  0.5158760000000  0.5385080000000 1.0
C      1  0.4454020000000  0.5148620000000  0.5247070000000 1.0
C      1  0.5085190000000  0.5192110000000  0.4368740000000 1.0
C      1  0.4540980000000  0.5161840000000  0.4488000000000 1.0
C      1  0.5666760000000  0.5221140000000  0.4833990000000 1.0
C      1  0.4785280000000  0.5219270000000  0.5696300000000 1.0
C      1  0.4855280000000  0.5145840000000  0.4622660000000 1.0
C      1  0.5422740000000  0.5138140000000  0.5050100000000 1.0
C      1  0.4779060000000  0.5147860000000  0.5362670000000 1.0
C      1  0.4981070000000  0.4877070000000  0.4356700000000 1.0
C      1  0.5601640000000  0.4857150000000  0.5270930000000 1.0
C      1  0.4467850000000  0.4849510000000  0.5409020000000 1.0
C      1  0.5004570000000  0.4748200000000  0.5317670000000 1.0
C      1  0.4730650000000  0.4783590000000  0.4854550000000 1.0
C      1  0.5276830000000  0.4740040000000  0.4842960000000 1.0
C      1  0.5306300000000  0.5393370000000  0.4852710000000 1.0
C      1  0.4997500000000  0.5407280000000  0.5421820000000 1.0
C      1  0.4666390000000  0.5376250000000  0.4794740000000 1.0
C      1  0.4711120000000  0.4421000000000  0.5514200000000 1.0
C      1  0.4658600000000  0.4493850000000  0.4472570000000 1.0
C      1  0.5603820000000  0.4425700000000  0.4990790000000 1.0
C      1  0.4421110000000  0.4912810000000  0.5708440000000 1.0
C      1  0.4719090000000  0.4853380000000  0.4172540000000 1.0
C      1  0.5878630000000  0.4917640000000  0.5134780000000 1.0
C      1  0.4345430000000  0.5116340000000  0.4722550000000 1.0
C      1  0.5580110000000  0.5208380000000  0.4543760000000 1.0
C      1  0.5091380000000  0.5169860000000  0.5744700000000 1.0
C      1  0.5445350000000  0.5472890000000  0.5261580000000 1.0
C      1  0.4566800000000  0.5468160000000  0.5263370000000 1.0
C      1  0.4972930000000  0.5491270000000  0.4463540000000 1.0
C      1  0.4727400000000  0.5527410000000  0.5024500000000 1.0
C      1  0.5105840000000  0.5589560000000  0.4700840000000 1.0
C      1  0.5164660000000  0.5537960000000  0.5237270000000 1.0
C      1  0.4330060000000  0.5111840000000  0.4967250000000 1.0
C      1  0.5391030000000  0.5197850000000  0.4388510000000 1.0
C      1  0.5309270000000  0.5139280000000  0.5635090000000 1.0
C      1  0.4910970000000  0.4553490000000  0.4354520000000 1.0
C      1  0.5595370000000  0.4531870000000  0.5256200000000 1.0
C      1  0.4485640000000  0.4532360000000  0.5381710000000 1.0
C      1  0.5165620000000  0.5040330000000  0.4726950000000 1.0
C      1  0.5141110000000  0.5047670000000  0.5228530000000 1.0
C      1  0.4778400000000  0.5072860000000  0.5030130000000 1.0
C      1  0.4707420000000  0.5503550000000  0.5523090000000 1.0
C      1  0.4678840000000  0.5474160000000  0.4486730000000 1.0
C      1  0.5589920000000  0.5497400000000  0.4999550000000 1.0
C      1  0.4518070000000  0.4991730000000  0.4237370000000 1.0
C      1  0.5910780000000  0.5066200000000  0.4934430000000 1.0
C      1  0.4564410000000  0.5070910000000  0.5841080000000 1.0
C      1  0.4982780000000  0.4771800000000  0.4680480000000 1.0
C      1  0.5296970000000  0.4772420000000  0.5145590000000 1.0
C      1  0.4721150000000  0.4793090000000  0.5192050000000 1.0
C      1  0.5137250000000  0.4387040000000  0.4376930000000 1.0
C      1  0.5470500000000  0.4399190000000  0.5469060000000 1.0
C      1  0.4355100000000  0.4420710000000  0.5160880000000 1.0
C      1  0.5044090000000  0.5219540000000  0.4966150000000 1.0
C      1  0.5009080000000  0.5615920000000  0.5001310000000 1.0
END
