TITL C-2782238-9940-584 -0.000226448194884174 125000 -248.377545316218 0 0 44 (C1) n - 1
REM
REM in /home/nfs/bkarasulu/CARBON/AIRSS/Generating-Clusters/REBO/Higher-Symm/SD-CG/HFTN-CG
REM
REM
REM
REM
REM
REM ./C.cell (12c818d87b63d06a65506943cc24bca4)
REM
REM compiler GCC version 9.2.1 20190827 (Red Hat 9.2.1-1)
REM options -cpp -mtune=generic -march=x86-64 -g -O0 -fpre-include=/usr/include/finclude/math-vector-fortran.h
REM seed 388304942 -252073289 -486439063 839076201 1259131469 -1141685126 -862501819 333448786 -945261388 -1512171787 30474324 -1948416864 755469211 -1383977204 -868650360 -305162409 -737675731 -596250861 -1470322295 -817419248 269481101 -1600035004 -1955897401 534187508 -310474629 979697012 572959657 -2045811743 -1102630789 -1766216665 -1302347765 -971119589 1926304481
REM
CELL 1.54180   50.00000   50.00000   50.00000   90.00000   90.00000   90.00000
LATT -1
SFAC C  
C      1  0.4799430000000  0.5477070000000  0.4759510000000 1.0
C      1  0.4351650000000  0.4857300000000  0.4745200000000 1.0
C      1  0.4891270000000  0.4446190000000  0.4745580000000 1.0
C      1  0.5483620000000  0.4678310000000  0.4722810000000 1.0
C      1  0.5487220000000  0.5460420000000  0.4721420000000 1.0
C      1  0.5433690000000  0.5190890000000  0.4516210000000 1.0
C      1  0.4971760000000  0.5442840000000  0.4484760000000 1.0
C      1  0.4557040000000  0.5032480000000  0.4533290000000 1.0
C      1  0.4724290000000  0.4535390000000  0.4475130000000 1.0
C      1  0.5286510000000  0.4637250000000  0.4458650000000 1.0
C      1  0.4568200000000  0.4751200000000  0.5587050000000 1.0
C      1  0.5100170000000  0.4544470000000  0.5566430000000 1.0
C      1  0.5397550000000  0.4929540000000  0.5635280000000 1.0
C      1  0.5197730000000  0.5463080000000  0.5577210000000 1.0
C      1  0.4652340000000  0.5312270000000  0.5576880000000 1.0
C      1  0.5355610000000  0.4662030000000  0.5540640000000 1.0
C      1  0.5296090000000  0.5166200000000  0.5470870000000 1.0
C      1  0.4923310000000  0.5498420000000  0.5611050000000 1.0
C      1  0.4521210000000  0.5070440000000  0.5565180000000 1.0
C      1  0.4777720000000  0.4571240000000  0.5592330000000 1.0
C      1  0.4794260000000  0.5197650000000  0.4943650000000 1.0
C      1  0.4548540000000  0.5049810000000  0.4932400000000 1.0
C      1  0.4946570000000  0.4700360000000  0.4946640000000 1.0
C      1  0.5388320000000  0.4937750000000  0.4915330000000 1.0
C      1  0.5534920000000  0.5188480000000  0.4909100000000 1.0
C      1  0.4364050000000  0.4864860000000  0.5360150000000 1.0
C      1  0.4907090000000  0.4395160000000  0.5351460000000 1.0
C      1  0.5500660000000  0.4590730000000  0.5307390000000 1.0
C      1  0.5405980000000  0.5450980000000  0.5328930000000 1.0
C      1  0.4737110000000  0.5526720000000  0.5350210000000 1.0
C      1  0.4713060000000  0.5247640000000  0.4526350000000 1.0
C      1  0.4522530000000  0.4717630000000  0.4492940000000 1.0
C      1  0.5045400000000  0.4511380000000  0.4458540000000 1.0
C      1  0.5430200000000  0.4925330000000  0.4499940000000 1.0
C      1  0.5243390000000  0.5442420000000  0.4489650000000 1.0
C      1  0.4766730000000  0.5500670000000  0.5084350000000 1.0
C      1  0.4352570000000  0.4862200000000  0.5086360000000 1.0
C      1  0.4897550000000  0.4417400000000  0.5080290000000 1.0
C      1  0.5506480000000  0.4657390000000  0.5052450000000 1.0
C      1  0.5449140000000  0.5457080000000  0.5060370000000 1.0
C      1  0.5104100000000  0.5057180000000  0.5255110000000 1.0
C      1  0.5065640000000  0.5052910000000  0.4603560000000 1.0
C      1  0.5077030000000  0.5081270000000  0.4350110000000 1.0
C      1  0.5057740000000  0.4989540000000  0.4933960000000 1.0
END
