TITL C-2782228-2999-1081 0.000831706606961498 125000 -283.147568313719 0 0 49 (C1) n - 1
REM
REM in /home/nfs/bkarasulu/CARBON/AIRSS/Generating-Clusters/REBO/Higher-Symm/SD-CG/HFTN-CG
REM
REM
REM
REM
REM
REM ./C.cell (12c818d87b63d06a65506943cc24bca4)
REM
REM compiler GCC version 9.2.1 20190827 (Red Hat 9.2.1-1)
REM options -cpp -mtune=generic -march=x86-64 -g -O0 -fpre-include=/usr/include/finclude/math-vector-fortran.h
REM seed -1476744765 1444036055 -1679774716 805734300 1559206214 1260397337 1317362650 939100960 -814592433 -248330064 54676821 -366936906 -1567163371 1156553715 1821454993 -942634528 -1284599887 -59878499 1015529367 -1343127644 245637676 679148310 -97973489 2009238194 -1059714801 108260503 32805898 2035562200 -1515762779 331331699 -1741477814 -1418609281 -574192045
REM
CELL 1.54180   50.00000   50.00000   50.00000   90.00000   90.00000   90.00000
LATT -1
SFAC C  
C      1  0.5477910000000  0.4978950000000  0.4644040000000 1.0
C      1  0.5641590000000  0.5155030000000  0.5401620000000 1.0
C      1  0.4874300000000  0.5096660000000  0.5706760000000 1.0
C      1  0.4264210000000  0.4906930000000  0.5157930000000 1.0
C      1  0.4657680000000  0.4982950000000  0.4428170000000 1.0
C      1  0.4457500000000  0.4929920000000  0.4557640000000 1.0
C      1  0.4382950000000  0.4909840000000  0.5372620000000 1.0
C      1  0.5102060000000  0.5187700000000  0.5714700000000 1.0
C      1  0.5715750000000  0.5056550000000  0.5187000000000 1.0
C      1  0.5290190000000  0.5022230000000  0.4491800000000 1.0
C      1  0.4752270000000  0.5043100000000  0.4943150000000 1.0
C      1  0.5019630000000  0.5111360000000  0.4772400000000 1.0
C      1  0.5278620000000  0.5133750000000  0.4954260000000 1.0
C      1  0.5137600000000  0.5212160000000  0.5231500000000 1.0
C      1  0.4833080000000  0.5116440000000  0.5248790000000 1.0
C      1  0.5235070000000  0.4804980000000  0.4910030000000 1.0
C      1  0.4972170000000  0.4782510000000  0.4730510000000 1.0
C      1  0.4732500000000  0.4704080000000  0.4928510000000 1.0
C      1  0.4831450000000  0.4776830000000  0.5229030000000 1.0
C      1  0.5140490000000  0.4867770000000  0.5214810000000 1.0
C      1  0.4473830000000  0.4613600000000  0.4801730000000 1.0
C      1  0.4945030000000  0.4706430000000  0.4428730000000 1.0
C      1  0.5487970000000  0.4637260000000  0.5026810000000 1.0
C      1  0.5316550000000  0.4939490000000  0.5487110000000 1.0
C      1  0.4815260000000  0.4635330000000  0.5510050000000 1.0
C      1  0.5547190000000  0.5277220000000  0.4900060000000 1.0
C      1  0.5039540000000  0.5328790000000  0.4547230000000 1.0
C      1  0.4461020000000  0.5138210000000  0.4897940000000 1.0
C      1  0.4613220000000  0.5229270000000  0.5437390000000 1.0
C      1  0.5267280000000  0.5479960000000  0.5323480000000 1.0
C      1  0.5454900000000  0.4522150000000  0.5272250000000 1.0
C      1  0.5307200000000  0.4633860000000  0.5492820000000 1.0
C      1  0.5055400000000  0.4530540000000  0.5589050000000 1.0
C      1  0.4463610000000  0.4416180000000  0.4620610000000 1.0
C      1  0.4827010000000  0.4489920000000  0.4330160000000 1.0
C      1  0.4364080000000  0.5341280000000  0.5052320000000 1.0
C      1  0.4423130000000  0.5381130000000  0.5318980000000 1.0
C      1  0.5298630000000  0.5667830000000  0.5128680000000 1.0
C      1  0.5568750000000  0.5535260000000  0.4865670000000 1.0
C      1  0.5131630000000  0.5574420000000  0.4617970000000 1.0
C      1  0.4975230000000  0.5040610000000  0.4382510000000 1.0
C      1  0.5371520000000  0.5260850000000  0.5549880000000 1.0
C      1  0.4650970000000  0.4912000000000  0.5559190000000 1.0
C      1  0.5614510000000  0.4917470000000  0.4923900000000 1.0
C      1  0.4282210000000  0.4867740000000  0.4835980000000 1.0
C      1  0.5368440000000  0.6002590000000  0.4737170000000 1.0
C      1  0.4533350000000  0.4108790000000  0.4247940000000 1.0
C      1  0.4604400000000  0.4327330000000  0.4392350000000 1.0
C      1  0.5323450000000  0.5737010000000  0.4807260000000 1.0
END
