TITL C-2782238-9940-531 -0.053378826183726 125000 -492.29724525104 0 0 84 (C1) n - 1
REM
REM in /home/nfs/bkarasulu/CARBON/AIRSS/Generating-Clusters/REBO/Higher-Symm/SD-CG/HFTN-CG
REM
REM
REM
REM
REM
REM ./C.cell (12c818d87b63d06a65506943cc24bca4)
REM
REM compiler GCC version 9.2.1 20190827 (Red Hat 9.2.1-1)
REM options -cpp -mtune=generic -march=x86-64 -g -O0 -fpre-include=/usr/include/finclude/math-vector-fortran.h
REM seed 848843608 -1097144496 -1099121028 -176054742 292031682 560307907 -844398404 1891975665 -2044910066 -1392014736 1685464697 2055895123 808728896 -1498214578 1555448350 507314582 -1595319130 -197166659 1851098849 554814424 750721005 -1580603615 -653094702 551360145 1452336944 144296128 1782723956 1916261074 1195312527 -1852327236 853519900 78172382 1286623806
REM
CELL 1.54180   50.00000   50.00000   50.00000   90.00000   90.00000   90.00000
LATT -1
SFAC C  
C      1  0.5913880000000  0.5548850000000  0.4811530000000 1.0
C      1  0.4096440000000  0.4502750000000  0.5116180000000 1.0
C      1  0.4137820000000  0.5334820000000  0.5053120000000 1.0
C      1  0.5850730000000  0.4795410000000  0.5015460000000 1.0
C      1  0.5212370000000  0.5136480000000  0.4186060000000 1.0
C      1  0.4781090000000  0.4862730000000  0.5809590000000 1.0
C      1  0.4695610000000  0.5426590000000  0.5653250000000 1.0
C      1  0.5370580000000  0.4562740000000  0.4419620000000 1.0
C      1  0.5110330000000  0.4859670000000  0.5360870000000 1.0
C      1  0.4853700000000  0.5106130000000  0.4606230000000 1.0
C      1  0.5115000000000  0.5167750000000  0.5480260000000 1.0
C      1  0.4965160000000  0.4888260000000  0.4376550000000 1.0
C      1  0.5025750000000  0.5464270000000  0.5627200000000 1.0
C      1  0.5036620000000  0.4557590000000  0.4413090000000 1.0
C      1  0.4803010000000  0.4577920000000  0.5618920000000 1.0
C      1  0.5177870000000  0.5388150000000  0.4408620000000 1.0
C      1  0.4541380000000  0.4363310000000  0.5242130000000 1.0
C      1  0.5440880000000  0.5636820000000  0.4755600000000 1.0
C      1  0.5018710000000  0.4281040000000  0.4974880000000 1.0
C      1  0.4984000000000  0.5716280000000  0.5046300000000 1.0
C      1  0.4931560000000  0.4440050000000  0.4684640000000 1.0
C      1  0.5093600000000  0.5584810000000  0.5342690000000 1.0
C      1  0.5427230000000  0.4924070000000  0.5602530000000 1.0
C      1  0.4421810000000  0.5251070000000  0.4350650000000 1.0
C      1  0.4583470000000  0.5170680000000  0.4149660000000 1.0
C      1  0.5287420000000  0.5051910000000  0.5820950000000 1.0
C      1  0.4568290000000  0.4776380000000  0.4900360000000 1.0
C      1  0.5302090000000  0.5177880000000  0.5218050000000 1.0
C      1  0.5216260000000  0.5400030000000  0.4986420000000 1.0
C      1  0.4768670000000  0.4598640000000  0.5013680000000 1.0
C      1  0.4578540000000  0.5037580000000  0.5018450000000 1.0
C      1  0.5375890000000  0.5044300000000  0.4917360000000 1.0
C      1  0.5194670000000  0.4604220000000  0.5543720000000 1.0
C      1  0.4781290000000  0.5387950000000  0.4459850000000 1.0
C      1  0.5241170000000  0.4350650000000  0.5423160000000 1.0
C      1  0.4737450000000  0.5629740000000  0.4601380000000 1.0
C      1  0.5328500000000  0.5698780000000  0.5043580000000 1.0
C      1  0.4678810000000  0.4294980000000  0.4956650000000 1.0
C      1  0.5269020000000  0.5341850000000  0.5804770000000 1.0
C      1  0.4922160000000  0.4399130000000  0.4170020000000 1.0
C      1  0.5671070000000  0.5472350000000  0.4713190000000 1.0
C      1  0.4330590000000  0.4563440000000  0.5244610000000 1.0
C      1  0.5548460000000  0.5672980000000  0.5574690000000 1.0
C      1  0.4567940000000  0.4180190000000  0.4401880000000 1.0
C      1  0.5080130000000  0.4604580000000  0.5815400000000 1.0
C      1  0.4914880000000  0.5390250000000  0.4191290000000 1.0
C      1  0.5477500000000  0.5125030000000  0.4399800000000 1.0
C      1  0.4594970000000  0.4904110000000  0.5533590000000 1.0
C      1  0.5296450000000  0.4851740000000  0.4344340000000 1.0
C      1  0.4808970000000  0.5133130000000  0.5621230000000 1.0
C      1  0.4729820000000  0.5499080000000  0.4978190000000 1.0
C      1  0.5325090000000  0.4391130000000  0.4974630000000 1.0
C      1  0.5212460000000  0.5254910000000  0.4699780000000 1.0
C      1  0.4746900000000  0.4712830000000  0.5306840000000 1.0
C      1  0.4939800000000  0.5337600000000  0.5163890000000 1.0
C      1  0.5054130000000  0.4671680000000  0.4898520000000 1.0
C      1  0.5404200000000  0.5707970000000  0.5352490000000 1.0
C      1  0.4645080000000  0.4261230000000  0.4643870000000 1.0
C      1  0.4155790000000  0.5371760000000  0.4775810000000 1.0
C      1  0.5771800000000  0.4767360000000  0.5282000000000 1.0
C      1  0.5455140000000  0.4335640000000  0.5232130000000 1.0
C      1  0.4495030000000  0.5650290000000  0.4785280000000 1.0
C      1  0.4889120000000  0.5069420000000  0.4102690000000 1.0
C      1  0.5088540000000  0.4880390000000  0.5942110000000 1.0
C      1  0.4757570000000  0.4332840000000  0.5425720000000 1.0
C      1  0.5214770000000  0.5638830000000  0.4589430000000 1.0
C      1  0.4702200000000  0.4237520000000  0.4169100000000 1.0
C      1  0.5499690000000  0.5507880000000  0.5789390000000 1.0
C      1  0.5718310000000  0.4654170000000  0.4764230000000 1.0
C      1  0.4306970000000  0.5404530000000  0.5317430000000 1.0
C      1  0.5280200000000  0.4683780000000  0.5141860000000 1.0
C      1  0.4629730000000  0.5243290000000  0.4799390000000 1.0
C      1  0.4848600000000  0.5030990000000  0.5219620000000 1.0
C      1  0.5097690000000  0.4939820000000  0.4761410000000 1.0
C      1  0.5502610000000  0.4787160000000  0.5366250000000 1.0
C      1  0.4384270000000  0.5301740000000  0.4624320000000 1.0
C      1  0.5594830000000  0.4520940000000  0.4558110000000 1.0
C      1  0.4459770000000  0.5478290000000  0.5535400000000 1.0
C      1  0.5635970000000  0.5204100000000  0.4612290000000 1.0
C      1  0.4366620000000  0.4831830000000  0.5338730000000 1.0
C      1  0.5659550000000  0.4980540000000  0.4822750000000 1.0
C      1  0.4321150000000  0.5095110000000  0.5182240000000 1.0
C      1  0.4999070000000  0.4249000000000  0.5302470000000 1.0
C      1  0.4977680000000  0.5726250000000  0.4717610000000 1.0
END
