TITL C-2782238-9940-902 0.00876729662549727 125000 -729.714580820243 0 0 129 (C1) n - 1
REM
REM in /home/nfs/bkarasulu/CARBON/AIRSS/Generating-Clusters/REBO/Higher-Symm/SD-CG/HFTN-CG
REM
REM
REM
REM
REM
REM ./C.cell (12c818d87b63d06a65506943cc24bca4)
REM
REM compiler GCC version 9.2.1 20190827 (Red Hat 9.2.1-1)
REM options -cpp -mtune=generic -march=x86-64 -g -O0 -fpre-include=/usr/include/finclude/math-vector-fortran.h
REM seed -250041865 1324369612 422638306 2056152693 -214131512 312094291 1551778414 -1367335374 -1364234397 -2102211793 -2081568953 716292845 -372127292 1760881723 426387389 -1347263315 -1802082922 -1322937148 -1024732796 1112217581 -1325101820 929681078 402891318 -535048429 -1975799316 -1013146598 2046094534 231353856 197272267 722471070 -638769638 1904670010 758733350
REM
CELL 1.54180   50.00000   50.00000   50.00000   90.00000   90.00000   90.00000
LATT -1
SFAC C  
C      1  0.5799640000000  0.4639360000000  0.4492020000000 1.0
C      1  0.5947050000000  0.5307410000000  0.5231300000000 1.0
C      1  0.5440460000000  0.4690010000000  0.5899800000000 1.0
C      1  0.4687920000000  0.5350070000000  0.5874820000000 1.0
C      1  0.4140130000000  0.4665320000000  0.5418340000000 1.0
C      1  0.4028090000000  0.5334670000000  0.4639540000000 1.0
C      1  0.4508670000000  0.4668990000000  0.4098260000000 1.0
C      1  0.5223740000000  0.5240710000000  0.4051620000000 1.0
C      1  0.5160340000000  0.4685540000000  0.4180500000000 1.0
C      1  0.5768760000000  0.5245770000000  0.4486540000000 1.0
C      1  0.5896650000000  0.4710270000000  0.5211120000000 1.0
C      1  0.5607850000000  0.5213430000000  0.5866360000000 1.0
C      1  0.4859070000000  0.4835290000000  0.5986920000000 1.0
C      1  0.4202700000000  0.5203850000000  0.5570320000000 1.0
C      1  0.3975210000000  0.4789030000000  0.4791370000000 1.0
C      1  0.4406880000000  0.5250890000000  0.4122380000000 1.0
C      1  0.5830790000000  0.5023140000000  0.5288920000000 1.0
C      1  0.5387980000000  0.4969310000000  0.5777420000000 1.0
C      1  0.4737190000000  0.5065110000000  0.5766820000000 1.0
C      1  0.4237880000000  0.4949150000000  0.5346520000000 1.0
C      1  0.4153710000000  0.5055990000000  0.4678460000000 1.0
C      1  0.4581530000000  0.4965600000000  0.4181580000000 1.0
C      1  0.5282520000000  0.4973320000000  0.4182030000000 1.0
C      1  0.5810170000000  0.4934050000000  0.4613100000000 1.0
C      1  0.5165230000000  0.4089540000000  0.4856360000000 1.0
C      1  0.5259150000000  0.5978180000000  0.4998310000000 1.0
C      1  0.5228370000000  0.4073300000000  0.5192450000000 1.0
C      1  0.5028730000000  0.6008480000000  0.5241610000000 1.0
C      1  0.4891740000000  0.4026800000000  0.5210070000000 1.0
C      1  0.4741430000000  0.5890340000000  0.5098080000000 1.0
C      1  0.4831260000000  0.4031430000000  0.4874900000000 1.0
C      1  0.4952560000000  0.5936690000000  0.4856080000000 1.0
C      1  0.4756430000000  0.5390720000000  0.5139340000000 1.0
C      1  0.4751750000000  0.4659060000000  0.5054560000000 1.0
C      1  0.4805150000000  0.5389790000000  0.4825920000000 1.0
C      1  0.5018810000000  0.4650580000000  0.4702390000000 1.0
C      1  0.5337210000000  0.5368100000000  0.4905560000000 1.0
C      1  0.5406920000000  0.4640840000000  0.4987380000000 1.0
C      1  0.5309620000000  0.5398970000000  0.5220880000000 1.0
C      1  0.5049510000000  0.4657390000000  0.5321420000000 1.0
C      1  0.4727100000000  0.4328100000000  0.5009950000000 1.0
C      1  0.4975600000000  0.5632520000000  0.4723720000000 1.0
C      1  0.5013710000000  0.4386080000000  0.4865170000000 1.0
C      1  0.5221000000000  0.5649880000000  0.4922610000000 1.0
C      1  0.5249310000000  0.4398750000000  0.5092790000000 1.0
C      1  0.5153940000000  0.5681830000000  0.5243880000000 1.0
C      1  0.4958030000000  0.4358080000000  0.5259280000000 1.0
C      1  0.4851640000000  0.5654810000000  0.5281150000000 1.0
C      1  0.4489220000000  0.4765170000000  0.4656920000000 1.0
C      1  0.4874140000000  0.5246420000000  0.4412930000000 1.0
C      1  0.5333300000000  0.4689570000000  0.4458980000000 1.0
C      1  0.5707050000000  0.5266350000000  0.4806820000000 1.0
C      1  0.5591570000000  0.4708530000000  0.5339270000000 1.0
C      1  0.5171540000000  0.5323730000000  0.5588250000000 1.0
C      1  0.4703910000000  0.4710600000000  0.5511480000000 1.0
C      1  0.4386090000000  0.5263860000000  0.5096840000000 1.0
C      1  0.5332250000000  0.5828590000000  0.5657980000000 1.0
C      1  0.4769020000000  0.4251010000000  0.5726750000000 1.0
C      1  0.4209290000000  0.5726430000000  0.5285520000000 1.0
C      1  0.4346100000000  0.4234160000000  0.4777260000000 1.0
C      1  0.4558200000000  0.5997380000000  0.4564560000000 1.0
C      1  0.5093940000000  0.4297360000000  0.4249420000000 1.0
C      1  0.5497030000000  0.5702670000000  0.4629360000000 1.0
C      1  0.5706620000000  0.4140690000000  0.5134220000000 1.0
C      1  0.5835460000000  0.5002010000000  0.4947690000000 1.0
C      1  0.5592030000000  0.5004070000000  0.5507340000000 1.0
C      1  0.5075090000000  0.5039710000000  0.5720190000000 1.0
C      1  0.4531600000000  0.4983990000000  0.5522670000000 1.0
C      1  0.4201790000000  0.5027770000000  0.5017550000000 1.0
C      1  0.4400470000000  0.5004580000000  0.4469480000000 1.0
C      1  0.4919050000000  0.5024320000000  0.4192230000000 1.0
C      1  0.5544790000000  0.4932340000000  0.4397370000000 1.0
C      1  0.4270400000000  0.4469160000000  0.5498880000000 1.0
C      1  0.4082290000000  0.5532510000000  0.4782130000000 1.0
C      1  0.4580970000000  0.4443290000000  0.4239750000000 1.0
C      1  0.5086130000000  0.5434790000000  0.4124560000000 1.0
C      1  0.5654510000000  0.4456940000000  0.4414530000000 1.0
C      1  0.5894760000000  0.5491960000000  0.5078330000000 1.0
C      1  0.5508330000000  0.4477890000000  0.5783320000000 1.0
C      1  0.4824370000000  0.5556180000000  0.5845320000000 1.0
C      1  0.4872850000000  0.4941170000000  0.5319320000000 1.0
C      1  0.4679070000000  0.5080160000000  0.5119190000000 1.0
C      1  0.4725770000000  0.4916540000000  0.4842910000000 1.0
C      1  0.4937570000000  0.5100790000000  0.4699030000000 1.0
C      1  0.5226130000000  0.4922100000000  0.4684290000000 1.0
C      1  0.5436270000000  0.5062770000000  0.4869160000000 1.0
C      1  0.5399970000000  0.4930890000000  0.5165890000000 1.0
C      1  0.5170280000000  0.5105840000000  0.5325700000000 1.0
C      1  0.4830600000000  0.4314380000000  0.4192550000000 1.0
C      1  0.5293510000000  0.5709150000000  0.4494910000000 1.0
C      1  0.5699630000000  0.4249040000000  0.4879470000000 1.0
C      1  0.5563880000000  0.5771300000000  0.5508590000000 1.0
C      1  0.5021280000000  0.4266740000000  0.5719240000000 1.0
C      1  0.4385460000000  0.5731040000000  0.5469280000000 1.0
C      1  0.4330330000000  0.4314680000000  0.5049090000000 1.0
C      1  0.4478710000000  0.5739280000000  0.4606640000000 1.0
C      1  0.5542690000000  0.5878200000000  0.4983460000000 1.0
C      1  0.5502710000000  0.4185600000000  0.5313390000000 1.0
C      1  0.5054340000000  0.5922350000000  0.5543880000000 1.0
C      1  0.4651430000000  0.4129540000000  0.5368730000000 1.0
C      1  0.4483100000000  0.5815050000000  0.5009520000000 1.0
C      1  0.4627970000000  0.4146910000000  0.4668520000000 1.0
C      1  0.4793790000000  0.6108900000000  0.4651580000000 1.0
C      1  0.5347950000000  0.4108280000000  0.4639680000000 1.0
C      1  0.4953270000000  0.4736100000000  0.5699450000000 1.0
C      1  0.4465530000000  0.5272780000000  0.5395990000000 1.0
C      1  0.4294140000000  0.4750380000000  0.4894080000000 1.0
C      1  0.4563210000000  0.5286040000000  0.4419120000000 1.0
C      1  0.4880370000000  0.4708350000000  0.4237580000000 1.0
C      1  0.5469170000000  0.5252750000000  0.4397250000000 1.0
C      1  0.5883860000000  0.4678520000000  0.4910770000000 1.0
C      1  0.5479020000000  0.5297520000000  0.5568410000000 1.0
C      1  0.5656240000000  0.4528200000000  0.4848480000000 1.0
C      1  0.5575380000000  0.5526740000000  0.5386990000000 1.0
C      1  0.5155040000000  0.4511880000000  0.5600740000000 1.0
C      1  0.4610990000000  0.5533320000000  0.5442030000000 1.0
C      1  0.4425450000000  0.4570330000000  0.5094960000000 1.0
C      1  0.4556330000000  0.5484710000000  0.4647600000000 1.0
C      1  0.4809160000000  0.4645910000000  0.4496490000000 1.0
C      1  0.5293960000000  0.5321380000000  0.4591700000000 1.0
C      1  0.4574540000000  0.4423330000000  0.5521940000000 1.0
C      1  0.4278460000000  0.5551260000000  0.5015660000000 1.0
C      1  0.4494860000000  0.4438040000000  0.4542440000000 1.0
C      1  0.5023380000000  0.5552090000000  0.4412760000000 1.0
C      1  0.5348610000000  0.4349730000000  0.4434010000000 1.0
C      1  0.5675290000000  0.5592050000000  0.4874780000000 1.0
C      1  0.5488210000000  0.4448580000000  0.5470110000000 1.0
C      1  0.5074000000000  0.5605800000000  0.5671220000000 1.0
C      1  0.5079960000000  0.4750640000000  0.5013360000000 1.0
END
