TITL C-2782227-3064-242 -0.00418412416770887 125000 -976.338741524837 0 0 162 (C1) n - 1
REM
REM in /home/nfs/bkarasulu/CARBON/AIRSS/Generating-Clusters/REBO/Higher-Symm/SD-CG/HFTN-CG
REM
REM
REM
REM
REM
REM ./C.cell (12c818d87b63d06a65506943cc24bca4)
REM
REM compiler GCC version 9.2.1 20190827 (Red Hat 9.2.1-1)
REM options -cpp -mtune=generic -march=x86-64 -g -O0 -fpre-include=/usr/include/finclude/math-vector-fortran.h
REM seed 1103907549 1258606992 -40569600 1788991886 546059637 153995875 262179405 -1834338024 1222066046 -1972068849 -9538535 -1588229596 -780302959 987607431 -1134837759 1783992925 1139691851 -2034240121 -864105924 -44587497 803472478 -653686285 1758167893 290457060 1718750745 1898997815 969889886 -445254162 1881747826 431596262 -1882564489 643786394 1013657839
REM
CELL 1.54180   50.00000   50.00000   50.00000   90.00000   90.00000   90.00000
LATT -1
SFAC C  
C      1  0.5514530000000  0.5212710000000  0.4657350000000 1.0
C      1  0.5528820000000  0.4887410000000  0.4628810000000 1.0
C      1  0.5539840000000  0.4634230000000  0.4845920000000 1.0
C      1  0.5558530000000  0.4693460000000  0.5160650000000 1.0
C      1  0.5579380000000  0.4974510000000  0.5303570000000 1.0
C      1  0.5559390000000  0.5272160000000  0.5205870000000 1.0
C      1  0.5525240000000  0.5387020000000  0.4912980000000 1.0
C      1  0.4597760000000  0.5527860000000  0.4088430000000 1.0
C      1  0.4677630000000  0.4616600000000  0.4016390000000 1.0
C      1  0.4644350000000  0.4086550000000  0.4579580000000 1.0
C      1  0.4618590000000  0.4151450000000  0.5589980000000 1.0
C      1  0.4581950000000  0.4882010000000  0.6015090000000 1.0
C      1  0.4612370000000  0.5691840000000  0.5748310000000 1.0
C      1  0.4638820000000  0.5970160000000  0.4971010000000 1.0
C      1  0.4860410000000  0.5432260000000  0.4050730000000 1.0
C      1  0.4914960000000  0.4514770000000  0.4127750000000 1.0
C      1  0.4869950000000  0.4093960000000  0.4762520000000 1.0
C      1  0.4881360000000  0.4218100000000  0.5665770000000 1.0
C      1  0.4812020000000  0.4993410000000  0.6136140000000 1.0
C      1  0.4853790000000  0.5804220000000  0.5655000000000 1.0
C      1  0.4900110000000  0.5925980000000  0.4803430000000 1.0
C      1  0.4174160000000  0.5406340000000  0.4388570000000 1.0
C      1  0.4331490000000  0.4962660000000  0.4254950000000 1.0
C      1  0.4284440000000  0.4502300000000  0.4497950000000 1.0
C      1  0.4373260000000  0.4428830000000  0.5197260000000 1.0
C      1  0.4316500000000  0.4696400000000  0.5663920000000 1.0
C      1  0.4249630000000  0.5283680000000  0.5601120000000 1.0
C      1  0.4329230000000  0.5646750000000  0.5186110000000 1.0
C      1  0.4024780000000  0.5181320000000  0.5360240000000 1.0
C      1  0.3980120000000  0.5313150000000  0.5094880000000 1.0
C      1  0.3785480000000  0.5221400000000  0.4927150000000 1.0
C      1  0.3744850000000  0.5002120000000  0.4766990000000 1.0
C      1  0.3885780000000  0.4754120000000  0.4794080000000 1.0
C      1  0.3910450000000  0.4675840000000  0.5069980000000 1.0
C      1  0.3915560000000  0.4868310000000  0.5322800000000 1.0
C      1  0.4957030000000  0.4555420000000  0.6050430000000 1.0
C      1  0.4928950000000  0.5459740000000  0.6009910000000 1.0
C      1  0.4969460000000  0.6135280000000  0.5273670000000 1.0
C      1  0.4900560000000  0.5870750000000  0.4287290000000 1.0
C      1  0.4947090000000  0.4956620000000  0.3840350000000 1.0
C      1  0.5010480000000  0.4045870000000  0.4279950000000 1.0
C      1  0.4840390000000  0.3965500000000  0.5229720000000 1.0
C      1  0.5578780000000  0.4114150000000  0.4929830000000 1.0
C      1  0.5615990000000  0.4383100000000  0.5679970000000 1.0
C      1  0.5609800000000  0.5115090000000  0.5858950000000 1.0
C      1  0.5618840000000  0.5805740000000  0.5471580000000 1.0
C      1  0.5600680000000  0.5801630000000  0.4711100000000 1.0
C      1  0.5577310000000  0.5243320000000  0.4222600000000 1.0
C      1  0.5632680000000  0.4512790000000  0.4289620000000 1.0
C      1  0.5019160000000  0.4437520000000  0.5167000000000 1.0
C      1  0.5152630000000  0.4753560000000  0.5611150000000 1.0
C      1  0.5124930000000  0.5318760000000  0.5557370000000 1.0
C      1  0.5068380000000  0.5650100000000  0.5114760000000 1.0
C      1  0.5009350000000  0.5458170000000  0.4575210000000 1.0
C      1  0.5067540000000  0.4955880000000  0.4343660000000 1.0
C      1  0.5066840000000  0.4450930000000  0.4636370000000 1.0
C      1  0.5333670000000  0.5832770000000  0.4643710000000 1.0
C      1  0.5312880000000  0.5211410000000  0.4140750000000 1.0
C      1  0.5369480000000  0.4436590000000  0.4256790000000 1.0
C      1  0.5305860000000  0.4076170000000  0.4967620000000 1.0
C      1  0.5340690000000  0.4403550000000  0.5729030000000 1.0
C      1  0.5354440000000  0.5211430000000  0.5929880000000 1.0
C      1  0.5344310000000  0.5858390000000  0.5458780000000 1.0
C      1  0.5744650000000  0.5551630000000  0.4606370000000 1.0
C      1  0.5762890000000  0.5004150000000  0.4310210000000 1.0
C      1  0.5768320000000  0.4436290000000  0.4561170000000 1.0
C      1  0.5769350000000  0.4233080000000  0.5140880000000 1.0
C      1  0.5761540000000  0.4661790000000  0.5628450000000 1.0
C      1  0.5778540000000  0.5273230000000  0.5656850000000 1.0
C      1  0.5780370000000  0.5737200000000  0.5197700000000 1.0
C      1  0.4738110000000  0.4784260000000  0.3795340000000 1.0
C      1  0.4732430000000  0.3970860000000  0.4333720000000 1.0
C      1  0.4635590000000  0.3935550000000  0.5406630000000 1.0
C      1  0.4655090000000  0.4616000000000  0.5950450000000 1.0
C      1  0.4675800000000  0.5566260000000  0.5996450000000 1.0
C      1  0.4739230000000  0.6216140000000  0.5132590000000 1.0
C      1  0.4600300000000  0.5747830000000  0.4266970000000 1.0
C      1  0.5187020000000  0.5276030000000  0.4734060000000 1.0
C      1  0.5205900000000  0.4967380000000  0.4605550000000 1.0
C      1  0.5220590000000  0.4675170000000  0.4764080000000 1.0
C      1  0.5224860000000  0.4650130000000  0.5091870000000 1.0
C      1  0.5254950000000  0.4875120000000  0.5338280000000 1.0
C      1  0.5253700000000  0.5202670000000  0.5318680000000 1.0
C      1  0.5214040000000  0.5395000000000  0.5049840000000 1.0
C      1  0.4816700000000  0.5328470000000  0.5489280000000 1.0
C      1  0.4739590000000  0.5651830000000  0.5045150000000 1.0
C      1  0.4697040000000  0.5384390000000  0.4524250000000 1.0
C      1  0.4753940000000  0.4896530000000  0.4390560000000 1.0
C      1  0.4754870000000  0.4475210000000  0.4731910000000 1.0
C      1  0.4716450000000  0.4511760000000  0.5299550000000 1.0
C      1  0.4913030000000  0.4943740000000  0.5532800000000 1.0
C      1  0.4419610000000  0.4286720000000  0.4631850000000 1.0
C      1  0.4401230000000  0.4398380000000  0.5517380000000 1.0
C      1  0.4394320000000  0.5015820000000  0.5761170000000 1.0
C      1  0.4387960000000  0.5582360000000  0.5515700000000 1.0
C      1  0.4400860000000  0.5768160000000  0.4876580000000 1.0
C      1  0.4372160000000  0.5286610000000  0.4158930000000 1.0
C      1  0.4424630000000  0.4656020000000  0.4227230000000 1.0
C      1  0.4216970000000  0.5288410000000  0.4651810000000 1.0
C      1  0.4286870000000  0.4978220000000  0.4578190000000 1.0
C      1  0.4123510000000  0.4714660000000  0.4629830000000 1.0
C      1  0.4218910000000  0.4679450000000  0.5146000000000 1.0
C      1  0.4231310000000  0.4843620000000  0.5409820000000 1.0
C      1  0.4381380000000  0.5102150000000  0.5370810000000 1.0
C      1  0.4238770000000  0.5412030000000  0.4958580000000 1.0
C      1  0.4510420000000  0.5666520000000  0.4586470000000 1.0
C      1  0.4650710000000  0.5192120000000  0.4296400000000 1.0
C      1  0.4669030000000  0.4586560000000  0.4434080000000 1.0
C      1  0.4529070000000  0.4337150000000  0.4949780000000 1.0
C      1  0.4666630000000  0.4551140000000  0.5617860000000 1.0
C      1  0.4690220000000  0.5105210000000  0.5705050000000 1.0
C      1  0.4681780000000  0.5581590000000  0.5370970000000 1.0
C      1  0.5825560000000  0.5226540000000  0.4547740000000 1.0
C      1  0.5815300000000  0.4760580000000  0.4545030000000 1.0
C      1  0.5816440000000  0.4454210000000  0.4899620000000 1.0
C      1  0.5728820000000  0.4512160000000  0.5322920000000 1.0
C      1  0.5817250000000  0.4972250000000  0.5512440000000 1.0
C      1  0.5742620000000  0.5443820000000  0.5366710000000 1.0
C      1  0.5818790000000  0.5526500000000  0.4939820000000 1.0
C      1  0.5255170000000  0.4669550000000  0.5927550000000 1.0
C      1  0.5217540000000  0.5504110000000  0.5831120000000 1.0
C      1  0.5234730000000  0.5947950000000  0.5168010000000 1.0
C      1  0.5173520000000  0.5691770000000  0.4388060000000 1.0
C      1  0.5218720000000  0.4902310000000  0.4039670000000 1.0
C      1  0.5246100000000  0.4222340000000  0.4451530000000 1.0
C      1  0.5139450000000  0.4129230000000  0.5238280000000 1.0
C      1  0.6041410000000  0.4657510000000  0.4954970000000 1.0
C      1  0.6134450000000  0.4737100000000  0.5207360000000 1.0
C      1  0.6076770000000  0.4974380000000  0.5350250000000 1.0
C      1  0.6134200000000  0.5217730000000  0.5217880000000 1.0
C      1  0.6036430000000  0.5310690000000  0.4971590000000 1.0
C      1  0.6022850000000  0.5129600000000  0.4756240000000 1.0
C      1  0.6024220000000  0.4849970000000  0.4750120000000 1.0
C      1  0.4782870000000  0.4757350000000  0.5124580000000 1.0
C      1  0.4839250000000  0.4985000000000  0.5264420000000 1.0
C      1  0.4625250000000  0.5204630000000  0.5249820000000 1.0
C      1  0.4574300000000  0.5380880000000  0.5021510000000 1.0
C      1  0.4531810000000  0.5245340000000  0.4745690000000 1.0
C      1  0.4606550000000  0.4943300000000  0.4671620000000 1.0
C      1  0.4715460000000  0.4749090000000  0.4863740000000 1.0
C      1  0.5171170000000  0.4222870000000  0.5563770000000 1.0
C      1  0.5128940000000  0.4974810000000  0.6009020000000 1.0
C      1  0.5158300000000  0.5764480000000  0.5656900000000 1.0
C      1  0.5173660000000  0.5933120000000  0.4853310000000 1.0
C      1  0.5140210000000  0.5439040000000  0.4169510000000 1.0
C      1  0.5185640000000  0.4594570000000  0.4111480000000 1.0
C      1  0.5148750000000  0.4072280000000  0.4729230000000 1.0
C      1  0.4906160000000  0.5833930000000  0.5354420000000 1.0
C      1  0.4834190000000  0.5750080000000  0.4585940000000 1.0
C      1  0.4900050000000  0.5127020000000  0.4100640000000 1.0
C      1  0.4875980000000  0.4340980000000  0.4376070000000 1.0
C      1  0.4808570000000  0.4211950000000  0.5030740000000 1.0
C      1  0.4959290000000  0.4521950000000  0.5716650000000 1.0
C      1  0.4968730000000  0.5196870000000  0.5833600000000 1.0
C      1  0.5672480000000  0.4155270000000  0.4676310000000 1.0
C      1  0.5713550000000  0.4192600000000  0.5463000000000 1.0
C      1  0.5687660000000  0.4855520000000  0.5872330000000 1.0
C      1  0.5726810000000  0.5601310000000  0.5674530000000 1.0
C      1  0.5705050000000  0.5909460000000  0.4939130000000 1.0
C      1  0.5660770000000  0.5492390000000  0.4300720000000 1.0
C      1  0.5733900000000  0.4727900000000  0.4155570000000 1.0
C      1  0.4337100000000  0.4838880000000  0.4943950000000 1.0
END
