TITL C-2782233-7966-1116 0.00199406011018788 125000 -1051.74116136358 0 0 187 (C1) n - 1
REM
REM in /home/nfs/bkarasulu/CARBON/AIRSS/Generating-Clusters/REBO/Higher-Symm/SD-CG/HFTN-CG
REM
REM
REM
REM
REM
REM ./C.cell (12c818d87b63d06a65506943cc24bca4)
REM
REM compiler GCC version 9.2.1 20190827 (Red Hat 9.2.1-1)
REM options -cpp -mtune=generic -march=x86-64 -g -O0 -fpre-include=/usr/include/finclude/math-vector-fortran.h
REM seed 917761543 2053410330 -1905193466 -1217831208 -1243661408 -1306594588 1609624634 936666977 1738999396 -1831086368 -419317275 -643941066 960203269 1080312254 -2081644646 -1543168508 1538955036 -1665409990 -480569581 -551088313 783283623 -570694208 97868976 -1877272518 1004247688 -1807080451 1872727803 276309177 -253027837 2009110689 -1351581986 -1057757146 1714967169
REM
CELL 1.54180   50.00000   50.00000   50.00000   90.00000   90.00000   90.00000
LATT -1
SFAC C  
C      1  0.4151590000000  0.4462070000000  0.4515930000000 1.0
C      1  0.5760400000000  0.4519350000000  0.4557040000000 1.0
C      1  0.4962600000000  0.4471860000000  0.5918520000000 1.0
C      1  0.4430420000000  0.4918710000000  0.5583770000000 1.0
C      1  0.4801030000000  0.4902020000000  0.4185600000000 1.0
C      1  0.5792460000000  0.4970800000000  0.5261410000000 1.0
C      1  0.5231330000000  0.3824520000000  0.5041600000000 1.0
C      1  0.4756660000000  0.3860100000000  0.5137400000000 1.0
C      1  0.4913010000000  0.3693710000000  0.4633020000000 1.0
C      1  0.5422600000000  0.4228680000000  0.4593970000000 1.0
C      1  0.5081270000000  0.4301500000000  0.5547880000000 1.0
C      1  0.4479350000000  0.4174600000000  0.4762950000000 1.0
C      1  0.4545430000000  0.4463470000000  0.4906780000000 1.0
C      1  0.5329050000000  0.4529780000000  0.4622900000000 1.0
C      1  0.5201720000000  0.4587310000000  0.5475000000000 1.0
C      1  0.5116640000000  0.6036910000000  0.4570770000000 1.0
C      1  0.5347510000000  0.6066890000000  0.5323690000000 1.0
C      1  0.4586850000000  0.6026150000000  0.5213610000000 1.0
C      1  0.5524780000000  0.5402790000000  0.4663870000000 1.0
C      1  0.5068010000000  0.5416490000000  0.5642620000000 1.0
C      1  0.4496960000000  0.5378990000000  0.4736150000000 1.0
C      1  0.4267390000000  0.4926660000000  0.4120740000000 1.0
C      1  0.6093060000000  0.4880730000000  0.4834750000000 1.0
C      1  0.4636690000000  0.4935210000000  0.6064730000000 1.0
C      1  0.4533430000000  0.4897280000000  0.3984060000000 1.0
C      1  0.6098040000000  0.4917520000000  0.5137120000000 1.0
C      1  0.4389470000000  0.4902380000000  0.5920790000000 1.0
C      1  0.4730430000000  0.3849300000000  0.4429940000000 1.0
C      1  0.5535700000000  0.3924230000000  0.4993150000000 1.0
C      1  0.4703290000000  0.3935680000000  0.5465050000000 1.0
C      1  0.4855500000000  0.5446680000000  0.4110040000000 1.0
C      1  0.5896160000000  0.5514170000000  0.5326040000000 1.0
C      1  0.4355420000000  0.5451790000000  0.5598910000000 1.0
C      1  0.5445290000000  0.5574270000000  0.5848700000000 1.0
C      1  0.4111220000000  0.5512130000000  0.4982950000000 1.0
C      1  0.5525810000000  0.5545840000000  0.4193500000000 1.0
C      1  0.5122940000000  0.4324370000000  0.5090370000000 1.0
C      1  0.4856810000000  0.4375160000000  0.5217300000000 1.0
C      1  0.4936870000000  0.4165550000000  0.4774150000000 1.0
C      1  0.5559540000000  0.4804070000000  0.5787560000000 1.0
C      1  0.4182720000000  0.4771310000000  0.5154730000000 1.0
C      1  0.5298570000000  0.4796640000000  0.4176200000000 1.0
C      1  0.5123820000000  0.5049360000000  0.5494720000000 1.0
C      1  0.4436920000000  0.4923610000000  0.4759820000000 1.0
C      1  0.5342300000000  0.5049010000000  0.4695380000000 1.0
C      1  0.5559610000000  0.4931810000000  0.4892860000000 1.0
C      1  0.4835160000000  0.4890650000000  0.5580550000000 1.0
C      1  0.4600970000000  0.4872780000000  0.4524870000000 1.0
C      1  0.5441900000000  0.5236210000000  0.4090710000000 1.0
C      1  0.5434380000000  0.5277800000000  0.6017090000000 1.0
C      1  0.3996050000000  0.5200060000000  0.4982560000000 1.0
C      1  0.4322860000000  0.4168400000000  0.5058670000000 1.0
C      1  0.5262830000000  0.4111880000000  0.4326930000000 1.0
C      1  0.5393120000000  0.4154800000000  0.5526780000000 1.0
C      1  0.5002230000000  0.3992030000000  0.5599280000000 1.0
C      1  0.4494780000000  0.3942590000000  0.4537780000000 1.0
C      1  0.5606090000000  0.4004630000000  0.4705250000000 1.0
C      1  0.5055520000000  0.5347080000000  0.5335310000000 1.0
C      1  0.4783930000000  0.5397810000000  0.4863650000000 1.0
C      1  0.5257410000000  0.5361330000000  0.4822070000000 1.0
C      1  0.6020720000000  0.5027910000000  0.5514260000000 1.0
C      1  0.4104610000000  0.5021500000000  0.5557670000000 1.0
C      1  0.4970730000000  0.4985450000000  0.3908140000000 1.0
C      1  0.4870370000000  0.5928780000000  0.5722940000000 1.0
C      1  0.4458290000000  0.5875430000000  0.4529760000000 1.0
C      1  0.5710750000000  0.5890590000000  0.4740190000000 1.0
C      1  0.5162950000000  0.5838130000000  0.5160680000000 1.0
C      1  0.4766290000000  0.5826290000000  0.5040120000000 1.0
C      1  0.5125870000000  0.5851140000000  0.4858790000000 1.0
C      1  0.5798180000000  0.5441510000000  0.4378790000000 1.0
C      1  0.5139040000000  0.5526620000000  0.6017770000000 1.0
C      1  0.4109160000000  0.5416060000000  0.4650760000000 1.0
C      1  0.4696880000000  0.4504630000000  0.5891200000000 1.0
C      1  0.4322640000000  0.4519210000000  0.4311900000000 1.0
C      1  0.5858090000000  0.4558200000000  0.4802800000000 1.0
C      1  0.5418290000000  0.4715390000000  0.5063900000000 1.0
C      1  0.4722520000000  0.4651240000000  0.5368610000000 1.0
C      1  0.4860790000000  0.4685030000000  0.4584270000000 1.0
C      1  0.5259910000000  0.4075050000000  0.5237250000000 1.0
C      1  0.4642250000000  0.4157860000000  0.5142150000000 1.0
C      1  0.5085580000000  0.3971730000000  0.4557980000000 1.0
C      1  0.5678300000000  0.5551890000000  0.5593610000000 1.0
C      1  0.4177210000000  0.5538400000000  0.5319430000000 1.0
C      1  0.5188710000000  0.5545000000000  0.4107740000000 1.0
C      1  0.5410250000000  0.5238340000000  0.4416600000000 1.0
C      1  0.5307950000000  0.5227180000000  0.5717230000000 1.0
C      1  0.4326940000000  0.5187280000000  0.4895150000000 1.0
C      1  0.5193200000000  0.5703400000000  0.5674640000000 1.0
C      1  0.4370140000000  0.5645400000000  0.4841060000000 1.0
C      1  0.5492790000000  0.5663350000000  0.4495870000000 1.0
C      1  0.5609990000000  0.5414100000000  0.5224880000000 1.0
C      1  0.4491900000000  0.5294770000000  0.5340110000000 1.0
C      1  0.5002010000000  0.5307570000000  0.4364730000000 1.0
C      1  0.5113670000000  0.4615730000000  0.4400100000000 1.0
C      1  0.5489820000000  0.4556590000000  0.5357500000000 1.0
C      1  0.4452620000000  0.4565170000000  0.5218030000000 1.0
C      1  0.4575160000000  0.4582090000000  0.4112120000000 1.0
C      1  0.5922960000000  0.4622610000000  0.5115610000000 1.0
C      1  0.4388870000000  0.4589360000000  0.5801230000000 1.0
C      1  0.5456470000000  0.5792840000000  0.5495670000000 1.0
C      1  0.4393650000000  0.5749220000000  0.5160510000000 1.0
C      1  0.5197890000000  0.5774590000000  0.4364420000000 1.0
C      1  0.5539930000000  0.5720550000000  0.5098060000000 1.0
C      1  0.4703900000000  0.5729900000000  0.5420310000000 1.0
C      1  0.4833730000000  0.5753310000000  0.4474980000000 1.0
C      1  0.4858620000000  0.5014470000000  0.5901400000000 1.0
C      1  0.4284420000000  0.5015180000000  0.4402530000000 1.0
C      1  0.5833160000000  0.4971130000000  0.4691080000000 1.0
C      1  0.5093140000000  0.4462740000000  0.4105920000000 1.0
C      1  0.5691750000000  0.4584810000000  0.5614530000000 1.0
C      1  0.4173840000000  0.4420080000000  0.5335390000000 1.0
C      1  0.4485680000000  0.5259530000000  0.4146050000000 1.0
C      1  0.6009760000000  0.5268200000000  0.4966280000000 1.0
C      1  0.4542200000000  0.5292650000000  0.5912950000000 1.0
C      1  0.4716400000000  0.4274090000000  0.4538120000000 1.0
C      1  0.5422730000000  0.4268580000000  0.4933240000000 1.0
C      1  0.4740860000000  0.4275790000000  0.5515790000000 1.0
C      1  0.4310380000000  0.5600400000000  0.4451020000000 1.0
C      1  0.5855590000000  0.5625200000000  0.4659340000000 1.0
C      1  0.4881110000000  0.5677260000000  0.5917510000000 1.0
C      1  0.4885640000000  0.5559090000000  0.5213690000000 1.0
C      1  0.4941610000000  0.5625090000000  0.4745660000000 1.0
C      1  0.5264890000000  0.5531920000000  0.5052120000000 1.0
C      1  0.4022590000000  0.4400940000000  0.4753800000000 1.0
C      1  0.5613260000000  0.4467230000000  0.4335780000000 1.0
C      1  0.5232310000000  0.4438880000000  0.5891420000000 1.0
C      1  0.6087060000000  0.5239570000000  0.5263630000000 1.0
C      1  0.4258090000000  0.5198880000000  0.5805460000000 1.0
C      1  0.4704410000000  0.5195360000000  0.3935380000000 1.0
C      1  0.4588060000000  0.5480110000000  0.5131310000000 1.0
C      1  0.5132510000000  0.5496850000000  0.4535750000000 1.0
C      1  0.5350130000000  0.5500160000000  0.5371850000000 1.0
C      1  0.4301230000000  0.4663880000000  0.4863910000000 1.0
C      1  0.5454510000000  0.4803940000000  0.4480920000000 1.0
C      1  0.5236710000000  0.4796830000000  0.5714610000000 1.0
C      1  0.4998790000000  0.6225430000000  0.4821590000000 1.0
C      1  0.5137520000000  0.6233710000000  0.5119950000000 1.0
C      1  0.4809130000000  0.6217270000000  0.5097970000000 1.0
C      1  0.5598660000000  0.4957800000000  0.4210520000000 1.0
C      1  0.5340040000000  0.4949950000000  0.6000890000000 1.0
C      1  0.4052060000000  0.4899490000000  0.4862730000000 1.0
C      1  0.4018040000000  0.5235380000000  0.5320210000000 1.0
C      1  0.5158790000000  0.5240500000000  0.3950970000000 1.0
C      1  0.5762720000000  0.5227140000000  0.5566690000000 1.0
C      1  0.4182810000000  0.4688160000000  0.5545030000000 1.0
C      1  0.4882700000000  0.4660850000000  0.3976060000000 1.0
C      1  0.5916850000000  0.4711340000000  0.5444270000000 1.0
C      1  0.4642520000000  0.5144690000000  0.5555310000000 1.0
C      1  0.4770510000000  0.5118200000000  0.4388280000000 1.0
C      1  0.5646160000000  0.5161690000000  0.5094470000000 1.0
C      1  0.5860090000000  0.5635200000000  0.5005240000000 1.0
C      1  0.4594250000000  0.5643150000000  0.5730430000000 1.0
C      1  0.4604320000000  0.5614390000000  0.4269150000000 1.0
C      1  0.4819070000000  0.5315170000000  0.5765030000000 1.0
C      1  0.4499210000000  0.5253320000000  0.4461100000000 1.0
C      1  0.5748610000000  0.5269650000000  0.4799970000000 1.0
C      1  0.4863550000000  0.4492260000000  0.4835880000000 1.0
C      1  0.5189030000000  0.4582610000000  0.4899510000000 1.0
C      1  0.5031260000000  0.4730750000000  0.5271830000000 1.0
C      1  0.4573560000000  0.5970040000000  0.5622730000000 1.0
C      1  0.4645970000000  0.5957290000000  0.4285530000000 1.0
C      1  0.5769510000000  0.5965000000000  0.5039760000000 1.0
C      1  0.5030720000000  0.4945170000000  0.4634490000000 1.0
C      1  0.5389560000000  0.4940060000000  0.5306010000000 1.0
C      1  0.4546320000000  0.4903620000000  0.5069140000000 1.0
C      1  0.5145820000000  0.5004330000000  0.5098900000000 1.0
C      1  0.4822440000000  0.4935000000000  0.5105060000000 1.0
C      1  0.4935080000000  0.5133890000000  0.4875670000000 1.0
C      1  0.4929510000000  0.4070300000000  0.4270000000000 1.0
C      1  0.5596950000000  0.4122780000000  0.5257040000000 1.0
C      1  0.4412810000000  0.4098890000000  0.5379450000000 1.0
C      1  0.5391180000000  0.4379280000000  0.4213880000000 1.0
C      1  0.5444380000000  0.4386840000000  0.5726670000000 1.0
C      1  0.4071770000000  0.4347430000000  0.5018630000000 1.0
C      1  0.4073190000000  0.5114600000000  0.4599680000000 1.0
C      1  0.5796650000000  0.5138120000000  0.4408410000000 1.0
C      1  0.5102490000000  0.5189090000000  0.6055940000000 1.0
C      1  0.5158150000000  0.5032790000000  0.4341950000000 1.0
C      1  0.5515510000000  0.5047860000000  0.5574670000000 1.0
C      1  0.4299770000000  0.5086540000000  0.5215420000000 1.0
C      1  0.4613000000000  0.5848090000000  0.4793290000000 1.0
C      1  0.5406900000000  0.5911400000000  0.4675390000000 1.0
C      1  0.5080250000000  0.5925260000000  0.5479510000000 1.0
C      1  0.5668200000000  0.4410580000000  0.5121350000000 1.0
C      1  0.4418030000000  0.4367530000000  0.5569980000000 1.0
C      1  0.4791430000000  0.4365900000000  0.4230130000000 1.0
C      1  0.4959400000000  0.3855300000000  0.4916720000000 1.0
END
