TITL C-2782229-3092-1398 0.00125709678866705 125000 -929.76771631102 0 0 164 (C1) n - 1
REM
REM in /home/nfs/bkarasulu/CARBON/AIRSS/Generating-Clusters/REBO/Higher-Symm/SD-CG/HFTN-CG
REM
REM
REM
REM
REM
REM ./C.cell (12c818d87b63d06a65506943cc24bca4)
REM
REM compiler GCC version 9.2.1 20190827 (Red Hat 9.2.1-1)
REM options -cpp -mtune=generic -march=x86-64 -g -O0 -fpre-include=/usr/include/finclude/math-vector-fortran.h
REM seed -390555152 -1120647551 1905340476 228505455 2029150883 -609314779 -1908511649 -1999944490 -1305162652 -518804321 278470285 1429425101 1614215583 247436260 -32113869 271708249 -944112281 -2045512528 -513663616 2059447133 -1666325773 36125069 -553102803 -1368785720 1112720244 -1268594648 1041518214 1889371174 252336457 -1188219198 -1888302147 937548210 -2024137674
REM
CELL 1.54180   50.00000   50.00000   50.00000   90.00000   90.00000   90.00000
LATT -1
SFAC C  
C      1  0.4216350000000  0.4662460000000  0.5675770000000 1.0
C      1  0.5166060000000  0.5819790000000  0.5648630000000 1.0
C      1  0.5658020000000  0.4453570000000  0.5701830000000 1.0
C      1  0.4190790000000  0.4674630000000  0.4325000000000 1.0
C      1  0.5087320000000  0.5866640000000  0.4300820000000 1.0
C      1  0.5649550000000  0.4458030000000  0.4345420000000 1.0
C      1  0.5792500000000  0.4666220000000  0.5675770000000 1.0
C      1  0.4916680000000  0.5833250000000  0.5688980000000 1.0
C      1  0.4363550000000  0.4458660000000  0.5651810000000 1.0
C      1  0.5810860000000  0.4650560000000  0.4319470000000 1.0
C      1  0.4837180000000  0.5868200000000  0.4337570000000 1.0
C      1  0.4328790000000  0.4465140000000  0.4305380000000 1.0
C      1  0.4488970000000  0.5072720000000  0.5497260000000 1.0
C      1  0.5252540000000  0.5424310000000  0.5485680000000 1.0
C      1  0.5146150000000  0.4555120000000  0.5527970000000 1.0
C      1  0.4447310000000  0.4971220000000  0.4437360000000 1.0
C      1  0.5339280000000  0.5383130000000  0.4444360000000 1.0
C      1  0.5217880000000  0.4584060000000  0.4498030000000 1.0
C      1  0.5502420000000  0.4965470000000  0.5523800000000 1.0
C      1  0.4687510000000  0.5356920000000  0.5509750000000 1.0
C      1  0.4799750000000  0.4566170000000  0.5494980000000 1.0
C      1  0.5528820000000  0.5090480000000  0.4466140000000 1.0
C      1  0.4746780000000  0.5474610000000  0.4467650000000 1.0
C      1  0.4872190000000  0.4559330000000  0.4470310000000 1.0
C      1  0.5132320000000  0.4409200000000  0.5152870000000 1.0
C      1  0.4414070000000  0.5163450000000  0.5117790000000 1.0
C      1  0.5406650000000  0.5399850000000  0.5118130000000 1.0
C      1  0.5201880000000  0.4372130000000  0.4835210000000 1.0
C      1  0.4362800000000  0.5137330000000  0.4806420000000 1.0
C      1  0.5478270000000  0.5472550000000  0.4808540000000 1.0
C      1  0.4811860000000  0.4359570000000  0.5154000000000 1.0
C      1  0.5603070000000  0.5144040000000  0.5181370000000 1.0
C      1  0.4522840000000  0.5468000000000  0.5162720000000 1.0
C      1  0.4884410000000  0.4416100000000  0.4842500000000 1.0
C      1  0.5585070000000  0.5165590000000  0.4851850000000 1.0
C      1  0.4566270000000  0.5413830000000  0.4846560000000 1.0
C      1  0.5288500000000  0.4109590000000  0.4691390000000 1.0
C      1  0.4101860000000  0.5149060000000  0.4662800000000 1.0
C      1  0.5679610000000  0.5626380000000  0.4625520000000 1.0
C      1  0.5225150000000  0.4156220000000  0.5312210000000 1.0
C      1  0.4155690000000  0.5235380000000  0.5282470000000 1.0
C      1  0.5608380000000  0.5536990000000  0.5318020000000 1.0
C      1  0.4784110000000  0.4147180000000  0.4703500000000 1.0
C      1  0.5823000000000  0.5308880000000  0.4691890000000 1.0
C      1  0.4363130000000  0.5579020000000  0.4664660000000 1.0
C      1  0.4724270000000  0.4129030000000  0.5329110000000 1.0
C      1  0.5801420000000  0.5249240000000  0.5401700000000 1.0
C      1  0.4349000000000  0.5690570000000  0.5284180000000 1.0
C      1  0.5975590000000  0.5440740000000  0.5198060000000 1.0
C      1  0.4822130000000  0.3894340000000  0.5186110000000 1.0
C      1  0.4107990000000  0.5699360000000  0.5126560000000 1.0
C      1  0.6057640000000  0.5379640000000  0.4902190000000 1.0
C      1  0.4870120000000  0.3918450000000  0.4867310000000 1.0
C      1  0.4113050000000  0.5621560000000  0.4812400000000 1.0
C      1  0.3982680000000  0.5407590000000  0.5121210000000 1.0
C      1  0.5136980000000  0.3917440000000  0.5163490000000 1.0
C      1  0.5818150000000  0.5724450000000  0.5165530000000 1.0
C      1  0.3944790000000  0.5351190000000  0.4805040000000 1.0
C      1  0.5184490000000  0.3890240000000  0.4846980000000 1.0
C      1  0.5892970000000  0.5656500000000  0.4873220000000 1.0
C      1  0.4254080000000  0.5302190000000  0.5581930000000 1.0
C      1  0.5551990000000  0.5465340000000  0.5627350000000 1.0
C      1  0.5175070000000  0.4227120000000  0.5626440000000 1.0
C      1  0.4196790000000  0.5188140000000  0.4360550000000 1.0
C      1  0.5568190000000  0.5610710000000  0.4320340000000 1.0
C      1  0.5167130000000  0.4257840000000  0.4436380000000 1.0
C      1  0.5697090000000  0.5166020000000  0.5701570000000 1.0
C      1  0.4437900000000  0.5583480000000  0.5576290000000 1.0
C      1  0.4836300000000  0.4244400000000  0.5603200000000 1.0
C      1  0.5748060000000  0.5326980000000  0.4370910000000 1.0
C      1  0.4355030000000  0.5485930000000  0.4372660000000 1.0
C      1  0.4831350000000  0.4227770000000  0.4391900000000 1.0
C      1  0.5254200000000  0.4430640000000  0.5888870000000 1.0
C      1  0.4477150000000  0.5273600000000  0.5837080000000 1.0
C      1  0.5463600000000  0.5381440000000  0.5941560000000 1.0
C      1  0.5086460000000  0.4434460000000  0.4157700000000 1.0
C      1  0.4454170000000  0.5240070000000  0.4143620000000 1.0
C      1  0.5348940000000  0.5537840000000  0.4076700000000 1.0
C      1  0.4932560000000  0.4453560000000  0.5849370000000 1.0
C      1  0.5615540000000  0.5100540000000  0.6022300000000 1.0
C      1  0.4639880000000  0.5556660000000  0.5849940000000 1.0
C      1  0.4764730000000  0.4416840000000  0.4115730000000 1.0
C      1  0.5531360000000  0.5269860000000  0.4114420000000 1.0
C      1  0.4617340000000  0.5538280000000  0.4161060000000 1.0
C      1  0.4519010000000  0.4576700000000  0.5302920000000 1.0
C      1  0.4821710000000  0.5631930000000  0.5357230000000 1.0
C      1  0.5636990000000  0.4775680000000  0.5323920000000 1.0
C      1  0.4569370000000  0.4505240000000  0.4622240000000 1.0
C      1  0.4847180000000  0.5662790000000  0.4680510000000 1.0
C      1  0.5684040000000  0.4845480000000  0.4644350000000 1.0
C      1  0.5446200000000  0.4510870000000  0.5367940000000 1.0
C      1  0.5142680000000  0.5640170000000  0.5292030000000 1.0
C      1  0.4341080000000  0.4842160000000  0.5341300000000 1.0
C      1  0.5491640000000  0.4591770000000  0.4687520000000 1.0
C      1  0.5179180000000  0.5634190000000  0.4612520000000 1.0
C      1  0.4380240000000  0.4766910000000  0.4664510000000 1.0
C      1  0.4699110000000  0.5025100000000  0.5759130000000 1.0
C      1  0.5166930000000  0.5306750000000  0.5795610000000 1.0
C      1  0.5188150000000  0.4754560000000  0.5802930000000 1.0
C      1  0.4680870000000  0.4990040000000  0.4186990000000 1.0
C      1  0.5139920000000  0.5291140000000  0.4181960000000 1.0
C      1  0.5176720000000  0.4759250000000  0.4215600000000 1.0
C      1  0.5347690000000  0.5017980000000  0.5827890000000 1.0
C      1  0.4871050000000  0.5312090000000  0.5794890000000 1.0
C      1  0.4850930000000  0.4772750000000  0.5759430000000 1.0
C      1  0.5323990000000  0.5013430000000  0.4205360000000 1.0
C      1  0.4847430000000  0.5287450000000  0.4194380000000 1.0
C      1  0.4838000000000  0.4743440000000  0.4184590000000 1.0
C      1  0.6148700000000  0.4713150000000  0.5132510000000 1.0
C      1  0.4273830000000  0.4114100000000  0.5103830000000 1.0
C      1  0.4625430000000  0.6102350000000  0.5173420000000 1.0
C      1  0.6160670000000  0.4725480000000  0.4860950000000 1.0
C      1  0.4279530000000  0.4102730000000  0.4832850000000 1.0
C      1  0.4631120000000  0.6115850000000  0.4901800000000 1.0
C      1  0.3848300000000  0.4743250000000  0.5147130000000 1.0
C      1  0.5707480000000  0.4090490000000  0.5164090000000 1.0
C      1  0.5386170000000  0.6091330000000  0.5101780000000 1.0
C      1  0.3855150000000  0.4735430000000  0.4876060000000 1.0
C      1  0.5711450000000  0.4109600000000  0.4893300000000 1.0
C      1  0.5391270000000  0.6089790000000  0.4829940000000 1.0
C      1  0.5203430000000  0.5270570000000  0.4799950000000 1.0
C      1  0.5154450000000  0.4709790000000  0.4865690000000 1.0
C      1  0.4673490000000  0.5023210000000  0.4847870000000 1.0
C      1  0.5102730000000  0.5279650000000  0.5126520000000 1.0
C      1  0.5173110000000  0.4745510000000  0.5197700000000 1.0
C      1  0.4681800000000  0.4957410000000  0.5172180000000 1.0
C      1  0.4877420000000  0.5284380000000  0.4799920000000 1.0
C      1  0.4828560000000  0.4750290000000  0.4798650000000 1.0
C      1  0.5323620000000  0.4962330000000  0.4763030000000 1.0
C      1  0.4796760000000  0.5267550000000  0.5138020000000 1.0
C      1  0.4855670000000  0.4695690000000  0.5127360000000 1.0
C      1  0.5304490000000  0.5008650000000  0.5084600000000 1.0
C      1  0.5947060000000  0.4736520000000  0.5402180000000 1.0
C      1  0.4379250000000  0.4285490000000  0.5377570000000 1.0
C      1  0.4715790000000  0.5923160000000  0.5448600000000 1.0
C      1  0.5984930000000  0.4763220000000  0.4571710000000 1.0
C      1  0.4386500000000  0.4252660000000  0.4546850000000 1.0
C      1  0.4709870000000  0.5947590000000  0.4622590000000 1.0
C      1  0.4039620000000  0.4774310000000  0.5426610000000 1.0
C      1  0.5617180000000  0.4252180000000  0.5449440000000 1.0
C      1  0.5296420000000  0.5911190000000  0.5369180000000 1.0
C      1  0.4051740000000  0.4775010000000  0.4604260000000 1.0
C      1  0.5617680000000  0.4290360000000  0.4621590000000 1.0
C      1  0.5293740000000  0.5931740000000  0.4544480000000 1.0
C      1  0.5934860000000  0.4226620000000  0.5335300000000 1.0
C      1  0.3904340000000  0.4483780000000  0.5317700000000 1.0
C      1  0.5146060000000  0.6193110000000  0.5289230000000 1.0
C      1  0.5934680000000  0.4252240000000  0.4715890000000 1.0
C      1  0.3914610000000  0.4482170000000  0.4690310000000 1.0
C      1  0.5145900000000  0.6209140000000  0.4672930000000 1.0
C      1  0.4059450000000  0.4260790000000  0.5288700000000 1.0
C      1  0.6086980000000  0.4452170000000  0.5307080000000 1.0
C      1  0.4876600000000  0.6200470000000  0.5336210000000 1.0
C      1  0.4065050000000  0.4256640000000  0.4659180000000 1.0
C      1  0.6100240000000  0.4467590000000  0.4689070000000 1.0
C      1  0.4876620000000  0.6214310000000  0.4719950000000 1.0
C      1  0.4527210000000  0.4543240000000  0.4959270000000 1.0
C      1  0.5482440000000  0.4555250000000  0.5031370000000 1.0
C      1  0.5655340000000  0.4801250000000  0.4982430000000 1.0
C      1  0.4849640000000  0.5644660000000  0.5021300000000 1.0
C      1  0.4359840000000  0.4788470000000  0.5005610000000 1.0
C      1  0.5141220000000  0.5635730000000  0.4948670000000 1.0
C      1  0.4614420000000  0.5213680000000  0.4508210000000 1.0
C      1  0.5246860000000  0.5117500000000  0.5456520000000 1.0
END
