TITL C-2782239-8622-1444 0.000390185195505313 125000 -265.506907221315 0 0 48 (C1) n - 1
REM
REM in /home/nfs/bkarasulu/CARBON/AIRSS/Generating-Clusters/REBO/Higher-Symm/SD-CG/HFTN-CG
REM
REM
REM
REM
REM
REM ./C.cell (12c818d87b63d06a65506943cc24bca4)
REM
REM compiler GCC version 9.2.1 20190827 (Red Hat 9.2.1-1)
REM options -cpp -mtune=generic -march=x86-64 -g -O0 -fpre-include=/usr/include/finclude/math-vector-fortran.h
REM seed -904722969 -7028471 2139449131 -856516413 1268169981 -1392705033 -1704105285 -588744154 -1666303986 1478894748 1702818383 -1521546531 -646553476 1491000500 667031787 -2091224920 2087489856 882676353 1460704249 -1400688878 -705804136 -372722803 -1474418820 -1037762897 19231805 -1675619492 1889359784 1603009805 1398966334 -109160772 1566558952 -482216571 -790733608
REM
CELL 1.54180   50.00000   50.00000   50.00000   90.00000   90.00000   90.00000
LATT -1
SFAC C  
C      1  0.4848930000000  0.3768240000000  0.5084180000000 1.0
C      1  0.4669240000000  0.3607020000000  0.4803780000000 1.0
C      1  0.4623930000000  0.3875540000000  0.4554020000000 1.0
C      1  0.4871110000000  0.4133190000000  0.4645400000000 1.0
C      1  0.5020960000000  0.4006710000000  0.4953590000000 1.0
C      1  0.4880400000000  0.6265080000000  0.4603550000000 1.0
C      1  0.4965720000000  0.6491550000000  0.4468670000000 1.0
C      1  0.4409970000000  0.6224770000000  0.4411020000000 1.0
C      1  0.4456490000000  0.6356940000000  0.4930280000000 1.0
C      1  0.4527370000000  0.6003510000000  0.4891700000000 1.0
C      1  0.4514350000000  0.3395370000000  0.4835840000000 1.0
C      1  0.4419780000000  0.3905570000000  0.4396580000000 1.0
C      1  0.4908450000000  0.4388250000000  0.4585120000000 1.0
C      1  0.5195880000000  0.4203030000000  0.5074410000000 1.0
C      1  0.4805010000000  0.3672770000000  0.5324930000000 1.0
C      1  0.5046420000000  0.6705770000000  0.4341090000000 1.0
C      1  0.4259690000000  0.6223460000000  0.4204770000000 1.0
C      1  0.4366710000000  0.6543220000000  0.5089440000000 1.0
C      1  0.4582580000000  0.5765090000000  0.4992730000000 1.0
C      1  0.5051820000000  0.6066670000000  0.4696050000000 1.0
C      1  0.5108190000000  0.4877790000000  0.4632180000000 1.0
C      1  0.5418590000000  0.4681900000000  0.5118330000000 1.0
C      1  0.4936530000000  0.4308530000000  0.5844030000000 1.0
C      1  0.5655180000000  0.5458160000000  0.5191310000000 1.0
C      1  0.5019340000000  0.4921540000000  0.5338420000000 1.0
C      1  0.5319490000000  0.5303470000000  0.4521010000000 1.0
C      1  0.4855350000000  0.5330430000000  0.5126800000000 1.0
C      1  0.5306170000000  0.5650510000000  0.4910950000000 1.0
C      1  0.4881330000000  0.3899850000000  0.6181100000000 1.0
C      1  0.5762330000000  0.5025850000000  0.5158980000000 1.0
C      1  0.6006010000000  0.5102260000000  0.5217840000000 1.0
C      1  0.4854160000000  0.3698770000000  0.6346950000000 1.0
C      1  0.5186610000000  0.5860900000000  0.4799070000000 1.0
C      1  0.4697670000000  0.5537900000000  0.5071430000000 1.0
C      1  0.5393180000000  0.5485960000000  0.4347950000000 1.0
C      1  0.4991740000000  0.4717210000000  0.5506960000000 1.0
C      1  0.5870600000000  0.5481360000000  0.5338750000000 1.0
C      1  0.4964130000000  0.4512870000000  0.5675490000000 1.0
C      1  0.5320260000000  0.4434090000000  0.5116540000000 1.0
C      1  0.4994060000000  0.4641120000000  0.4586990000000 1.0
C      1  0.5504400000000  0.4944980000000  0.5096680000000 1.0
C      1  0.5427080000000  0.5433600000000  0.5035170000000 1.0
C      1  0.5048080000000  0.5134290000000  0.5162950000000 1.0
C      1  0.4908930000000  0.4104190000000  0.6012560000000 1.0
C      1  0.5241490000000  0.5110330000000  0.4704170000000 1.0
C      1  0.4914020000000  0.3805280000000  0.4709490000000 1.0
C      1  0.4588180000000  0.6226310000000  0.4655590000000 1.0
C      1  0.5305340000000  0.5155590000000  0.4999610000000 1.0
END
