TITL C-2782228-2999-356 0.000707270088460991 125000 -1025.09825544371 0 0 176 (C1) n - 1
REM
REM in /home/nfs/bkarasulu/CARBON/AIRSS/Generating-Clusters/REBO/Higher-Symm/SD-CG/HFTN-CG
REM
REM
REM
REM
REM
REM ./C.cell (12c818d87b63d06a65506943cc24bca4)
REM
REM compiler GCC version 9.2.1 20190827 (Red Hat 9.2.1-1)
REM options -cpp -mtune=generic -march=x86-64 -g -O0 -fpre-include=/usr/include/finclude/math-vector-fortran.h
REM seed 1378194568 -1099015509 -104754123 -429991501 655773829 -1069739373 1794683495 23451433 -422681524 -1814393676 438351207 1247403926 -90380512 2071542523 1387482919 1228144541 -929226257 2063649475 1240589655 1310442885 582419012 594709145 -438132184 1955957869 1683743786 -123683798 -1685922245 -904138346 1749701681 1766710120 869948225 -1952708652 -2110075767
REM
CELL 1.54180   50.00000   50.00000   50.00000   90.00000   90.00000   90.00000
LATT -1
SFAC C  
C      1  0.4609660000000  0.4776380000000  0.5952480000000 1.0
C      1  0.5045060000000  0.5412400000000  0.5985110000000 1.0
C      1  0.5359740000000  0.4720520000000  0.6008810000000 1.0
C      1  0.4592090000000  0.5197190000000  0.3999630000000 1.0
C      1  0.4973410000000  0.4593670000000  0.4025130000000 1.0
C      1  0.5338330000000  0.5246720000000  0.3980710000000 1.0
C      1  0.4844200000000  0.4853360000000  0.5519810000000 1.0
C      1  0.5020270000000  0.5141260000000  0.5525350000000 1.0
C      1  0.5176120000000  0.4839130000000  0.5498010000000 1.0
C      1  0.4831090000000  0.5073540000000  0.4476020000000 1.0
C      1  0.5036850000000  0.4802340000000  0.4444620000000 1.0
C      1  0.5153860000000  0.5127860000000  0.4446400000000 1.0
C      1  0.4484810000000  0.4319730000000  0.4305930000000 1.0
C      1  0.4686850000000  0.5884960000000  0.4303180000000 1.0
C      1  0.5880810000000  0.4793440000000  0.4257570000000 1.0
C      1  0.4454520000000  0.5639110000000  0.5664720000000 1.0
C      1  0.4673440000000  0.4129610000000  0.5746300000000 1.0
C      1  0.5832630000000  0.5134420000000  0.5736010000000 1.0
C      1  0.6026320000000  0.5156830000000  0.5170110000000 1.0
C      1  0.4577880000000  0.4010710000000  0.5120610000000 1.0
C      1  0.4229570000000  0.5920250000000  0.5167240000000 1.0
C      1  0.6110420000000  0.4766870000000  0.4853620000000 1.0
C      1  0.4654370000000  0.6163010000000  0.4842900000000 1.0
C      1  0.4386240000000  0.4158810000000  0.4914440000000 1.0
C      1  0.4594260000000  0.5255840000000  0.4843500000000 1.0
C      1  0.5369840000000  0.5225670000000  0.4857520000000 1.0
C      1  0.5084540000000  0.4504230000000  0.4875360000000 1.0
C      1  0.4654300000000  0.4727330000000  0.5191120000000 1.0
C      1  0.5423750000000  0.4847340000000  0.5018730000000 1.0
C      1  0.5080980000000  0.5557790000000  0.5269850000000 1.0
C      1  0.5012610000000  0.4837330000000  0.4839750000000 1.0
C      1  0.4887380000000  0.5338680000000  0.4851060000000 1.0
C      1  0.5100420000000  0.5119720000000  0.4766030000000 1.0
C      1  0.4997680000000  0.5288380000000  0.5147660000000 1.0
C      1  0.4975810000000  0.4773840000000  0.5153350000000 1.0
C      1  0.5176420000000  0.5032160000000  0.5148210000000 1.0
C      1  0.4810010000000  0.4790790000000  0.3907460000000 1.0
C      1  0.4853200000000  0.5264360000000  0.3910150000000 1.0
C      1  0.5240390000000  0.4988690000000  0.3914660000000 1.0
C      1  0.4835780000000  0.5199700000000  0.6072720000000 1.0
C      1  0.4869210000000  0.4723050000000  0.6059890000000 1.0
C      1  0.5267400000000  0.4988820000000  0.6088900000000 1.0
C      1  0.5186960000000  0.5697630000000  0.5029300000000 1.0
C      1  0.5524290000000  0.4357200000000  0.5111450000000 1.0
C      1  0.4411460000000  0.4853380000000  0.5042940000000 1.0
C      1  0.5280980000000  0.4254270000000  0.4972130000000 1.0
C      1  0.5392720000000  0.5533140000000  0.4934070000000 1.0
C      1  0.4370380000000  0.5108780000000  0.4979380000000 1.0
C      1  0.5809760000000  0.5426650000000  0.4858040000000 1.0
C      1  0.4930370000000  0.4065440000000  0.4940610000000 1.0
C      1  0.4227080000000  0.5516100000000  0.4901890000000 1.0
C      1  0.5821340000000  0.4622920000000  0.5109140000000 1.0
C      1  0.4973640000000  0.6128260000000  0.4966240000000 1.0
C      1  0.4243750000000  0.4460760000000  0.5134070000000 1.0
C      1  0.4374400000000  0.5362650000000  0.5807540000000 1.0
C      1  0.5580760000000  0.5324770000000  0.5865390000000 1.0
C      1  0.4964890000000  0.4221670000000  0.5895780000000 1.0
C      1  0.4366340000000  0.4595660000000  0.4145850000000 1.0
C      1  0.5588770000000  0.4636530000000  0.4181160000000 1.0
C      1  0.4975310000000  0.5751200000000  0.4179580000000 1.0
C      1  0.4000480000000  0.4567930000000  0.5722760000000 1.0
C      1  0.5032660000000  0.6122440000000  0.5761720000000 1.0
C      1  0.5572890000000  0.4421960000000  0.5374260000000 1.0
C      1  0.4130120000000  0.5588520000000  0.4230140000000 1.0
C      1  0.5256210000000  0.4041640000000  0.4707270000000 1.0
C      1  0.5893880000000  0.5603940000000  0.4302910000000 1.0
C      1  0.4666200000000  0.4827120000000  0.4590040000000 1.0
C      1  0.5010620000000  0.5507770000000  0.4513020000000 1.0
C      1  0.5371410000000  0.4805500000000  0.4509660000000 1.0
C      1  0.4635110000000  0.5091540000000  0.5434720000000 1.0
C      1  0.5084010000000  0.4539640000000  0.5458820000000 1.0
C      1  0.5346010000000  0.5195660000000  0.5471370000000 1.0
C      1  0.5339320000000  0.5250160000000  0.5993960000000 1.0
C      1  0.5089050000000  0.4502840000000  0.5991160000000 1.0
C      1  0.4546930000000  0.5113050000000  0.5962160000000 1.0
C      1  0.5294910000000  0.4700480000000  0.4052200000000 1.0
C      1  0.5083770000000  0.5476790000000  0.4006290000000 1.0
C      1  0.4516590000000  0.4861910000000  0.4018030000000 1.0
C      1  0.4204970000000  0.5804770000000  0.4908720000000 1.0
C      1  0.6051070000000  0.5261280000000  0.4898300000000 1.0
C      1  0.4733200000000  0.3824870000000  0.4905210000000 1.0
C      1  0.4138860000000  0.4179730000000  0.5143350000000 1.0
C      1  0.6121650000000  0.4689210000000  0.5145390000000 1.0
C      1  0.4734670000000  0.6167290000000  0.5172280000000 1.0
C      1  0.4737940000000  0.3935670000000  0.4617190000000 1.0
C      1  0.4257880000000  0.5878430000000  0.4629570000000 1.0
C      1  0.6002890000000  0.5195680000000  0.4595170000000 1.0
C      1  0.4663140000000  0.6040510000000  0.5409130000000 1.0
C      1  0.4234990000000  0.4203600000000  0.5439910000000 1.0
C      1  0.6007750000000  0.4733830000000  0.5442750000000 1.0
C      1  0.6000450000000  0.5025000000000  0.5482970000000 1.0
C      1  0.4511640000000  0.4084440000000  0.5448550000000 1.0
C      1  0.4436330000000  0.5843430000000  0.5391100000000 1.0
C      1  0.6029450000000  0.4900800000000  0.4547030000000 1.0
C      1  0.4511740000000  0.6025200000000  0.4564350000000 1.0
C      1  0.4515910000000  0.4142290000000  0.4596480000000 1.0
C      1  0.4419940000000  0.5429910000000  0.4633120000000 1.0
C      1  0.5619160000000  0.5282120000000  0.4658720000000 1.0
C      1  0.4876880000000  0.4306840000000  0.4704810000000 1.0
C      1  0.4462030000000  0.4521300000000  0.5362160000000 1.0
C      1  0.5607540000000  0.4789070000000  0.5220500000000 1.0
C      1  0.4821170000000  0.5676020000000  0.5387490000000 1.0
C      1  0.5655880000000  0.5570760000000  0.5043950000000 1.0
C      1  0.5125530000000  0.4056260000000  0.5164240000000 1.0
C      1  0.4184820000000  0.5297730000000  0.5074320000000 1.0
C      1  0.5753840000000  0.4386220000000  0.4929680000000 1.0
C      1  0.5145550000000  0.5929110000000  0.4881810000000 1.0
C      1  0.4225750000000  0.4666680000000  0.4954970000000 1.0
C      1  0.4886020000000  0.5644080000000  0.4755320000000 1.0
C      1  0.5529390000000  0.4780380000000  0.4771850000000 1.0
C      1  0.4716790000000  0.4661410000000  0.4870960000000 1.0
C      1  0.4938320000000  0.4445870000000  0.5183920000000 1.0
C      1  0.5474590000000  0.5210110000000  0.5171720000000 1.0
C      1  0.4671200000000  0.5277500000000  0.5179130000000 1.0
C      1  0.4779080000000  0.4216560000000  0.5276230000000 1.0
C      1  0.4541600000000  0.5536140000000  0.5289530000000 1.0
C      1  0.5759540000000  0.5258050000000  0.5267690000000 1.0
C      1  0.4798050000000  0.5908190000000  0.4685120000000 1.0
C      1  0.4510460000000  0.4440070000000  0.4790020000000 1.0
C      1  0.5813940000000  0.4717630000000  0.4721250000000 1.0
C      1  0.4314210000000  0.4970140000000  0.5768740000000 1.0
C      1  0.5225280000000  0.5584860000000  0.5752260000000 1.0
C      1  0.5376150000000  0.4447270000000  0.5821010000000 1.0
C      1  0.4361850000000  0.5026970000000  0.4273530000000 1.0
C      1  0.5242310000000  0.4486220000000  0.4311500000000 1.0
C      1  0.5335720000000  0.5579490000000  0.4198480000000 1.0
C      1  0.5187710000000  0.5969250000000  0.4332170000000 1.0
C      1  0.5620970000000  0.4381710000000  0.4389260000000 1.0
C      1  0.4124130000000  0.4641920000000  0.4367050000000 1.0
C      1  0.5154720000000  0.4034150000000  0.5693220000000 1.0
C      1  0.5646880000000  0.5593780000000  0.5668920000000 1.0
C      1  0.4102750000000  0.5295850000000  0.5645770000000 1.0
C      1  0.5585780000000  0.4708520000000  0.5758290000000 1.0
C      1  0.4516690000000  0.4592140000000  0.5749740000000 1.0
C      1  0.4894190000000  0.5611660000000  0.5769680000000 1.0
C      1  0.5558910000000  0.5247370000000  0.4158380000000 1.0
C      1  0.4483490000000  0.5310320000000  0.4256870000000 1.0
C      1  0.4857930000000  0.4437400000000  0.4214180000000 1.0
C      1  0.4863490000000  0.5914620000000  0.5624660000000 1.0
C      1  0.5768650000000  0.4583500000000  0.5521770000000 1.0
C      1  0.4238020000000  0.4480800000000  0.5616090000000 1.0
C      1  0.5015750000000  0.4041170000000  0.4553280000000 1.0
C      1  0.5793220000000  0.5352220000000  0.4377890000000 1.0
C      1  0.4246350000000  0.5636100000000  0.4474000000000 1.0
C      1  0.5267080000000  0.5602210000000  0.4461260000000 1.0
C      1  0.5308700000000  0.4486980000000  0.4614580000000 1.0
C      1  0.4378310000000  0.4896970000000  0.4529280000000 1.0
C      1  0.5321250000000  0.4360510000000  0.5540240000000 1.0
C      1  0.5312070000000  0.5518130000000  0.5469680000000 1.0
C      1  0.4347020000000  0.5020070000000  0.5496180000000 1.0
C      1  0.4751370000000  0.4550600000000  0.5533480000000 1.0
C      1  0.4800890000000  0.5372360000000  0.5545290000000 1.0
C      1  0.5492020000000  0.4886250000000  0.5495700000000 1.0
C      1  0.4710850000000  0.5356320000000  0.4474740000000 1.0
C      1  0.4836500000000  0.4542920000000  0.4508420000000 1.0
C      1  0.5471910000000  0.5119120000000  0.4426210000000 1.0
C      1  0.5597140000000  0.4018120000000  0.4913470000000 1.0
C      1  0.3918670000000  0.4913900000000  0.4890980000000 1.0
C      1  0.5542040000000  0.5965630000000  0.4878160000000 1.0
C      1  0.5563730000000  0.5948540000000  0.5127410000000 1.0
C      1  0.3915030000000  0.5006540000000  0.5118780000000 1.0
C      1  0.5511800000000  0.3959370000000  0.5142860000000 1.0
C      1  0.4087650000000  0.5151790000000  0.5344680000000 1.0
C      1  0.5578900000000  0.5692010000000  0.5350450000000 1.0
C      1  0.5324120000000  0.4045680000000  0.5413520000000 1.0
C      1  0.4109440000000  0.4774850000000  0.4675890000000 1.0
C      1  0.5561140000000  0.4270980000000  0.4687150000000 1.0
C      1  0.5340460000000  0.5891880000000  0.4614290000000 1.0
C      1  0.4921870000000  0.6063600000000  0.4420050000000 1.0
C      1  0.5858730000000  0.4552530000000  0.4457120000000 1.0
C      1  0.4353580000000  0.4497950000000  0.4527230000000 1.0
C      1  0.4898060000000  0.4077490000000  0.5534830000000 1.0
C      1  0.5785520000000  0.5359380000000  0.5527470000000 1.0
C      1  0.4251160000000  0.5497630000000  0.5454500000000 1.0
C      1  0.4987980000000  0.4968030000000  0.6142360000000 1.0
C      1  0.4968990000000  0.5013820000000  0.3835430000000 1.0
END
