TITL C-2782238-9940-843 -0.000111137718859977 125000 -277.235690827296 0 0 46 (D2d) n - 1
REM
REM in /home/nfs/bkarasulu/CARBON/AIRSS/Generating-Clusters/REBO/Higher-Symm/SD-CG/HFTN-CG
REM
REM
REM
REM
REM
REM ./C.cell (12c818d87b63d06a65506943cc24bca4)
REM
REM compiler GCC version 9.2.1 20190827 (Red Hat 9.2.1-1)
REM options -cpp -mtune=generic -march=x86-64 -g -O0 -fpre-include=/usr/include/finclude/math-vector-fortran.h
REM seed -1023360985 -509813121 2081031553 -1829883709 -1287371324 488650903 -810792711 -2007793316 -307606892 -768093024 -663440019 1819840076 1884491275 78146440 883905799 -369726214 669733081 1620654363 -1652039106 1712363904 -881745563 -908680147 611083416 -207888378 588394320 1260267019 -547764700 311201582 1026413169 789114541 1970272093 -150290464 -580552885
REM
CELL 1.54180   50.00000   50.00000   50.00000   90.00000   90.00000   90.00000
LATT -1
SFAC C  
C      1  0.4845820000000  0.5564920000000  0.4677420000000 1.0
C      1  0.5154180000000  0.4435060000000  0.4677450000000 1.0
C      1  0.4845820000000  0.4435080000000  0.5343760000000 1.0
C      1  0.5154180000000  0.5564940000000  0.5343730000000 1.0
C      1  0.5564930000000  0.4845810000000  0.4677440000000 1.0
C      1  0.4435070000000  0.5154170000000  0.4677430000000 1.0
C      1  0.4435070000000  0.4845830000000  0.5343740000000 1.0
C      1  0.5564930000000  0.5154190000000  0.5343740000000 1.0
C      1  0.4369490000000  0.4958090000000  0.4872960000000 1.0
C      1  0.5630510000000  0.5041900000000  0.4872960000000 1.0
C      1  0.4369490000000  0.5041910000000  0.5148210000000 1.0
C      1  0.5630510000000  0.4958100000000  0.5148220000000 1.0
C      1  0.4958090000000  0.4369490000000  0.4872980000000 1.0
C      1  0.5041910000000  0.5630510000000  0.4872950000000 1.0
C      1  0.5041910000000  0.4369490000000  0.5148230000000 1.0
C      1  0.4958090000000  0.5630510000000  0.5148200000000 1.0
C      1  0.5290380000000  0.5513540000000  0.4800590000000 1.0
C      1  0.4709620000000  0.4486450000000  0.4800610000000 1.0
C      1  0.5290380000000  0.4486460000000  0.5220590000000 1.0
C      1  0.4709610000000  0.5513550000000  0.5220560000000 1.0
C      1  0.5513550000000  0.5290380000000  0.4800590000000 1.0
C      1  0.4486450000000  0.4709610000000  0.4800610000000 1.0
C      1  0.4486450000000  0.5290390000000  0.5220570000000 1.0
C      1  0.5513550000000  0.4709620000000  0.5220590000000 1.0
C      1  0.4932560000000  0.5309310000000  0.4540300000000 1.0
C      1  0.5067440000000  0.4690670000000  0.4540320000000 1.0
C      1  0.4932560000000  0.4690690000000  0.5480870000000 1.0
C      1  0.5067440000000  0.5309330000000  0.5480860000000 1.0
C      1  0.5309320000000  0.4932550000000  0.4540320000000 1.0
C      1  0.4690680000000  0.5067430000000  0.4540310000000 1.0
C      1  0.4690680000000  0.4932570000000  0.5480860000000 1.0
C      1  0.5309320000000  0.5067450000000  0.5480860000000 1.0
C      1  0.4377190000000  0.4571390000000  0.5348670000000 1.0
C      1  0.5622810000000  0.5428630000000  0.5348650000000 1.0
C      1  0.4377190000000  0.5428610000000  0.4672500000000 1.0
C      1  0.5622810000000  0.4571370000000  0.4672530000000 1.0
C      1  0.4571380000000  0.4377200000000  0.5348680000000 1.0
C      1  0.5428620000000  0.5622820000000  0.5348650000000 1.0
C      1  0.5428620000000  0.4377180000000  0.4672530000000 1.0
C      1  0.4571380000000  0.5622800000000  0.4672500000000 1.0
C      1  0.5271900000000  0.4728110000000  0.5463150000000 1.0
C      1  0.4728100000000  0.5271910000000  0.5463130000000 1.0
C      1  0.5271900000000  0.5271890000000  0.4558030000000 1.0
C      1  0.4728100000000  0.4728090000000  0.4558040000000 1.0
C      1  0.5000000000000  0.5000010000000  0.5377080000000 1.0
C      1  0.5000000000000  0.4999990000000  0.4644090000000 1.0
END
