TITL C-2782233-7966-1340 -0.000678239204005468 125000 -179.608569340733 0 0 33 (C1) n - 1
REM
REM in /home/nfs/bkarasulu/CARBON/AIRSS/Generating-Clusters/REBO/Higher-Symm/SD-CG/HFTN-CG
REM
REM
REM
REM
REM
REM ./C.cell (12c818d87b63d06a65506943cc24bca4)
REM
REM compiler GCC version 9.2.1 20190827 (Red Hat 9.2.1-1)
REM options -cpp -mtune=generic -march=x86-64 -g -O0 -fpre-include=/usr/include/finclude/math-vector-fortran.h
REM seed -762973310 2046822406 -851679567 677421177 628842378 1404847947 673133971 1665176580 -812254459 2090872733 -1032058086 947551365 -1339452592 1893000716 -690690392 -1254096318 -1484364632 -1698394140 -431281673 713234534 -347040428 575955005 -1884841019 -724913220 -416989169 912240220 -823483418 -154829455 -1135781562 -1641337863 -1775506495 -1208131176 1843900087
REM
CELL 1.54180   50.00000   50.00000   50.00000   90.00000   90.00000   90.00000
LATT -1
SFAC C  
C      1  0.5127650000000  0.5339540000000  0.4678100000000 1.0
C      1  0.5387190000000  0.5436950000000  0.4670470000000 1.0
C      1  0.5479560000000  0.5255480000000  0.5117950000000 1.0
C      1  0.4824970000000  0.4903690000000  0.4850800000000 1.0
C      1  0.5039130000000  0.5187590000000  0.4915710000000 1.0
C      1  0.4778870000000  0.5417870000000  0.4274170000000 1.0
C      1  0.5881680000000  0.5622550000000  0.4655950000000 1.0
C      1  0.5969050000000  0.5450810000000  0.5080090000000 1.0
C      1  0.4898460000000  0.4464030000000  0.5178920000000 1.0
C      1  0.4518900000000  0.5310860000000  0.5082420000000 1.0
C      1  0.5329980000000  0.4964590000000  0.5636000000000 1.0
C      1  0.4838880000000  0.4891900000000  0.5403910000000 1.0
C      1  0.4605870000000  0.4857350000000  0.5293920000000 1.0
C      1  0.4370970000000  0.4822520000000  0.5183040000000 1.0
C      1  0.5560360000000  0.4998630000000  0.5744990000000 1.0
C      1  0.5726270000000  0.5353920000000  0.5098870000000 1.0
C      1  0.4864570000000  0.4666750000000  0.5027630000000 1.0
C      1  0.4719460000000  0.5181980000000  0.4985680000000 1.0
C      1  0.4948340000000  0.5379810000000  0.4470430000000 1.0
C      1  0.5636420000000  0.5530500000000  0.4663150000000 1.0
C      1  0.5027850000000  0.4840550000000  0.5666990000000 1.0
C      1  0.4644240000000  0.4758910000000  0.4054900000000 1.0
C      1  0.4769870000000  0.4440290000000  0.6338250000000 1.0
C      1  0.4853350000000  0.4569810000000  0.6121050000000 1.0
C      1  0.4470980000000  0.4620110000000  0.3291850000000 1.0
C      1  0.4936190000000  0.4698330000000  0.5905500000000 1.0
C      1  0.5231480000000  0.5156480000000  0.5137140000000 1.0
C      1  0.4759930000000  0.4851590000000  0.4564400000000 1.0
C      1  0.4687720000000  0.4312840000000  0.6552000000000 1.0
C      1  0.5141050000000  0.5016180000000  0.5372430000000 1.0
C      1  0.4528120000000  0.4665890000000  0.3543490000000 1.0
C      1  0.4586180000000  0.4712400000000  0.3799190000000 1.0
C      1  0.4702300000000  0.4805430000000  0.4310610000000 1.0
END
