TITL C-2782229-3092-979 -0.0049782538320239 125000 -1085.34892291749 0 0 187 (C1) n - 1
REM
REM in /home/nfs/bkarasulu/CARBON/AIRSS/Generating-Clusters/REBO/Higher-Symm/SD-CG/HFTN-CG
REM
REM
REM
REM
REM
REM ./C.cell (12c818d87b63d06a65506943cc24bca4)
REM
REM compiler GCC version 9.2.1 20190827 (Red Hat 9.2.1-1)
REM options -cpp -mtune=generic -march=x86-64 -g -O0 -fpre-include=/usr/include/finclude/math-vector-fortran.h
REM seed 1212190862 -1845704001 1411414288 1383684401 -217725143 -35676648 651552137 -1000667801 -309580836 -671933211 -7956068 1847494622 1299707046 138566691 -4642104 -2139232258 -1921565330 891811021 813585284 -488184662 -1552233644 -1672432305 -1078270202 176702748 -1307825651 1288746971 1707181593 202984929 530399960 1907559408 1956341199 -55288673 221419493
REM
CELL 1.54180   50.00000   50.00000   50.00000   90.00000   90.00000   90.00000
LATT -1
SFAC C  
C      1  0.5061490000000  0.4308220000000  0.5898760000000 1.0
C      1  0.4477790000000  0.4501380000000  0.5839890000000 1.0
C      1  0.4320560000000  0.4995650000000  0.5869200000000 1.0
C      1  0.4537320000000  0.5500980000000  0.5914150000000 1.0
C      1  0.5165540000000  0.5656800000000  0.5797310000000 1.0
C      1  0.5622440000000  0.5236870000000  0.5823760000000 1.0
C      1  0.5634910000000  0.4651870000000  0.5730970000000 1.0
C      1  0.4725440000000  0.5259000000000  0.4292120000000 1.0
C      1  0.5027100000000  0.5363450000000  0.4290520000000 1.0
C      1  0.5312260000000  0.5213560000000  0.4285880000000 1.0
C      1  0.5357550000000  0.4895880000000  0.4279450000000 1.0
C      1  0.5129700000000  0.4673670000000  0.4283390000000 1.0
C      1  0.4800310000000  0.4662690000000  0.4286840000000 1.0
C      1  0.4650620000000  0.4942560000000  0.4292970000000 1.0
C      1  0.4562300000000  0.4338980000000  0.4294970000000 1.0
C      1  0.4241490000000  0.4850130000000  0.4268750000000 1.0
C      1  0.4456400000000  0.5567570000000  0.4279290000000 1.0
C      1  0.5039280000000  0.5786430000000  0.4265240000000 1.0
C      1  0.5680730000000  0.5402730000000  0.4273860000000 1.0
C      1  0.5737980000000  0.4738790000000  0.4264660000000 1.0
C      1  0.5306910000000  0.4291900000000  0.4259570000000 1.0
C      1  0.6053060000000  0.5141870000000  0.4864420000000 1.0
C      1  0.5767190000000  0.4273110000000  0.4863720000000 1.0
C      1  0.4939530000000  0.3962060000000  0.4903740000000 1.0
C      1  0.4130720000000  0.4412170000000  0.4886260000000 1.0
C      1  0.4013920000000  0.5316840000000  0.4870250000000 1.0
C      1  0.4621320000000  0.5991390000000  0.4867940000000 1.0
C      1  0.5546540000000  0.5908300000000  0.4869420000000 1.0
C      1  0.4146950000000  0.5064890000000  0.4494250000000 1.0
C      1  0.4498710000000  0.5754060000000  0.4527790000000 1.0
C      1  0.5272870000000  0.5826430000000  0.4488780000000 1.0
C      1  0.5853130000000  0.5314570000000  0.4519980000000 1.0
C      1  0.5791970000000  0.4548570000000  0.4508800000000 1.0
C      1  0.5121360000000  0.4161510000000  0.4493540000000 1.0
C      1  0.4381000000000  0.4338640000000  0.4552830000000 1.0
C      1  0.4321710000000  0.5101010000000  0.4137230000000 1.0
C      1  0.4681700000000  0.5602580000000  0.4094830000000 1.0
C      1  0.5260480000000  0.5643890000000  0.4134030000000 1.0
C      1  0.5657190000000  0.5175500000000  0.4091030000000 1.0
C      1  0.5545870000000  0.4603850000000  0.4085600000000 1.0
C      1  0.5040200000000  0.4316900000000  0.4134950000000 1.0
C      1  0.4466030000000  0.4547590000000  0.4105680000000 1.0
C      1  0.4346160000000  0.4753190000000  0.5256690000000 1.0
C      1  0.4459760000000  0.5326650000000  0.5234930000000 1.0
C      1  0.4902770000000  0.5726780000000  0.5246050000000 1.0
C      1  0.5456430000000  0.5500060000000  0.5239090000000 1.0
C      1  0.5692470000000  0.4936350000000  0.5249130000000 1.0
C      1  0.5403360000000  0.4452240000000  0.5238920000000 1.0
C      1  0.4821950000000  0.4347490000000  0.5273510000000 1.0
C      1  0.4691320000000  0.4908140000000  0.5374450000000 1.0
C      1  0.4656360000000  0.5212430000000  0.5427350000000 1.0
C      1  0.4934520000000  0.5341690000000  0.5348700000000 1.0
C      1  0.5150940000000  0.5162380000000  0.5492030000000 1.0
C      1  0.5261810000000  0.4940040000000  0.5294270000000 1.0
C      1  0.5188050000000  0.4769000000000  0.5549620000000 1.0
C      1  0.4893550000000  0.4724400000000  0.5518270000000 1.0
C      1  0.5681810000000  0.5257430000000  0.4780810000000 1.0
C      1  0.5633890000000  0.4635660000000  0.4766920000000 1.0
C      1  0.5101930000000  0.4304950000000  0.4783660000000 1.0
C      1  0.4515360000000  0.4474310000000  0.4805030000000 1.0
C      1  0.4297080000000  0.5053140000000  0.4774540000000 1.0
C      1  0.4607190000000  0.5603040000000  0.4782600000000 1.0
C      1  0.5226590000000  0.5692660000000  0.4775020000000 1.0
C      1  0.4003230000000  0.4799170000000  0.5468280000000 1.0
C      1  0.4262320000000  0.5589840000000  0.5460240000000 1.0
C      1  0.4972030000000  0.6037900000000  0.5484140000000 1.0
C      1  0.5736950000000  0.5675610000000  0.5462990000000 1.0
C      1  0.6005710000000  0.4724160000000  0.5449120000000 1.0
C      1  0.5455100000000  0.4088960000000  0.5400740000000 1.0
C      1  0.4637990000000  0.4063370000000  0.5485740000000 1.0
C      1  0.5678100000000  0.5629370000000  0.5015180000000 1.0
C      1  0.5935250000000  0.4862150000000  0.5018900000000 1.0
C      1  0.5472670000000  0.4196010000000  0.5016720000000 1.0
C      1  0.4680300000000  0.4128060000000  0.5055170000000 1.0
C      1  0.4125490000000  0.4727880000000  0.5013670000000 1.0
C      1  0.4256260000000  0.5499620000000  0.5018130000000 1.0
C      1  0.4930980000000  0.5948590000000  0.5002580000000 1.0
C      1  0.4235800000000  0.5723180000000  0.4690180000000 1.0
C      1  0.5091490000000  0.6046240000000  0.4653090000000 1.0
C      1  0.5895090000000  0.5580490000000  0.4686990000000 1.0
C      1  0.6019540000000  0.4682700000000  0.4674090000000 1.0
C      1  0.5375860000000  0.4043910000000  0.4660200000000 1.0
C      1  0.4478980000000  0.4086900000000  0.4716610000000 1.0
C      1  0.3967940000000  0.4855210000000  0.4672510000000 1.0
C      1  0.5140940000000  0.5374780000000  0.3966160000000 1.0
C      1  0.5369670000000  0.5124640000000  0.3955080000000 1.0
C      1  0.5313860000000  0.4788760000000  0.3951640000000 1.0
C      1  0.5023060000000  0.4610340000000  0.3963140000000 1.0
C      1  0.4702680000000  0.4726630000000  0.3963050000000 1.0
C      1  0.4611010000000  0.5054910000000  0.3970980000000 1.0
C      1  0.4802400000000  0.5336360000000  0.3963670000000 1.0
C      1  0.5195480000000  0.4692280000000  0.4960400000000 1.0
C      1  0.4926440000000  0.4655340000000  0.4976050000000 1.0
C      1  0.4672980000000  0.4849000000000  0.5050710000000 1.0
C      1  0.4726850000000  0.5170190000000  0.4982360000000 1.0
C      1  0.4961990000000  0.5403000000000  0.5026040000000 1.0
C      1  0.5251520000000  0.5254900000000  0.4974510000000 1.0
C      1  0.5392630000000  0.4951200000000  0.4988460000000 1.0
C      1  0.5703340000000  0.4218140000000  0.5357690000000 1.0
C      1  0.4878560000000  0.3963600000000  0.5382730000000 1.0
C      1  0.4049730000000  0.4523710000000  0.5391560000000 1.0
C      1  0.4119750000000  0.5335580000000  0.5471180000000 1.0
C      1  0.4697330000000  0.6030930000000  0.5402470000000 1.0
C      1  0.5497180000000  0.5858310000000  0.5408400000000 1.0
C      1  0.6067560000000  0.4998660000000  0.5369890000000 1.0
C      1  0.4227770000000  0.4549320000000  0.4350930000000 1.0
C      1  0.4240480000000  0.5351060000000  0.4336170000000 1.0
C      1  0.4740280000000  0.5845250000000  0.4327180000000 1.0
C      1  0.5526680000000  0.5665900000000  0.4333900000000 1.0
C      1  0.5852620000000  0.5032300000000  0.4330060000000 1.0
C      1  0.5605230000000  0.4360680000000  0.4318330000000 1.0
C      1  0.4822200000000  0.4180890000000  0.4351900000000 1.0
C      1  0.5241050000000  0.3961380000000  0.4925700000000 1.0
C      1  0.4344720000000  0.4173350000000  0.5005120000000 1.0
C      1  0.3949530000000  0.5015310000000  0.4964660000000 1.0
C      1  0.4341850000000  0.5829300000000  0.4976190000000 1.0
C      1  0.5251090000000  0.6052590000000  0.4945340000000 1.0
C      1  0.5965490000000  0.5448580000000  0.4985710000000 1.0
C      1  0.5967970000000  0.4527880000000  0.4955260000000 1.0
C      1  0.5042280000000  0.5945000000000  0.5739470000000 1.0
C      1  0.5722790000000  0.5417530000000  0.5551720000000 1.0
C      1  0.5902280000000  0.4687720000000  0.5711330000000 1.0
C      1  0.5254630000000  0.4205580000000  0.5646930000000 1.0
C      1  0.4513360000000  0.4283220000000  0.5578010000000 1.0
C      1  0.4032940000000  0.4897250000000  0.5735260000000 1.0
C      1  0.4499620000000  0.5642960000000  0.5645320000000 1.0
C      1  0.4807550000000  0.5312540000000  0.4617800000000 1.0
C      1  0.5129460000000  0.5358030000000  0.4609090000000 1.0
C      1  0.5367720000000  0.5127960000000  0.4603830000000 1.0
C      1  0.5331540000000  0.4803580000000  0.4601200000000 1.0
C      1  0.5050180000000  0.4633320000000  0.4594150000000 1.0
C      1  0.4752790000000  0.4734650000000  0.4616260000000 1.0
C      1  0.4646050000000  0.5032210000000  0.4610010000000 1.0
C      1  0.4838180000000  0.5348350000000  0.5974610000000 1.0
C      1  0.5175120000000  0.5358750000000  0.5972940000000 1.0
C      1  0.5368240000000  0.5078030000000  0.5989520000000 1.0
C      1  0.5211710000000  0.4781960000000  0.6052530000000 1.0
C      1  0.4926820000000  0.4593650000000  0.6031510000000 1.0
C      1  0.4629910000000  0.4760130000000  0.6008540000000 1.0
C      1  0.4608930000000  0.5098060000000  0.6002870000000 1.0
C      1  0.5650570000000  0.5246880000000  0.5121200000000 1.0
C      1  0.5616700000000  0.4642580000000  0.5107890000000 1.0
C      1  0.5116500000000  0.4335500000000  0.5122620000000 1.0
C      1  0.4537000000000  0.4488290000000  0.5149390000000 1.0
C      1  0.4317540000000  0.5062560000000  0.5113880000000 1.0
C      1  0.4625630000000  0.5593210000000  0.5124030000000 1.0
C      1  0.5217550000000  0.5694570000000  0.5116700000000 1.0
C      1  0.4557960000000  0.4858350000000  0.5687390000000 1.0
C      1  0.4570460000000  0.5254540000000  0.5703250000000 1.0
C      1  0.4940460000000  0.5461090000000  0.5669610000000 1.0
C      1  0.5333920000000  0.5318220000000  0.5674590000000 1.0
C      1  0.5443720000000  0.4903260000000  0.5707620000000 1.0
C      1  0.5259210000000  0.4566620000000  0.5814580000000 1.0
C      1  0.4786810000000  0.4533110000000  0.5726690000000 1.0
C      1  0.4803950000000  0.6003660000000  0.4616060000000 1.0
C      1  0.5672620000000  0.5763720000000  0.4625440000000 1.0
C      1  0.6024680000000  0.4967210000000  0.4616550000000 1.0
C      1  0.5615270000000  0.4192560000000  0.4611770000000 1.0
C      1  0.4762550000000  0.4034830000000  0.4654600000000 1.0
C      1  0.4064020000000  0.4580670000000  0.4636240000000 1.0
C      1  0.4110730000000  0.5469080000000  0.4625750000000 1.0
C      1  0.4807460000000  0.4380310000000  0.4875930000000 1.0
C      1  0.4432060000000  0.4767410000000  0.4869920000000 1.0
C      1  0.4477600000000  0.5307180000000  0.4840930000000 1.0
C      1  0.4913940000000  0.5649760000000  0.4854940000000 1.0
C      1  0.5434450000000  0.5463120000000  0.4844270000000 1.0
C      1  0.5660640000000  0.4951190000000  0.4852290000000 1.0
C      1  0.5378520000000  0.4466060000000  0.4841540000000 1.0
C      1  0.4236210000000  0.4369820000000  0.5262830000000 1.0
C      1  0.4038900000000  0.5058300000000  0.5287640000000 1.0
C      1  0.4449650000000  0.5823880000000  0.5293710000000 1.0
C      1  0.5214110000000  0.5995570000000  0.5279120000000 1.0
C      1  0.5971090000000  0.5221190000000  0.5240900000000 1.0
C      1  0.5874290000000  0.4499700000000  0.5268950000000 1.0
C      1  0.5137880000000  0.4059170000000  0.5296980000000 1.0
C      1  0.4106030000000  0.5210990000000  0.5734990000000 1.0
C      1  0.4750980000000  0.5652400000000  0.5513640000000 1.0
C      1  0.5355510000000  0.5590710000000  0.5537790000000 1.0
C      1  0.5635840000000  0.5089320000000  0.5512780000000 1.0
C      1  0.5440090000000  0.4459660000000  0.5545000000000 1.0
C      1  0.4940150000000  0.4309810000000  0.5570750000000 1.0
C      1  0.4433350000000  0.4608800000000  0.5515850000000 1.0
C      1  0.5018530000000  0.5000680000000  0.4746910000000 1.0
C      1  0.5019590000000  0.5024470000000  0.5087870000000 1.0
C      1  0.4954110000000  0.5065540000000  0.5716630000000 1.0
C      1  0.4984270000000  0.4977840000000  0.5944190000000 1.0
C      1  0.5014720000000  0.5006420000000  0.4469720000000 1.0
END
