TITL C-2782226-7400-298 0.0028656761846894 125000 -957.672207028269 0 0 158 (C1) n - 1
REM
REM in /home/nfs/bkarasulu/CARBON/AIRSS/Generating-Clusters/REBO/Higher-Symm/SD-CG/HFTN-CG
REM
REM
REM
REM
REM
REM ./C.cell (12c818d87b63d06a65506943cc24bca4)
REM
REM compiler GCC version 9.2.1 20190827 (Red Hat 9.2.1-1)
REM options -cpp -mtune=generic -march=x86-64 -g -O0 -fpre-include=/usr/include/finclude/math-vector-fortran.h
REM seed 1194573190 1863951902 -1563199880 -1745438225 1057291658 -725090352 -1348748066 -1810719972 -235153236 -257122094 2114412183 -1365727747 -453174577 1852119590 1271980025 508892764 -1184031204 1378331393 1069102692 -438002382 1316091542 910541013 -281342533 -1732745867 -850618895 -611288781 -518675542 -1586901727 961713453 1632435865 412515505 896221604 -458397038
REM
CELL 1.54180   50.00000   50.00000   50.00000   90.00000   90.00000   90.00000
LATT -1
SFAC C  
C      1  0.4779660000000  0.5423480000000  0.4033440000000 1.0
C      1  0.4317470000000  0.4608950000000  0.4292180000000 1.0
C      1  0.4060460000000  0.5420890000000  0.4705510000000 1.0
C      1  0.4019280000000  0.4596360000000  0.5233500000000 1.0
C      1  0.4302970000000  0.5417190000000  0.5651260000000 1.0
C      1  0.4718570000000  0.4586000000000  0.5949640000000 1.0
C      1  0.5251500000000  0.5381290000000  0.5980620000000 1.0
C      1  0.5658600000000  0.4581240000000  0.5723980000000 1.0
C      1  0.5947520000000  0.5391610000000  0.5297230000000 1.0
C      1  0.5945080000000  0.4584050000000  0.4791790000000 1.0
C      1  0.5719240000000  0.5413420000000  0.4338670000000 1.0
C      1  0.5283790000000  0.4579180000000  0.4077310000000 1.0
C      1  0.4776510000000  0.5388640000000  0.5917780000000 1.0
C      1  0.5224300000000  0.4573950000000  0.5899310000000 1.0
C      1  0.5632260000000  0.5404220000000  0.5648890000000 1.0
C      1  0.5891720000000  0.4588630000000  0.5258090000000 1.0
C      1  0.5876320000000  0.5409810000000  0.4782840000000 1.0
C      1  0.5663700000000  0.4598940000000  0.4355600000000 1.0
C      1  0.5244300000000  0.5410840000000  0.4094780000000 1.0
C      1  0.4758880000000  0.4602440000000  0.4120420000000 1.0
C      1  0.4317160000000  0.5441500000000  0.4308040000000 1.0
C      1  0.4122670000000  0.4575640000000  0.4770830000000 1.0
C      1  0.4120280000000  0.5417490000000  0.5220350000000 1.0
C      1  0.4379970000000  0.4591920000000  0.5625140000000 1.0
C      1  0.5002470000000  0.4157490000000  0.5615070000000 1.0
C      1  0.5281100000000  0.5775290000000  0.5499760000000 1.0
C      1  0.5536710000000  0.4186120000000  0.5318780000000 1.0
C      1  0.5594140000000  0.5798060000000  0.4994450000000 1.0
C      1  0.5537180000000  0.4216810000000  0.4716940000000 1.0
C      1  0.5308900000000  0.5802390000000  0.4452920000000 1.0
C      1  0.5015300000000  0.4230320000000  0.4421650000000 1.0
C      1  0.4687810000000  0.5815800000000  0.4434600000000 1.0
C      1  0.4509080000000  0.4215490000000  0.4736950000000 1.0
C      1  0.4411860000000  0.5793780000000  0.4987910000000 1.0
C      1  0.4448630000000  0.4152260000000  0.5336070000000 1.0
C      1  0.4685250000000  0.5794850000000  0.5565580000000 1.0
C      1  0.5158030000000  0.5960000000000  0.5274370000000 1.0
C      1  0.5326130000000  0.3984350000000  0.5172690000000 1.0
C      1  0.5342820000000  0.5987000000000  0.4987970000000 1.0
C      1  0.5332480000000  0.3997780000000  0.4829050000000 1.0
C      1  0.5183210000000  0.5986800000000  0.4685460000000 1.0
C      1  0.5033600000000  0.4016410000000  0.4660460000000 1.0
C      1  0.4841060000000  0.5982150000000  0.4686020000000 1.0
C      1  0.4741910000000  0.4026170000000  0.4839980000000 1.0
C      1  0.4677990000000  0.5959630000000  0.4985330000000 1.0
C      1  0.4712010000000  0.4001110000000  0.5178910000000 1.0
C      1  0.4818130000000  0.5953390000000  0.5295160000000 1.0
C      1  0.5019680000000  0.3980990000000  0.5327900000000 1.0
C      1  0.4713380000000  0.5541650000000  0.4925750000000 1.0
C      1  0.4749590000000  0.4332530000000  0.5161910000000 1.0
C      1  0.4802760000000  0.5629740000000  0.5226590000000 1.0
C      1  0.4990890000000  0.4377360000000  0.5305350000000 1.0
C      1  0.5079460000000  0.5514500000000  0.5267560000000 1.0
C      1  0.5242450000000  0.4422970000000  0.5194960000000 1.0
C      1  0.5287400000000  0.5549340000000  0.5026160000000 1.0
C      1  0.5272720000000  0.4441720000000  0.4915360000000 1.0
C      1  0.5173090000000  0.5562020000000  0.4733340000000 1.0
C      1  0.5037400000000  0.4451390000000  0.4753170000000 1.0
C      1  0.4871730000000  0.5601760000000  0.4687530000000 1.0
C      1  0.4786410000000  0.4460970000000  0.4888310000000 1.0
C      1  0.4644010000000  0.4865010000000  0.5923670000000 1.0
C      1  0.5189130000000  0.5098400000000  0.6017190000000 1.0
C      1  0.5597610000000  0.4853350000000  0.5805290000000 1.0
C      1  0.5921680000000  0.5116370000000  0.5387250000000 1.0
C      1  0.5967530000000  0.4866020000000  0.4867220000000 1.0
C      1  0.5781650000000  0.5134280000000  0.4392410000000 1.0
C      1  0.5363330000000  0.4862520000000  0.4077870000000 1.0
C      1  0.4851430000000  0.5141860000000  0.4000070000000 1.0
C      1  0.4364800000000  0.4880380000000  0.4194030000000 1.0
C      1  0.4066980000000  0.5140720000000  0.4617060000000 1.0
C      1  0.4012590000000  0.4874370000000  0.5139800000000 1.0
C      1  0.4246310000000  0.5136620000000  0.5600090000000 1.0
C      1  0.4853170000000  0.5093610000000  0.5972320000000 1.0
C      1  0.5328210000000  0.4856270000000  0.5937540000000 1.0
C      1  0.5696730000000  0.5096280000000  0.5610400000000 1.0
C      1  0.5892330000000  0.4889510000000  0.5169040000000 1.0
C      1  0.5849390000000  0.5108570000000  0.4698030000000 1.0
C      1  0.5590890000000  0.4897280000000  0.4295250000000 1.0
C      1  0.5154480000000  0.5107120000000  0.4086070000000 1.0
C      1  0.4672910000000  0.4906560000000  0.4128380000000 1.0
C      1  0.4264160000000  0.5136660000000  0.4359230000000 1.0
C      1  0.4088740000000  0.4886440000000  0.4827510000000 1.0
C      1  0.4138660000000  0.5117410000000  0.5303430000000 1.0
C      1  0.4454450000000  0.4901290000000  0.5677060000000 1.0
C      1  0.4352660000000  0.4483690000000  0.4597130000000 1.0
C      1  0.4220300000000  0.5513900000000  0.4957590000000 1.0
C      1  0.4286370000000  0.4449850000000  0.5369460000000 1.0
C      1  0.4588750000000  0.5507100000000  0.5721900000000 1.0
C      1  0.4961480000000  0.4458900000000  0.5771480000000 1.0
C      1  0.5358640000000  0.5513930000000  0.5707100000000 1.0
C      1  0.5668510000000  0.4483570000000  0.5426310000000 1.0
C      1  0.5783600000000  0.5519170000000  0.5048450000000 1.0
C      1  0.5690650000000  0.4512550000000  0.4639690000000 1.0
C      1  0.5425490000000  0.5517690000000  0.4303180000000 1.0
C      1  0.5023330000000  0.4508150000000  0.4221250000000 1.0
C      1  0.4595430000000  0.5530810000000  0.4259670000000 1.0
C      1  0.5393290000000  0.5362320000000  0.4579960000000 1.0
C      1  0.5071040000000  0.4652950000000  0.4490710000000 1.0
C      1  0.4812320000000  0.5387280000000  0.4451310000000 1.0
C      1  0.4554310000000  0.4715330000000  0.4596290000000 1.0
C      1  0.4465650000000  0.5347480000000  0.4835190000000 1.0
C      1  0.4407510000000  0.4667680000000  0.5182210000000 1.0
C      1  0.4619690000000  0.5407020000000  0.5407630000000 1.0
C      1  0.4885270000000  0.4709180000000  0.5580230000000 1.0
C      1  0.5129360000000  0.5359660000000  0.5550190000000 1.0
C      1  0.5405200000000  0.4643050000000  0.5365610000000 1.0
C      1  0.5532310000000  0.5361400000000  0.5165880000000 1.0
C      1  0.5486530000000  0.4658420000000  0.4824210000000 1.0
C      1  0.4758410000000  0.5159840000000  0.4818000000000 1.0
C      1  0.4694300000000  0.4718590000000  0.5088110000000 1.0
C      1  0.4733730000000  0.5259230000000  0.5113620000000 1.0
C      1  0.4898480000000  0.4764340000000  0.5301820000000 1.0
C      1  0.4922950000000  0.5158740000000  0.5354780000000 1.0
C      1  0.5158980000000  0.4811670000000  0.5207320000000 1.0
C      1  0.5224070000000  0.5203300000000  0.5200070000000 1.0
C      1  0.5217990000000  0.4835330000000  0.4937760000000 1.0
C      1  0.5295510000000  0.5220750000000  0.4881230000000 1.0
C      1  0.5020250000000  0.4849130000000  0.4745100000000 1.0
C      1  0.5028260000000  0.5242970000000  0.4680020000000 1.0
C      1  0.4730820000000  0.4850600000000  0.4817530000000 1.0
C      1  0.4678700000000  0.4271750000000  0.4450420000000 1.0
C      1  0.4421570000000  0.5767890000000  0.4646940000000 1.0
C      1  0.4332090000000  0.4234850000000  0.5026770000000 1.0
C      1  0.4439560000000  0.5764450000000  0.5328160000000 1.0
C      1  0.4664210000000  0.4207040000000  0.5594590000000 1.0
C      1  0.4999360000000  0.5734970000000  0.5685600000000 1.0
C      1  0.5339520000000  0.4215780000000  0.5595020000000 1.0
C      1  0.5570040000000  0.5740100000000  0.5323960000000 1.0
C      1  0.5692440000000  0.4231680000000  0.5019180000000 1.0
C      1  0.5579100000000  0.5763580000000  0.4657800000000 1.0
C      1  0.5354760000000  0.4248790000000  0.4431390000000 1.0
C      1  0.5002760000000  0.5770950000000  0.4305240000000 1.0
C      1  0.5581590000000  0.4967040000000  0.4849210000000 1.0
C      1  0.5429020000000  0.5042100000000  0.4553230000000 1.0
C      1  0.5147820000000  0.4967630000000  0.4396380000000 1.0
C      1  0.4822460000000  0.5067000000000  0.4389610000000 1.0
C      1  0.4516920000000  0.5027250000000  0.4531110000000 1.0
C      1  0.4379980000000  0.5038900000000  0.4842780000000 1.0
C      1  0.4401520000000  0.4980370000000  0.5162220000000 1.0
C      1  0.4598830000000  0.5065580000000  0.5426700000000 1.0
C      1  0.4982030000000  0.4931410000000  0.5721340000000 1.0
C      1  0.5207810000000  0.5058840000000  0.5608990000000 1.0
C      1  0.5443260000000  0.4949590000000  0.5450030000000 1.0
C      1  0.5590480000000  0.5047550000000  0.5174820000000 1.0
C      1  0.5012080000000  0.5547610000000  0.5902750000000 1.0
C      1  0.5431830000000  0.4406640000000  0.5789610000000 1.0
C      1  0.5752680000000  0.5560690000000  0.5444950000000 1.0
C      1  0.5912600000000  0.4419460000000  0.5029140000000 1.0
C      1  0.5780320000000  0.5576170000000  0.4571790000000 1.0
C      1  0.5473120000000  0.4424020000000  0.4234270000000 1.0
C      1  0.5015900000000  0.5581080000000  0.4084190000000 1.0
C      1  0.4563000000000  0.4443800000000  0.4256310000000 1.0
C      1  0.4217760000000  0.5595500000000  0.4527640000000 1.0
C      1  0.4115520000000  0.4420530000000  0.5009320000000 1.0
C      1  0.4231750000000  0.5580010000000  0.5424950000000 1.0
C      1  0.4563930000000  0.4419570000000  0.5759300000000 1.0
C      1  0.5015740000000  0.5844640000000  0.4967650000000 1.0
C      1  0.5046090000000  0.4124660000000  0.5000830000000 1.0
END
