TITL C-2782229-3092-308 -0.00296104940139076 125000 -999.671221564324 0 0 173 (C1) n - 1
REM
REM in /home/nfs/bkarasulu/CARBON/AIRSS/Generating-Clusters/REBO/Higher-Symm/SD-CG/HFTN-CG
REM
REM
REM
REM
REM
REM ./C.cell (12c818d87b63d06a65506943cc24bca4)
REM
REM compiler GCC version 9.2.1 20190827 (Red Hat 9.2.1-1)
REM options -cpp -mtune=generic -march=x86-64 -g -O0 -fpre-include=/usr/include/finclude/math-vector-fortran.h
REM seed -301061928 -1128980084 -256578229 1740658311 -718578685 -322149579 -1765742858 781598158 61975859 -663582634 -1076504744 1529502609 1032996349 -528715714 636267278 -1688309425 -983754702 2075656948 1651256835 1527982190 -1423390442 653710137 -454682915 868268788 314004859 -2120639747 1087829770 935980450 436456230 1354342806 -1900734895 -943000944 -254224396
REM
CELL 1.54180   50.00000   50.00000   50.00000   90.00000   90.00000   90.00000
LATT -1
SFAC C  
C      1  0.4559110000000  0.5911220000000  0.5107280000000 1.0
C      1  0.5177160000000  0.5859260000000  0.4555290000000 1.0
C      1  0.5283810000000  0.5877980000000  0.5296130000000 1.0
C      1  0.5455530000000  0.4087910000000  0.5074150000000 1.0
C      1  0.4913870000000  0.4145910000000  0.4585920000000 1.0
C      1  0.4730110000000  0.4135920000000  0.5276150000000 1.0
C      1  0.4865930000000  0.5401680000000  0.4679840000000 1.0
C      1  0.5465710000000  0.5438140000000  0.5086870000000 1.0
C      1  0.4782410000000  0.5473910000000  0.5372110000000 1.0
C      1  0.5181060000000  0.4612340000000  0.4616750000000 1.0
C      1  0.4536840000000  0.4575310000000  0.5035900000000 1.0
C      1  0.5217290000000  0.4542570000000  0.5373430000000 1.0
C      1  0.4638710000000  0.6062690000000  0.4566390000000 1.0
C      1  0.5520950000000  0.6076610000000  0.4897420000000 1.0
C      1  0.4838250000000  0.6121130000000  0.5510110000000 1.0
C      1  0.5436160000000  0.3918250000000  0.4574780000000 1.0
C      1  0.4451450000000  0.3964140000000  0.4848360000000 1.0
C      1  0.5176330000000  0.3904100000000  0.5489180000000 1.0
C      1  0.5494400000000  0.4843900000000  0.5942620000000 1.0
C      1  0.3942470000000  0.4836930000000  0.4935080000000 1.0
C      1  0.5551990000000  0.4838400000000  0.4108060000000 1.0
C      1  0.4495590000000  0.5164050000000  0.5939060000000 1.0
C      1  0.6087850000000  0.5152620000000  0.4935160000000 1.0
C      1  0.4389530000000  0.5184460000000  0.4089610000000 1.0
C      1  0.4148540000000  0.5063080000000  0.4797450000000 1.0
C      1  0.5579030000000  0.5064490000000  0.4357810000000 1.0
C      1  0.5256070000000  0.5061310000000  0.5949920000000 1.0
C      1  0.5900330000000  0.4930490000000  0.4777610000000 1.0
C      1  0.4327690000000  0.4942220000000  0.4303400000000 1.0
C      1  0.4732820000000  0.4945230000000  0.5956200000000 1.0
C      1  0.5665890000000  0.4684200000000  0.4745020000000 1.0
C      1  0.4892950000000  0.4752910000000  0.5733150000000 1.0
C      1  0.4470440000000  0.4694020000000  0.4493210000000 1.0
C      1  0.4370660000000  0.5310410000000  0.4724690000000 1.0
C      1  0.5091080000000  0.5257500000000  0.5737870000000 1.0
C      1  0.5511700000000  0.5244610000000  0.4638450000000 1.0
C      1  0.4491000000000  0.5129970000000  0.5057240000000 1.0
C      1  0.5198820000000  0.5057330000000  0.4475570000000 1.0
C      1  0.5264460000000  0.5135280000000  0.5403060000000 1.0
C      1  0.5494170000000  0.4866610000000  0.5032900000000 1.0
C      1  0.4774990000000  0.4887850000000  0.4616640000000 1.0
C      1  0.4738260000000  0.4883300000000  0.5409160000000 1.0
C      1  0.4736670000000  0.5148230000000  0.4819150000000 1.0
C      1  0.5411280000000  0.5171460000000  0.4931160000000 1.0
C      1  0.4926280000000  0.5165150000000  0.5370150000000 1.0
C      1  0.5309400000000  0.4901360000000  0.4744560000000 1.0
C      1  0.4592350000000  0.4850160000000  0.4901730000000 1.0
C      1  0.5076370000000  0.4852710000000  0.5371580000000 1.0
C      1  0.5844260000000  0.4536350000000  0.5306880000000 1.0
C      1  0.4318550000000  0.4488460000000  0.5538350000000 1.0
C      1  0.4813200000000  0.4470510000000  0.4098210000000 1.0
C      1  0.4156380000000  0.5458850000000  0.5291060000000 1.0
C      1  0.5683050000000  0.5508070000000  0.5547080000000 1.0
C      1  0.5142410000000  0.5408560000000  0.4117130000000 1.0
C      1  0.5418220000000  0.4052600000000  0.5411310000000 1.0
C      1  0.4454470000000  0.4078720000000  0.5115390000000 1.0
C      1  0.5210130000000  0.4050520000000  0.4461870000000 1.0
C      1  0.4585590000000  0.5991410000000  0.5437670000000 1.0
C      1  0.5571850000000  0.5928870000000  0.5140660000000 1.0
C      1  0.4879640000000  0.5906320000000  0.4478430000000 1.0
C      1  0.5923500000000  0.5502600000000  0.4589100000000 1.0
C      1  0.4888050000000  0.5539540000000  0.5934270000000 1.0
C      1  0.4211280000000  0.5541210000000  0.4444160000000 1.0
C      1  0.4145250000000  0.4479060000000  0.4581660000000 1.0
C      1  0.5100300000000  0.4470700000000  0.5925530000000 1.0
C      1  0.5789850000000  0.4475120000000  0.4433060000000 1.0
C      1  0.4212830000000  0.5200680000000  0.4446390000000 1.0
C      1  0.5824710000000  0.5200760000000  0.4638780000000 1.0
C      1  0.4888270000000  0.5209320000000  0.5991290000000 1.0
C      1  0.5747220000000  0.4811430000000  0.4448260000000 1.0
C      1  0.4199850000000  0.4804140000000  0.4635980000000 1.0
C      1  0.5100490000000  0.4798790000000  0.5984930000000 1.0
C      1  0.5134390000000  0.3920110000000  0.4829320000000 1.0
C      1  0.5033050000000  0.3803020000000  0.5132160000000 1.0
C      1  0.4837340000000  0.3967270000000  0.4932670000000 1.0
C      1  0.4901350000000  0.6027230000000  0.4858160000000 1.0
C      1  0.5012110000000  0.6130840000000  0.5151990000000 1.0
C      1  0.5211240000000  0.6131110000000  0.4885690000000 1.0
C      1  0.5104590000000  0.4513790000000  0.4022720000000 1.0
C      1  0.5769440000000  0.4612900000000  0.5570910000000 1.0
C      1  0.4115250000000  0.4568600000000  0.5356040000000 1.0
C      1  0.4864110000000  0.5369280000000  0.4079370000000 1.0
C      1  0.4225570000000  0.5390890000000  0.5558980000000 1.0
C      1  0.5874270000000  0.5423190000000  0.5354290000000 1.0
C      1  0.5584030000000  0.4567710000000  0.4177930000000 1.0
C      1  0.5423100000000  0.4577140000000  0.5906330000000 1.0
C      1  0.3985240000000  0.4565950000000  0.4869960000000 1.0
C      1  0.4408600000000  0.5443650000000  0.4198870000000 1.0
C      1  0.4568030000000  0.5429980000000  0.5898620000000 1.0
C      1  0.6050540000000  0.5422720000000  0.4881960000000 1.0
C      1  0.5685750000000  0.5671850000000  0.5104290000000 1.0
C      1  0.4580100000000  0.5701360000000  0.5510300000000 1.0
C      1  0.4776960000000  0.5632910000000  0.4454280000000 1.0
C      1  0.4336840000000  0.4340500000000  0.5113570000000 1.0
C      1  0.5414100000000  0.4316970000000  0.5518500000000 1.0
C      1  0.5253440000000  0.4342680000000  0.4420140000000 1.0
C      1  0.5126590000000  0.4122810000000  0.5160070000000 1.0
C      1  0.4756890000000  0.4261510000000  0.4933520000000 1.0
C      1  0.5166870000000  0.4258530000000  0.4798420000000 1.0
C      1  0.4879140000000  0.5854970000000  0.5215410000000 1.0
C      1  0.5245400000000  0.5794530000000  0.4957750000000 1.0
C      1  0.4811190000000  0.5755480000000  0.4840230000000 1.0
C      1  0.5051490000000  0.4791270000000  0.4102990000000 1.0
C      1  0.5694940000000  0.4886850000000  0.5569950000000 1.0
C      1  0.4147460000000  0.4847700000000  0.5314210000000 1.0
C      1  0.4798660000000  0.5095660000000  0.4115540000000 1.0
C      1  0.4291580000000  0.5114500000000  0.5571790000000 1.0
C      1  0.5838580000000  0.5146480000000  0.5305730000000 1.0
C      1  0.4929110000000  0.4037580000000  0.5504470000000 1.0
C      1  0.4577790000000  0.4096630000000  0.4617690000000 1.0
C      1  0.5577520000000  0.4056350000000  0.4783740000000 1.0
C      1  0.5081020000000  0.5982120000000  0.5533320000000 1.0
C      1  0.5448410000000  0.5926520000000  0.4639400000000 1.0
C      1  0.4467640000000  0.5950090000000  0.4782080000000 1.0
C      1  0.4558490000000  0.4610580000000  0.5507170000000 1.0
C      1  0.4715880000000  0.4547130000000  0.4342150000000 1.0
C      1  0.5653460000000  0.4593000000000  0.5113370000000 1.0
C      1  0.5433290000000  0.5402170000000  0.5529370000000 1.0
C      1  0.5229430000000  0.5328240000000  0.4373610000000 1.0
C      1  0.4349110000000  0.5401240000000  0.5106700000000 1.0
C      1  0.4797010000000  0.4943960000000  0.3840950000000 1.0
C      1  0.6057200000000  0.4957460000000  0.5416710000000 1.0
C      1  0.4086860000000  0.4924180000000  0.5706620000000 1.0
C      1  0.5129450000000  0.5012260000000  0.3907690000000 1.0
C      1  0.3928040000000  0.5036680000000  0.5425190000000 1.0
C      1  0.5900230000000  0.5082370000000  0.5695490000000 1.0
C      1  0.4949810000000  0.4521310000000  0.5553060000000 1.0
C      1  0.4618420000000  0.4493660000000  0.4725190000000 1.0
C      1  0.5417580000000  0.4493600000000  0.4806620000000 1.0
C      1  0.5040020000000  0.5492320000000  0.5567310000000 1.0
C      1  0.5406990000000  0.5551420000000  0.4771340000000 1.0
C      1  0.4576010000000  0.5512320000000  0.4798170000000 1.0
C      1  0.4279450000000  0.5768050000000  0.4690040000000 1.0
C      1  0.5653490000000  0.5698840000000  0.4588980000000 1.0
C      1  0.5057340000000  0.5761870000000  0.5736410000000 1.0
C      1  0.5752770000000  0.4244690000000  0.4683620000000 1.0
C      1  0.4394490000000  0.4263810000000  0.4486510000000 1.0
C      1  0.4937020000000  0.4250530000000  0.5719830000000 1.0
C      1  0.5645220000000  0.5119800000000  0.5890300000000 1.0
C      1  0.3907940000000  0.5095420000000  0.5111670000000 1.0
C      1  0.5407730000000  0.5098610000000  0.3999170000000 1.0
C      1  0.4344110000000  0.4886830000000  0.5895250000000 1.0
C      1  0.6112330000000  0.4892040000000  0.5111730000000 1.0
C      1  0.4490700000000  0.4913040000000  0.3942440000000 1.0
C      1  0.5339890000000  0.4418370000000  0.4161320000000 1.0
C      1  0.5577840000000  0.4445900000000  0.5707110000000 1.0
C      1  0.4054270000000  0.4414330000000  0.5101990000000 1.0
C      1  0.4675290000000  0.5539110000000  0.4208490000000 1.0
C      1  0.4415730000000  0.5561200000000  0.5695660000000 1.0
C      1  0.5963000000000  0.5574730000000  0.5106940000000 1.0
C      1  0.4262480000000  0.4445930000000  0.4260250000000 1.0
C      1  0.5985960000000  0.4449830000000  0.4715520000000 1.0
C      1  0.4758600000000  0.4438490000000  0.5939160000000 1.0
C      1  0.5727120000000  0.5532750000000  0.4309040000000 1.0
C      1  0.4054930000000  0.5552910000000  0.4750160000000 1.0
C      1  0.5230510000000  0.5565940000000  0.5949900000000 1.0
C      1  0.4346670000000  0.4670110000000  0.4114180000000 1.0
C      1  0.6041800000000  0.4654460000000  0.4893410000000 1.0
C      1  0.4574960000000  0.4654090000000  0.5951570000000 1.0
C      1  0.5581910000000  0.5332140000000  0.4170780000000 1.0
C      1  0.3991200000000  0.5339710000000  0.4913770000000 1.0
C      1  0.5414420000000  0.5351060000000  0.5951500000000 1.0
C      1  0.5232290000000  0.5540200000000  0.5290250000000 1.0
C      1  0.4598830000000  0.5585930000000  0.5128620000000 1.0
C      1  0.5140010000000  0.5526520000000  0.4583670000000 1.0
C      1  0.4762280000000  0.4476860000000  0.5270080000000 1.0
C      1  0.5400600000000  0.4411250000000  0.5131200000000 1.0
C      1  0.4908780000000  0.4468280000000  0.4578240000000 1.0
C      1  0.5541930000000  0.5016600000000  0.5311500000000 1.0
C      1  0.4446640000000  0.4974910000000  0.5324380000000 1.0
C      1  0.4939830000000  0.4926830000000  0.4371120000000 1.0
C      1  0.5012560000000  0.4415340000000  0.5058670000000 1.0
C      1  0.4995730000000  0.5586530000000  0.5057560000000 1.0
END
