TITL C-2782239-8622-1213 0.000116131158448559 125000 -496.281091595721 0 0 85 (C1) n - 1
REM
REM in /home/nfs/bkarasulu/CARBON/AIRSS/Generating-Clusters/REBO/Higher-Symm/SD-CG/HFTN-CG
REM
REM
REM
REM
REM
REM ./C.cell (12c818d87b63d06a65506943cc24bca4)
REM
REM compiler GCC version 9.2.1 20190827 (Red Hat 9.2.1-1)
REM options -cpp -mtune=generic -march=x86-64 -g -O0 -fpre-include=/usr/include/finclude/math-vector-fortran.h
REM seed 536822010 -1329256309 -1918298012 1271685939 1111418749 -1631662529 1985027596 650128533 735332613 926512243 -936629613 1182759439 1775951676 -1808973543 342137206 -294007654 714922522 1259903573 -1602691137 541440829 27137415 -1856324480 285456197 445825758 -1179487247 1745965410 1449142567 -531496479 -1217479227 -1497476651 419837277 936906186 1247224083
REM
CELL 1.54180   50.00000   50.00000   50.00000   90.00000   90.00000   90.00000
LATT -1
SFAC C  
C      1  0.4873240000000  0.5908940000000  0.5253790000000 1.0
C      1  0.5210140000000  0.5895780000000  0.4736180000000 1.0
C      1  0.5272300000000  0.5662820000000  0.5452400000000 1.0
C      1  0.4797860000000  0.5663040000000  0.4611890000000 1.0
C      1  0.5261980000000  0.4407190000000  0.4326880000000 1.0
C      1  0.4756550000000  0.4418920000000  0.5625490000000 1.0
C      1  0.4655050000000  0.4929160000000  0.5697320000000 1.0
C      1  0.5352290000000  0.4902240000000  0.4293540000000 1.0
C      1  0.5157170000000  0.4983960000000  0.5916190000000 1.0
C      1  0.4845520000000  0.4999300000000  0.4123660000000 1.0
C      1  0.5410190000000  0.4951160000000  0.5463450000000 1.0
C      1  0.4555010000000  0.4870870000000  0.4530910000000 1.0
C      1  0.4772880000000  0.4564980000000  0.5184980000000 1.0
C      1  0.5255630000000  0.4507650000000  0.4815930000000 1.0
C      1  0.4489600000000  0.5235980000000  0.4679340000000 1.0
C      1  0.5433720000000  0.5366830000000  0.5398240000000 1.0
C      1  0.5134210000000  0.4882490000000  0.5285470000000 1.0
C      1  0.4867800000000  0.4836870000000  0.4662290000000 1.0
C      1  0.5136760000000  0.4705280000000  0.5866090000000 1.0
C      1  0.4877630000000  0.4716910000000  0.4128410000000 1.0
C      1  0.5288270000000  0.5157540000000  0.5705630000000 1.0
C      1  0.4690710000000  0.5127290000000  0.4352050000000 1.0
C      1  0.4320580000000  0.4570810000000  0.5373060000000 1.0
C      1  0.5705230000000  0.4547050000000  0.4609380000000 1.0
C      1  0.4355670000000  0.5404020000000  0.5117250000000 1.0
C      1  0.5658770000000  0.5324020000000  0.4847970000000 1.0
C      1  0.5115780000000  0.5418960000000  0.5628550000000 1.0
C      1  0.4853610000000  0.5380110000000  0.4510690000000 1.0
C      1  0.5492130000000  0.4628940000000  0.5446120000000 1.0
C      1  0.4577290000000  0.4545960000000  0.4526990000000 1.0
C      1  0.4485100000000  0.5054890000000  0.4951870000000 1.0
C      1  0.5470100000000  0.4937660000000  0.4874010000000 1.0
C      1  0.4427070000000  0.5482940000000  0.4849270000000 1.0
C      1  0.5643160000000  0.5432570000000  0.5166740000000 1.0
C      1  0.5716290000000  0.4547150000000  0.4897650000000 1.0
C      1  0.4343670000000  0.4551020000000  0.5089630000000 1.0
C      1  0.4857280000000  0.5010530000000  0.5435800000000 1.0
C      1  0.5146410000000  0.4964260000000  0.4542600000000 1.0
C      1  0.5339480000000  0.5698480000000  0.4884460000000 1.0
C      1  0.4714800000000  0.5724280000000  0.5118840000000 1.0
C      1  0.5393100000000  0.4483660000000  0.5233460000000 1.0
C      1  0.4665110000000  0.4429490000000  0.4761280000000 1.0
C      1  0.5038980000000  0.4503490000000  0.4180530000000 1.0
C      1  0.4983470000000  0.4498930000000  0.5775560000000 1.0
C      1  0.5152000000000  0.4640260000000  0.5097620000000 1.0
C      1  0.4882340000000  0.4619300000000  0.4889690000000 1.0
C      1  0.4634950000000  0.5463470000000  0.5284410000000 1.0
C      1  0.5377430000000  0.5427400000000  0.4743900000000 1.0
C      1  0.4686530000000  0.5179590000000  0.5117620000000 1.0
C      1  0.5300470000000  0.5163630000000  0.4920390000000 1.0
C      1  0.4525450000000  0.4643070000000  0.5615300000000 1.0
C      1  0.5486190000000  0.4623020000000  0.4374840000000 1.0
C      1  0.5147860000000  0.5272530000000  0.4571710000000 1.0
C      1  0.4875510000000  0.5325900000000  0.5436720000000 1.0
C      1  0.4614790000000  0.4155850000000  0.5167580000000 1.0
C      1  0.5380120000000  0.4186310000000  0.4839130000000 1.0
C      1  0.4811140000000  0.5140410000000  0.4740090000000 1.0
C      1  0.5167400000000  0.5217520000000  0.5291060000000 1.0
C      1  0.5223940000000  0.4274720000000  0.4574760000000 1.0
C      1  0.4779540000000  0.4315820000000  0.5349210000000 1.0
C      1  0.4247860000000  0.4919340000000  0.4651650000000 1.0
C      1  0.5712170000000  0.4929820000000  0.5301250000000 1.0
C      1  0.5362160000000  0.4751170000000  0.4660060000000 1.0
C      1  0.4662970000000  0.4774170000000  0.5338370000000 1.0
C      1  0.5596160000000  0.5245450000000  0.5658240000000 1.0
C      1  0.4369960000000  0.5194950000000  0.4389560000000 1.0
C      1  0.5914480000000  0.5129160000000  0.4799890000000 1.0
C      1  0.4146910000000  0.5216240000000  0.5116820000000 1.0
C      1  0.4358620000000  0.4788920000000  0.4942680000000 1.0
C      1  0.5669210000000  0.4804710000000  0.5017260000000 1.0
C      1  0.4988460000000  0.5866660000000  0.4579370000000 1.0
C      1  0.5082260000000  0.5905410000000  0.5426540000000 1.0
C      1  0.4686920000000  0.5056850000000  0.5933920000000 1.0
C      1  0.5317220000000  0.5058230000000  0.4074210000000 1.0
C      1  0.4124120000000  0.5033220000000  0.4365540000000 1.0
C      1  0.5776470000000  0.5043420000000  0.5593680000000 1.0
C      1  0.4933750000000  0.5097410000000  0.6049120000000 1.0
C      1  0.5061890000000  0.5137900000000  0.4003070000000 1.0
C      1  0.4077660000000  0.5066890000000  0.4898440000000 1.0
C      1  0.5816430000000  0.5162920000000  0.5110160000000 1.0
C      1  0.5436370000000  0.5678300000000  0.5154980000000 1.0
C      1  0.4632850000000  0.5676950000000  0.4845050000000 1.0
C      1  0.5550950000000  0.4348080000000  0.5032520000000 1.0
C      1  0.4490240000000  0.4327600000000  0.4970440000000 1.0
C      1  0.4990160000000  0.5173640000000  0.5007130000000 1.0
END
