TITL C-2782236-320-17 0.00279765688510504 125000 -997.693202882134 0 0 168 (C1) n - 1
REM
REM in /home/nfs/bkarasulu/CARBON/AIRSS/Generating-Clusters/REBO/Higher-Symm/SD-CG/HFTN-CG
REM
REM
REM
REM
REM
REM ./C.cell (12c818d87b63d06a65506943cc24bca4)
REM
REM compiler GCC version 9.2.1 20190827 (Red Hat 9.2.1-1)
REM options -cpp -mtune=generic -march=x86-64 -g -O0 -fpre-include=/usr/include/finclude/math-vector-fortran.h
REM seed 1333439090 -1338332868 1224755073 -1174504341 -1106671295 -1267508383 454854327 -1188699183 845302211 1014616275 190245674 1339999705 -1634596368 -670670368 -1244852726 -612158691 1840863720 -619471261 -347231772 1171842597 1069755746 -1853995024 1965461385 1647580365 1644136055 809695036 -2123141533 -131647863 -1089192392 -1958985397 1488267628 1409528775 179632962
REM
CELL 1.54180   50.00000   50.00000   50.00000   90.00000   90.00000   90.00000
LATT -1
SFAC C  
C      1  0.4586840000000  0.4489960000000  0.5121990000000 1.0
C      1  0.4343520000000  0.5014640000000  0.5120460000000 1.0
C      1  0.4609460000000  0.5531370000000  0.5141860000000 1.0
C      1  0.5166830000000  0.5644990000000  0.5142870000000 1.0
C      1  0.5611770000000  0.5285730000000  0.5136350000000 1.0
C      1  0.5614740000000  0.4701260000000  0.5142650000000 1.0
C      1  0.5146260000000  0.4352210000000  0.5137910000000 1.0
C      1  0.5271060000000  0.5255360000000  0.4102790000000 1.0
C      1  0.5368610000000  0.4929640000000  0.4110360000000 1.0
C      1  0.5167050000000  0.4665420000000  0.4106160000000 1.0
C      1  0.4835270000000  0.4673830000000  0.4082200000000 1.0
C      1  0.4601710000000  0.4911600000000  0.4075060000000 1.0
C      1  0.4660830000000  0.5239910000000  0.4073130000000 1.0
C      1  0.4958890000000  0.5391170000000  0.4085080000000 1.0
C      1  0.5497250000000  0.4622090000000  0.4174300000000 1.0
C      1  0.4993360000000  0.4390050000000  0.4171640000000 1.0
C      1  0.4515900000000  0.4585790000000  0.4125650000000 1.0
C      1  0.4353370000000  0.5121900000000  0.4151740000000 1.0
C      1  0.4664650000000  0.5566320000000  0.4120300000000 1.0
C      1  0.5221630000000  0.5588800000000  0.4152250000000 1.0
C      1  0.5597250000000  0.5175790000000  0.4157660000000 1.0
C      1  0.4570200000000  0.5433360000000  0.4517110000000 1.0
C      1  0.5052350000000  0.5633700000000  0.4511550000000 1.0
C      1  0.5540970000000  0.5355740000000  0.4508550000000 1.0
C      1  0.5607830000000  0.4787460000000  0.4519540000000 1.0
C      1  0.5183610000000  0.4382190000000  0.4522310000000 1.0
C      1  0.4676900000000  0.4461580000000  0.4515970000000 1.0
C      1  0.4352450000000  0.4922960000000  0.4497890000000 1.0
C      1  0.5321440000000  0.4306710000000  0.4782290000000 1.0
C      1  0.4725840000000  0.4281430000000  0.4756210000000 1.0
C      1  0.4269530000000  0.4831400000000  0.4773470000000 1.0
C      1  0.4465470000000  0.5484150000000  0.4772830000000 1.0
C      1  0.4922420000000  0.5778770000000  0.4761840000000 1.0
C      1  0.5587540000000  0.5500380000000  0.4769330000000 1.0
C      1  0.5740980000000  0.4839080000000  0.4784770000000 1.0
C      1  0.5308560000000  0.5180650000000  0.5702770000000 1.0
C      1  0.5338210000000  0.4880210000000  0.5706110000000 1.0
C      1  0.5119440000000  0.4671880000000  0.5706950000000 1.0
C      1  0.4813910000000  0.4702220000000  0.5695890000000 1.0
C      1  0.4649750000000  0.4957600000000  0.5694280000000 1.0
C      1  0.4755290000000  0.5238120000000  0.5706200000000 1.0
C      1  0.5046840000000  0.5338670000000  0.5706720000000 1.0
C      1  0.4950330000000  0.4181120000000  0.4440870000000 1.0
C      1  0.4373540000000  0.4422260000000  0.4395030000000 1.0
C      1  0.4167730000000  0.5176890000000  0.4435880000000 1.0
C      1  0.4590530000000  0.5800720000000  0.4360700000000 1.0
C      1  0.5322350000000  0.5776470000000  0.4424950000000 1.0
C      1  0.5814190000000  0.5221380000000  0.4424240000000 1.0
C      1  0.5660520000000  0.4485780000000  0.4448160000000 1.0
C      1  0.4223430000000  0.4395150000000  0.4984550000000 1.0
C      1  0.4021780000000  0.5261300000000  0.5032760000000 1.0
C      1  0.4593390000000  0.5910640000000  0.4997100000000 1.0
C      1  0.5445050000000  0.5897090000000  0.5006320000000 1.0
C      1  0.5988000000000  0.5219420000000  0.5020560000000 1.0
C      1  0.5785460000000  0.4352930000000  0.5045940000000 1.0
C      1  0.4988410000000  0.3974910000000  0.4994290000000 1.0
C      1  0.5754200000000  0.5753360000000  0.5027120000000 1.0
C      1  0.6031340000000  0.4882210000000  0.5053660000000 1.0
C      1  0.5567470000000  0.4098200000000  0.5107590000000 1.0
C      1  0.4649460000000  0.4008770000000  0.5038090000000 1.0
C      1  0.3993120000000  0.4647100000000  0.4989760000000 1.0
C      1  0.4120980000000  0.5582330000000  0.5088590000000 1.0
C      1  0.4903450000000  0.6035430000000  0.5068030000000 1.0
C      1  0.5277130000000  0.5154170000000  0.5305880000000 1.0
C      1  0.5304570000000  0.4885840000000  0.5308670000000 1.0
C      1  0.5103410000000  0.4706100000000  0.5310320000000 1.0
C      1  0.4836000000000  0.4743290000000  0.5299770000000 1.0
C      1  0.4696950000000  0.4974790000000  0.5298420000000 1.0
C      1  0.4795390000000  0.5224750000000  0.5309910000000 1.0
C      1  0.5052660000000  0.5303080000000  0.5309520000000 1.0
C      1  0.5781660000000  0.5654940000000  0.5315090000000 1.0
C      1  0.5946900000000  0.4808990000000  0.5337550000000 1.0
C      1  0.5428000000000  0.4131390000000  0.5380990000000 1.0
C      1  0.4586800000000  0.4121350000000  0.5329300000000 1.0
C      1  0.4023010000000  0.4754370000000  0.5288310000000 1.0
C      1  0.4249000000000  0.5593340000000  0.5372160000000 1.0
C      1  0.4999660000000  0.5967790000000  0.5356960000000 1.0
C      1  0.3954380000000  0.4489020000000  0.4712030000000 1.0
C      1  0.4015670000000  0.5549840000000  0.4764930000000 1.0
C      1  0.4809720000000  0.6161240000000  0.4782360000000 1.0
C      1  0.5725440000000  0.5873630000000  0.4728590000000 1.0
C      1  0.6119140000000  0.4960490000000  0.4752130000000 1.0
C      1  0.5663390000000  0.4087220000000  0.4780760000000 1.0
C      1  0.4699980000000  0.3762700000000  0.4822340000000 1.0
C      1  0.5890870000000  0.5494650000000  0.4855330000000 1.0
C      1  0.5930350000000  0.4606620000000  0.4880180000000 1.0
C      1  0.5296120000000  0.4044260000000  0.4931840000000 1.0
C      1  0.4439460000000  0.4187000000000  0.4850510000000 1.0
C      1  0.4002590000000  0.4965140000000  0.4878760000000 1.0
C      1  0.4351680000000  0.5715000000000  0.4897710000000 1.0
C      1  0.5158130000000  0.5982260000000  0.4853030000000 1.0
C      1  0.5569690000000  0.4786670000000  0.5471110000000 1.0
C      1  0.5173560000000  0.4425530000000  0.5471480000000 1.0
C      1  0.4667230000000  0.4507130000000  0.5452220000000 1.0
C      1  0.4413020000000  0.4944310000000  0.5446340000000 1.0
C      1  0.4605230000000  0.5442620000000  0.5472580000000 1.0
C      1  0.5102310000000  0.5583690000000  0.5470230000000 1.0
C      1  0.5517600000000  0.5304660000000  0.5459430000000 1.0
C      1  0.4482650000000  0.5256390000000  0.4994270000000 1.0
C      1  0.4886540000000  0.5587930000000  0.4997460000000 1.0
C      1  0.5383070000000  0.5470260000000  0.4998140000000 1.0
C      1  0.5606350000000  0.5006990000000  0.5008800000000 1.0
C      1  0.5392990000000  0.4536330000000  0.4993260000000 1.0
C      1  0.4876610000000  0.4424620000000  0.4985610000000 1.0
C      1  0.4482930000000  0.4746530000000  0.4982310000000 1.0
C      1  0.5523170000000  0.5564930000000  0.4285130000000 1.0
C      1  0.5764400000000  0.4928820000000  0.4301830000000 1.0
C      1  0.5404110000000  0.4338850000000  0.4316480000000 1.0
C      1  0.4685800000000  0.4265110000000  0.4242310000000 1.0
C      1  0.4268950000000  0.4715060000000  0.4297810000000 1.0
C      1  0.4362950000000  0.5409640000000  0.4323440000000 1.0
C      1  0.4891050000000  0.5734780000000  0.4276400000000 1.0
C      1  0.4419490000000  0.5659520000000  0.5658790000000 1.0
C      1  0.5141420000000  0.5868190000000  0.5650750000000 1.0
C      1  0.5713480000000  0.5521890000000  0.5615740000000 1.0
C      1  0.5851030000000  0.4711590000000  0.5647160000000 1.0
C      1  0.5234410000000  0.4145080000000  0.5655860000000 1.0
C      1  0.4501090000000  0.4266750000000  0.5625590000000 1.0
C      1  0.4137820000000  0.4832170000000  0.5595020000000 1.0
C      1  0.5888380000000  0.5331350000000  0.5313050000000 1.0
C      1  0.5806050000000  0.4497420000000  0.5333940000000 1.0
C      1  0.5105380000000  0.4067310000000  0.5289250000000 1.0
C      1  0.4333830000000  0.4343640000000  0.5274850000000 1.0
C      1  0.4072710000000  0.5091790000000  0.5300980000000 1.0
C      1  0.4512200000000  0.5798350000000  0.5299610000000 1.0
C      1  0.5326030000000  0.5887510000000  0.5300850000000 1.0
C      1  0.4352960000000  0.4893140000000  0.5836560000000 1.0
C      1  0.4540430000000  0.5430870000000  0.5866840000000 1.0
C      1  0.5038840000000  0.5631130000000  0.5860620000000 1.0
C      1  0.5548430000000  0.5361220000000  0.5851920000000 1.0
C      1  0.5617080000000  0.4787010000000  0.5867260000000 1.0
C      1  0.5215720000000  0.4399760000000  0.5868200000000 1.0
C      1  0.4686440000000  0.4435850000000  0.5843850000000 1.0
C      1  0.4740460000000  0.5136550000000  0.4886520000000 1.0
C      1  0.4945700000000  0.5307490000000  0.4895140000000 1.0
C      1  0.5205530000000  0.5246470000000  0.4894740000000 1.0
C      1  0.5323140000000  0.5005630000000  0.4894880000000 1.0
C      1  0.5212790000000  0.4760990000000  0.4888040000000 1.0
C      1  0.4951000000000  0.4699680000000  0.4880350000000 1.0
C      1  0.4741000000000  0.4868040000000  0.4876570000000 1.0
C      1  0.5701970000000  0.5081220000000  0.5734340000000 1.0
C      1  0.5493870000000  0.4505590000000  0.5745300000000 1.0
C      1  0.4927520000000  0.4242910000000  0.5776450000000 1.0
C      1  0.4382270000000  0.4563540000000  0.5755970000000 1.0
C      1  0.4342400000000  0.5212150000000  0.5734060000000 1.0
C      1  0.4737040000000  0.5697950000000  0.5787500000000 1.0
C      1  0.5370120000000  0.5641730000000  0.5775540000000 1.0
C      1  0.4776480000000  0.5224360000000  0.4498160000000 1.0
C      1  0.5044050000000  0.5320740000000  0.4508050000000 1.0
C      1  0.5284340000000  0.5172970000000  0.4509670000000 1.0
C      1  0.5310260000000  0.4887070000000  0.4513150000000 1.0
C      1  0.5103410000000  0.4690140000000  0.4510220000000 1.0
C      1  0.4824540000000  0.4725540000000  0.4501910000000 1.0
C      1  0.4670330000000  0.4959940000000  0.4491550000000 1.0
C      1  0.4014070000000  0.5245390000000  0.4686110000000 1.0
C      1  0.4627910000000  0.5903970000000  0.4652950000000 1.0
C      1  0.5425930000000  0.5924150000000  0.4661070000000 1.0
C      1  0.5992920000000  0.5231920000000  0.4670710000000 1.0
C      1  0.5782990000000  0.4360800000000  0.4697070000000 1.0
C      1  0.4863820000000  0.4002160000000  0.4681960000000 1.0
C      1  0.4216710000000  0.4328740000000  0.4643120000000 1.0
C      1  0.4727800000000  0.5865660000000  0.5508930000000 1.0
C      1  0.5519640000000  0.5776260000000  0.5499520000000 1.0
C      1  0.5846840000000  0.5082650000000  0.5503940000000 1.0
C      1  0.5581060000000  0.4382130000000  0.5523720000000 1.0
C      1  0.4873270000000  0.4098640000000  0.5490410000000 1.0
C      1  0.4200430000000  0.4523480000000  0.5470040000000 1.0
C      1  0.4216390000000  0.5288140000000  0.5506460000000 1.0
END
