TITL C-2782238-9940-931 -0.000800101707276529 125000 -482.725845715945 0 0 85 (C1) n - 1
REM
REM in /home/nfs/bkarasulu/CARBON/AIRSS/Generating-Clusters/REBO/Higher-Symm/SD-CG/HFTN-CG
REM
REM
REM
REM
REM
REM ./C.cell (12c818d87b63d06a65506943cc24bca4)
REM
REM compiler GCC version 9.2.1 20190827 (Red Hat 9.2.1-1)
REM options -cpp -mtune=generic -march=x86-64 -g -O0 -fpre-include=/usr/include/finclude/math-vector-fortran.h
REM seed 694346535 -1993058673 689794854 80100746 -321106477 -1789696343 -638959408 -1451003976 1669071697 134266365 93506280 879824402 -1341592239 -439780434 -604340956 1133049677 636513896 963773101 -902932606 -43599250 -1205801456 -2107133291 34313199 1437629098 -1893399118 -624721378 1958473426 -474878501 -616702868 -1225412885 -101810800 845376547 -1433606093
REM
CELL 1.54180   50.00000   50.00000   50.00000   90.00000   90.00000   90.00000
LATT -1
SFAC C  
C      1  0.4830140000000  0.5644690000000  0.5436470000000 1.0
C      1  0.5265530000000  0.4901000000000  0.4729570000000 1.0
C      1  0.5032530000000  0.4534240000000  0.4515250000000 1.0
C      1  0.4682640000000  0.5521340000000  0.5168380000000 1.0
C      1  0.4885970000000  0.4404550000000  0.5734560000000 1.0
C      1  0.5244690000000  0.5206870000000  0.4577810000000 1.0
C      1  0.4967600000000  0.5088380000000  0.5093290000000 1.0
C      1  0.5852180000000  0.4806080000000  0.4985530000000 1.0
C      1  0.4447200000000  0.4843730000000  0.4210980000000 1.0
C      1  0.5348740000000  0.4650090000000  0.4904010000000 1.0
C      1  0.4222130000000  0.4779040000000  0.5356740000000 1.0
C      1  0.4478300000000  0.4955810000000  0.4814970000000 1.0
C      1  0.4910710000000  0.5431730000000  0.5667350000000 1.0
C      1  0.4479380000000  0.5455780000000  0.5412650000000 1.0
C      1  0.5441650000000  0.4158870000000  0.4927330000000 1.0
C      1  0.4697420000000  0.5423140000000  0.4348020000000 1.0
C      1  0.4898570000000  0.4675950000000  0.5749530000000 1.0
C      1  0.4303100000000  0.5495950000000  0.5057320000000 1.0
C      1  0.5222690000000  0.5201730000000  0.5242320000000 1.0
C      1  0.5539830000000  0.3922190000000  0.4838060000000 1.0
C      1  0.4749190000000  0.5172980000000  0.5661800000000 1.0
C      1  0.5040980000000  0.4199190000000  0.5609870000000 1.0
C      1  0.5172240000000  0.5441160000000  0.5455900000000 1.0
C      1  0.5593750000000  0.5449680000000  0.4614260000000 1.0
C      1  0.4511780000000  0.5724570000000  0.4964900000000 1.0
C      1  0.4207650000000  0.5030270000000  0.4792020000000 1.0
C      1  0.5216220000000  0.5325530000000  0.5772210000000 1.0
C      1  0.5407430000000  0.4459960000000  0.5459280000000 1.0
C      1  0.4922330000000  0.5712630000000  0.4664950000000 1.0
C      1  0.5822100000000  0.4532070000000  0.4846390000000 1.0
C      1  0.5157130000000  0.4870980000000  0.4167390000000 1.0
C      1  0.4515820000000  0.4415750000000  0.5304680000000 1.0
C      1  0.4975980000000  0.5792570000000  0.5186360000000 1.0
C      1  0.5309930000000  0.5321280000000  0.4105150000000 1.0
C      1  0.4768920000000  0.4530760000000  0.4406770000000 1.0
C      1  0.5509040000000  0.5699920000000  0.5245380000000 1.0
C      1  0.4706520000000  0.5157160000000  0.4158770000000 1.0
C      1  0.4317660000000  0.4531870000000  0.5471060000000 1.0
C      1  0.5149870000000  0.5499800000000  0.4914890000000 1.0
C      1  0.5864060000000  0.5089400000000  0.5016560000000 1.0
C      1  0.5252780000000  0.5065310000000  0.5555240000000 1.0
C      1  0.5553200000000  0.5179220000000  0.5464170000000 1.0
C      1  0.5223240000000  0.4183320000000  0.5104580000000 1.0
C      1  0.4113880000000  0.5249430000000  0.4971620000000 1.0
C      1  0.4462520000000  0.5779620000000  0.4653750000000 1.0
C      1  0.5051970000000  0.4570950000000  0.4799450000000 1.0
C      1  0.5652430000000  0.5469420000000  0.5337710000000 1.0
C      1  0.5559020000000  0.4412810000000  0.4861860000000 1.0
C      1  0.4937670000000  0.4940850000000  0.5585590000000 1.0
C      1  0.4491410000000  0.5209300000000  0.5552970000000 1.0
C      1  0.4685340000000  0.4939680000000  0.4628680000000 1.0
C      1  0.4845870000000  0.5795600000000  0.4931790000000 1.0
C      1  0.5415870000000  0.5309750000000  0.5011870000000 1.0
C      1  0.5606290000000  0.4641860000000  0.5386990000000 1.0
C      1  0.4965790000000  0.4959540000000  0.4793070000000 1.0
C      1  0.5593790000000  0.4718340000000  0.5115830000000 1.0
C      1  0.5048610000000  0.5424390000000  0.4535550000000 1.0
C      1  0.4398810000000  0.5187020000000  0.5130380000000 1.0
C      1  0.4712910000000  0.4067120000000  0.5091060000000 1.0
C      1  0.5383020000000  0.5606570000000  0.4686930000000 1.0
C      1  0.4298750000000  0.5015240000000  0.5489050000000 1.0
C      1  0.4507760000000  0.4543040000000  0.4996890000000 1.0
C      1  0.4780290000000  0.4707670000000  0.4938570000000 1.0
C      1  0.5672320000000  0.5223940000000  0.4835200000000 1.0
C      1  0.4961040000000  0.4571030000000  0.5277470000000 1.0
C      1  0.4630630000000  0.4779000000000  0.4400190000000 1.0
C      1  0.4676480000000  0.5700330000000  0.4499150000000 1.0
C      1  0.5216370000000  0.4454950000000  0.5236160000000 1.0
C      1  0.5322960000000  0.4256160000000  0.5639880000000 1.0
C      1  0.5215370000000  0.4664030000000  0.4337640000000 1.0
C      1  0.4256900000000  0.4739270000000  0.5068060000000 1.0
C      1  0.4989430000000  0.5082060000000  0.4103240000000 1.0
C      1  0.5823940000000  0.5195480000000  0.5280230000000 1.0
C      1  0.5451170000000  0.5199000000000  0.4313190000000 1.0
C      1  0.5223030000000  0.5703820000000  0.5333490000000 1.0
C      1  0.4597980000000  0.4940470000000  0.5119290000000 1.0
C      1  0.4751200000000  0.5352570000000  0.4678750000000 1.0
C      1  0.4566280000000  0.4221030000000  0.4960110000000 1.0
C      1  0.4870240000000  0.5371810000000  0.4975650000000 1.0
C      1  0.5393520000000  0.5731440000000  0.4973990000000 1.0
C      1  0.4966580000000  0.4094830000000  0.5296300000000 1.0
C      1  0.5538690000000  0.5053980000000  0.4605330000000 1.0
C      1  0.4870080000000  0.4859600000000  0.5296620000000 1.0
C      1  0.4784340000000  0.4362600000000  0.5350540000000 1.0
C      1  0.5010620000000  0.5407890000000  0.4207150000000 1.0
END
