TITL C-2782227-3064-1130 -0.00287945210511865 125000 -370.604450675931 0 0 63 (C1) n - 1
REM
REM in /home/nfs/bkarasulu/CARBON/AIRSS/Generating-Clusters/REBO/Higher-Symm/SD-CG/HFTN-CG
REM
REM
REM
REM
REM
REM ./C.cell (12c818d87b63d06a65506943cc24bca4)
REM
REM compiler GCC version 9.2.1 20190827 (Red Hat 9.2.1-1)
REM options -cpp -mtune=generic -march=x86-64 -g -O0 -fpre-include=/usr/include/finclude/math-vector-fortran.h
REM seed -492489801 -1117994108 -1314204301 1323484695 229478868 1882486771 -1205157381 -1323295455 1757212210 174225248 -2094836141 -993468911 -2065075180 -365737514 1500195988 1238560404 -1516264047 947459017 650236730 2116136608 -887454418 1019549941 700301914 648585703 762203094 300619751 -621861313 104524375 2146112961 -21782464 -747068985 -672024447 -1208422571
REM
CELL 1.54180   50.00000   50.00000   50.00000   90.00000   90.00000   90.00000
LATT -1
SFAC C  
C      1  0.4814740000000  0.4553310000000  0.5409680000000 1.0
C      1  0.4754990000000  0.5056390000000  0.5632930000000 1.0
C      1  0.4719890000000  0.5543430000000  0.5368940000000 1.0
C      1  0.4710000000000  0.5638870000000  0.4821510000000 1.0
C      1  0.4735490000000  0.5271750000000  0.4405900000000 1.0
C      1  0.4739760000000  0.4715040000000  0.4423970000000 1.0
C      1  0.4776520000000  0.4391620000000  0.4877260000000 1.0
C      1  0.5174170000000  0.3687150000000  0.4731120000000 1.0
C      1  0.5596400000000  0.4594770000000  0.5506960000000 1.0
C      1  0.5129540000000  0.5120440000000  0.6361850000000 1.0
C      1  0.5422840000000  0.5534160000000  0.5426510000000 1.0
C      1  0.5432440000000  0.5676350000000  0.4872760000000 1.0
C      1  0.5492460000000  0.5322500000000  0.4429390000000 1.0
C      1  0.5095480000000  0.4375940000000  0.3764980000000 1.0
C      1  0.5399650000000  0.4615960000000  0.4894360000000 1.0
C      1  0.5424060000000  0.4699970000000  0.5163300000000 1.0
C      1  0.5234230000000  0.4884830000000  0.5268330000000 1.0
C      1  0.5236320000000  0.5146780000000  0.5159350000000 1.0
C      1  0.5162380000000  0.5157510000000  0.4886180000000 1.0
C      1  0.5349870000000  0.5061810000000  0.4695490000000 1.0
C      1  0.5375480000000  0.4780530000000  0.4674580000000 1.0
C      1  0.4572390000000  0.5282120000000  0.5491510000000 1.0
C      1  0.4546810000000  0.5571770000000  0.5096170000000 1.0
C      1  0.4549570000000  0.5440790000000  0.4618620000000 1.0
C      1  0.4567460000000  0.4987580000000  0.4428120000000 1.0
C      1  0.4595550000000  0.4556130000000  0.4665720000000 1.0
C      1  0.4625070000000  0.4472030000000  0.5150190000000 1.0
C      1  0.4613930000000  0.4792760000000  0.5513310000000 1.0
C      1  0.5259060000000  0.5353510000000  0.4298800000000 1.0
C      1  0.4982080000000  0.4484040000000  0.3975070000000 1.0
C      1  0.5047390000000  0.3911740000000  0.4777710000000 1.0
C      1  0.5346470000000  0.4502550000000  0.5558380000000 1.0
C      1  0.5010130000000  0.5100020000000  0.6129460000000 1.0
C      1  0.5208930000000  0.5669740000000  0.5515410000000 1.0
C      1  0.5209460000000  0.5816620000000  0.4815190000000 1.0
C      1  0.5714960000000  0.4782610000000  0.5266280000000 1.0
C      1  0.5711530000000  0.5110120000000  0.5310420000000 1.0
C      1  0.5490780000000  0.5317000000000  0.5217310000000 1.0
C      1  0.5555550000000  0.5445080000000  0.4939250000000 1.0
C      1  0.5616860000000  0.5236100000000  0.4718070000000 1.0
C      1  0.5843170000000  0.5051620000000  0.4820050000000 1.0
C      1  0.5878720000000  0.4900750000000  0.5013810000000 1.0
C      1  0.4396510000000  0.4989730000000  0.4666930000000 1.0
C      1  0.4415430000000  0.4736420000000  0.4808040000000 1.0
C      1  0.4428600000000  0.4681960000000  0.5092050000000 1.0
C      1  0.4422250000000  0.4871040000000  0.5306750000000 1.0
C      1  0.4401020000000  0.5159140000000  0.5289550000000 1.0
C      1  0.4384420000000  0.5330530000000  0.5056210000000 1.0
C      1  0.4383630000000  0.5256040000000  0.4776580000000 1.0
C      1  0.4833980000000  0.4874050000000  0.4703500000000 1.0
C      1  0.4852300000000  0.4713990000000  0.4928070000000 1.0
C      1  0.4852020000000  0.4797680000000  0.5192540000000 1.0
C      1  0.4840920000000  0.5049460000000  0.5308430000000 1.0
C      1  0.4819000000000  0.5290750000000  0.5177670000000 1.0
C      1  0.4803820000000  0.5332340000000  0.4906620000000 1.0
C      1  0.4809070000000  0.5148810000000  0.4701320000000 1.0
C      1  0.4889880000000  0.5079460000000  0.5895440000000 1.0
C      1  0.4941640000000  0.5696400000000  0.5503090000000 1.0
C      1  0.4942360000000  0.5828450000000  0.4786960000000 1.0
C      1  0.4992370000000  0.5348720000000  0.4261220000000 1.0
C      1  0.4867880000000  0.4592910000000  0.4186620000000 1.0
C      1  0.4919730000000  0.4137900000000  0.4824630000000 1.0
C      1  0.5080590000000  0.4470430000000  0.5533590000000 1.0
END
