TITL C-2782239-8622-416 0.000397779252069149 125000 -510.287644250159 0 0 91 (C1) n - 1
REM
REM in /home/nfs/bkarasulu/CARBON/AIRSS/Generating-Clusters/REBO/Higher-Symm/SD-CG/HFTN-CG
REM
REM
REM
REM
REM
REM ./C.cell (12c818d87b63d06a65506943cc24bca4)
REM
REM compiler GCC version 9.2.1 20190827 (Red Hat 9.2.1-1)
REM options -cpp -mtune=generic -march=x86-64 -g -O0 -fpre-include=/usr/include/finclude/math-vector-fortran.h
REM seed -1567823391 157162701 -1098409405 -340015836 675509324 509563944 512312113 827691986 458026 479388790 -443662686 -1176281888 1180454491 472221508 1920818554 2131069679 -346923275 75329427 2078630564 1746237063 -1950658727 1704933021 -972000346 211096265 1317527041 -525464706 -2123324825 2100065225 1073714256 -1973266297 66767189 -2030235118 728256445
REM
CELL 1.54180   50.00000   50.00000   50.00000   90.00000   90.00000   90.00000
LATT -1
SFAC C  
C      1  0.5146370000000  0.5785400000000  0.4789430000000 1.0
C      1  0.4925520000000  0.5792090000000  0.5272590000000 1.0
C      1  0.4714940000000  0.5229600000000  0.5014580000000 1.0
C      1  0.5057670000000  0.5240590000000  0.4987840000000 1.0
C      1  0.4448310000000  0.4522290000000  0.5016020000000 1.0
C      1  0.5526470000000  0.4547460000000  0.4961090000000 1.0
C      1  0.4743190000000  0.5127030000000  0.5394310000000 1.0
C      1  0.5218930000000  0.5161280000000  0.4621450000000 1.0
C      1  0.4875590000000  0.4673470000000  0.4798350000000 1.0
C      1  0.5123030000000  0.4749720000000  0.5192030000000 1.0
C      1  0.4488090000000  0.4479960000000  0.5318860000000 1.0
C      1  0.5493920000000  0.4557480000000  0.4646160000000 1.0
C      1  0.5492150000000  0.5026310000000  0.4776980000000 1.0
C      1  0.4485480000000  0.4980440000000  0.5225640000000 1.0
C      1  0.5254420000000  0.4365720000000  0.4510410000000 1.0
C      1  0.4760920000000  0.4521010000000  0.5520360000000 1.0
C      1  0.4350130000000  0.4755480000000  0.5445400000000 1.0
C      1  0.5643040000000  0.4824390000000  0.4542590000000 1.0
C      1  0.4742870000000  0.5518800000000  0.5499070000000 1.0
C      1  0.5277420000000  0.5536790000000  0.4506350000000 1.0
C      1  0.5142190000000  0.5845470000000  0.4520540000000 1.0
C      1  0.4856580000000  0.5829680000000  0.5533430000000 1.0
C      1  0.4746480000000  0.4409210000000  0.4455630000000 1.0
C      1  0.5246100000000  0.4432430000000  0.5531090000000 1.0
C      1  0.4523910000000  0.4796060000000  0.4261900000000 1.0
C      1  0.5508260000000  0.4818180000000  0.5722690000000 1.0
C      1  0.4845310000000  0.5342380000000  0.5714710000000 1.0
C      1  0.5171170000000  0.5360440000000  0.4281490000000 1.0
C      1  0.5228030000000  0.4899980000000  0.5455150000000 1.0
C      1  0.4773820000000  0.4871350000000  0.4563060000000 1.0
C      1  0.4657520000000  0.5235150000000  0.4446520000000 1.0
C      1  0.5332840000000  0.5275240000000  0.5534810000000 1.0
C      1  0.5490600000000  0.4592490000000  0.5523920000000 1.0
C      1  0.4510400000000  0.4574710000000  0.4454040000000 1.0
C      1  0.4857990000000  0.5309070000000  0.4229560000000 1.0
C      1  0.5159460000000  0.5326110000000  0.5777910000000 1.0
C      1  0.5111290000000  0.4260390000000  0.5276830000000 1.0
C      1  0.4797210000000  0.4186260000000  0.4692580000000 1.0
C      1  0.5891210000000  0.5161920000000  0.4942660000000 1.0
C      1  0.4145110000000  0.5124410000000  0.5074810000000 1.0
C      1  0.5124580000000  0.4181510000000  0.4712900000000 1.0
C      1  0.4772470000000  0.4293480000000  0.5267740000000 1.0
C      1  0.5264420000000  0.4493490000000  0.5137190000000 1.0
C      1  0.4700710000000  0.4441490000000  0.4850920000000 1.0
C      1  0.4829940000000  0.5545770000000  0.4804490000000 1.0
C      1  0.5290560000000  0.5465710000000  0.5206550000000 1.0
C      1  0.4553670000000  0.5039950000000  0.4703140000000 1.0
C      1  0.5417600000000  0.5088830000000  0.5271610000000 1.0
C      1  0.5861200000000  0.5134120000000  0.5542630000000 1.0
C      1  0.4175670000000  0.5085000000000  0.4480230000000 1.0
C      1  0.4549870000000  0.4949990000000  0.5617540000000 1.0
C      1  0.5428520000000  0.5023370000000  0.4386190000000 1.0
C      1  0.5794690000000  0.5108610000000  0.4654150000000 1.0
C      1  0.4200840000000  0.5057560000000  0.5378980000000 1.0
C      1  0.5759130000000  0.5370100000000  0.4495890000000 1.0
C      1  0.4269520000000  0.5333270000000  0.5511270000000 1.0
C      1  0.5012590000000  0.4554860000000  0.5710680000000 1.0
C      1  0.5031260000000  0.4539870000000  0.4334520000000 1.0
C      1  0.5609070000000  0.4640350000000  0.5273070000000 1.0
C      1  0.4380250000000  0.4623320000000  0.4698480000000 1.0
C      1  0.5193580000000  0.4831140000000  0.5793560000000 1.0
C      1  0.4843180000000  0.4809860000000  0.4233730000000 1.0
C      1  0.5505550000000  0.5619280000000  0.5100900000000 1.0
C      1  0.4550670000000  0.5639300000000  0.4882070000000 1.0
C      1  0.5577150000000  0.5550860000000  0.4593070000000 1.0
C      1  0.4453710000000  0.5502220000000  0.5387870000000 1.0
C      1  0.4416940000000  0.5249700000000  0.4925500000000 1.0
C      1  0.5647430000000  0.5246440000000  0.5126550000000 1.0
C      1  0.5054690000000  0.5251810000000  0.5329300000000 1.0
C      1  0.4929280000000  0.5341330000000  0.4622760000000 1.0
C      1  0.4429270000000  0.4852090000000  0.4947380000000 1.0
C      1  0.5517530000000  0.4878630000000  0.5046640000000 1.0
C      1  0.5139030000000  0.4937200000000  0.4938480000000 1.0
C      1  0.4815650000000  0.4925370000000  0.5007770000000 1.0
C      1  0.5056210000000  0.5063160000000  0.4151390000000 1.0
C      1  0.4975180000000  0.5072330000000  0.5880460000000 1.0
C      1  0.4793770000000  0.4727900000000  0.5257630000000 1.0
C      1  0.5210490000000  0.4675910000000  0.4754050000000 1.0
C      1  0.5093440000000  0.4878720000000  0.4536110000000 1.0
C      1  0.4923440000000  0.4887160000000  0.5508300000000 1.0
C      1  0.4414550000000  0.5050170000000  0.4330560000000 1.0
C      1  0.5594780000000  0.5078440000000  0.5629500000000 1.0
C      1  0.4144720000000  0.5142690000000  0.4750660000000 1.0
C      1  0.5922460000000  0.5192120000000  0.5270980000000 1.0
C      1  0.4427110000000  0.5602690000000  0.5124860000000 1.0
C      1  0.5613180000000  0.5655560000000  0.4853160000000 1.0
C      1  0.4825120000000  0.5522940000000  0.5147700000000 1.0
C      1  0.5220990000000  0.5485700000000  0.4853940000000 1.0
C      1  0.4796140000000  0.4804540000000  0.5800760000000 1.0
C      1  0.5236690000000  0.4795040000000  0.4237380000000 1.0
C      1  0.4942250000000  0.4163700000000  0.5002000000000 1.0
END
