TITL C-2782228-2999-336 -0.00108594030017072 125000 -258.501090416501 0 0 47 (C5) n - 1
REM
REM in /home/nfs/bkarasulu/CARBON/AIRSS/Generating-Clusters/REBO/Higher-Symm/SD-CG/HFTN-CG
REM
REM
REM
REM
REM
REM ./C.cell (12c818d87b63d06a65506943cc24bca4)
REM
REM compiler GCC version 9.2.1 20190827 (Red Hat 9.2.1-1)
REM options -cpp -mtune=generic -march=x86-64 -g -O0 -fpre-include=/usr/include/finclude/math-vector-fortran.h
REM seed -696243470 -1334021718 -249890572 -1362947421 1277533811 1534134704 375221285 -305458943 1839650998 -1923144434 -1741754151 -1331045109 -59831239 1370770351 -903658052 258014967 -762542292 -1477033367 -1802951652 1845208190 -744723707 290226863 -1236202365 -498685405 788783894 1367751903 229711030 2116570832 1525642026 -511312853 310383681 -1184928607 1041986226
REM
CELL 1.54180   50.00000   50.00000   50.00000   90.00000   90.00000   90.00000
LATT -1
SFAC C  
C      1  0.5240760000000  0.4927520000000  0.4892800000000 1.0
C      1  0.4969300000000  0.4927510000000  0.4743270000000 1.0
C      1  0.4743210000000  0.4927510000000  0.4955240000000 1.0
C      1  0.4874940000000  0.4927510000000  0.5235770000000 1.0
C      1  0.5182440000000  0.4927520000000  0.5197180000000 1.0
C      1  0.4934210000000  0.5161770000000  0.4538230000000 1.0
C      1  0.4537360000000  0.5161770000000  0.4925250000000 1.0
C      1  0.4782800000000  0.5161770000000  0.5422280000000 1.0
C      1  0.5331340000000  0.5161780000000  0.5342440000000 1.0
C      1  0.5424920000000  0.5161780000000  0.4796070000000 1.0
C      1  0.5553030000000  0.4925480000000  0.5445870000000 1.0
C      1  0.5591790000000  0.4925480000000  0.4617190000000 1.0
C      1  0.4815660000000  0.4925470000000  0.4324250000000 1.0
C      1  0.4297220000000  0.4925470000000  0.4971880000000 1.0
C      1  0.4752940000000  0.4925470000000  0.5665080000000 1.0
C      1  0.5288340000000  0.5570040000000  0.5049830000000 1.0
C      1  0.5133340000000  0.5570040000000  0.4746550000000 1.0
C      1  0.4797010000000  0.5570030000000  0.4800240000000 1.0
C      1  0.4744140000000  0.5570030000000  0.5136700000000 1.0
C      1  0.5047790000000  0.5570040000000  0.5290960000000 1.0
C      1  0.5078950000000  0.5318050000000  0.5478090000000 1.0
C      1  0.5475940000000  0.5318050000000  0.5078030000000 1.0
C      1  0.5218140000000  0.5318050000000  0.4576840000000 1.0
C      1  0.4661810000000  0.5318050000000  0.4667150000000 1.0
C      1  0.4575790000000  0.5318050000000  0.5224160000000 1.0
C      1  0.5358330000000  0.4630110000000  0.4999250000000 1.0
C      1  0.5106870000000  0.4630100000000  0.4664360000000 1.0
C      1  0.4710670000000  0.4630100000000  0.4800020000000 1.0
C      1  0.4717260000000  0.4630100000000  0.5218760000000 1.0
C      1  0.5117530000000  0.4630110000000  0.5341890000000 1.0
C      1  0.4434950000000  0.4820440000000  0.4724760000000 1.0
C      1  0.4560480000000  0.4820450000000  0.5457720000000 1.0
C      1  0.5296350000000  0.4820450000000  0.5564830000000 1.0
C      1  0.5625620000000  0.4820450000000  0.4898080000000 1.0
C      1  0.5093250000000  0.4820450000000  0.4378880000000 1.0
C      1  0.4995710000000  0.4705630000000  0.5651140000000 1.0
C      1  0.5614800000000  0.4705630000000  0.5210680000000 1.0
C      1  0.5387210000000  0.4705630000000  0.4485770000000 1.0
C      1  0.4627450000000  0.4705620000000  0.4478220000000 1.0
C      1  0.4385490000000  0.4705620000000  0.5198460000000 1.0
C      1  0.5071890000000  0.5045640000000  0.5669970000000 1.0
C      1  0.5656250000000  0.5045650000000  0.5144040000000 1.0
C      1  0.5336630000000  0.5045640000000  0.4425760000000 1.0
C      1  0.4554740000000  0.5045640000000  0.4507770000000 1.0
C      1  0.4391120000000  0.5045640000000  0.5276740000000 1.0
C      1  0.5002120000000  0.5360410000000  0.5004850000000 1.0
C      1  0.5002130000000  0.4602820000000  0.5004850000000 1.0
END
