TITL C-2782239-8622-594 -0.00518722006260117 125000 -960.905238450797 0 0 166 (C1) n - 1
REM
REM in /home/nfs/bkarasulu/CARBON/AIRSS/Generating-Clusters/REBO/Higher-Symm/SD-CG/HFTN-CG
REM
REM
REM
REM
REM
REM ./C.cell (12c818d87b63d06a65506943cc24bca4)
REM
REM compiler GCC version 9.2.1 20190827 (Red Hat 9.2.1-1)
REM options -cpp -mtune=generic -march=x86-64 -g -O0 -fpre-include=/usr/include/finclude/math-vector-fortran.h
REM seed 345379443 1407620449 95122584 375130895 1945822625 1180530026 -455110785 -127371050 1356585957 2119001690 -436580595 -1790041227 -1451629770 -1283736312 -737891652 -776071135 1054783728 56646421 1684062945 1183720581 609439054 1721762758 2053558830 -156116934 -1718187797 -1594505342 -621229304 -388936139 732829867 -405260016 -267756852 834167368 1435037327
REM
CELL 1.54180   50.00000   50.00000   50.00000   90.00000   90.00000   90.00000
LATT -1
SFAC C  
C      1  0.5490370000000  0.4165980000000  0.5355550000000 1.0
C      1  0.5364230000000  0.5537760000000  0.4174650000000 1.0
C      1  0.4205250000000  0.5351910000000  0.5479960000000 1.0
C      1  0.4521650000000  0.5790080000000  0.5431150000000 1.0
C      1  0.4541090000000  0.4153000000000  0.4685370000000 1.0
C      1  0.5517040000000  0.5858550000000  0.4577340000000 1.0
C      1  0.4615820000000  0.4516450000000  0.4149720000000 1.0
C      1  0.4663630000000  0.5548190000000  0.5888170000000 1.0
C      1  0.5313940000000  0.4525880000000  0.5811070000000 1.0
C      1  0.5832680000000  0.4584590000000  0.5492770000000 1.0
C      1  0.5784950000000  0.5394520000000  0.4468680000000 1.0
C      1  0.4230060000000  0.4556290000000  0.4512420000000 1.0
C      1  0.4165210000000  0.4736550000000  0.5366520000000 1.0
C      1  0.5318360000000  0.4126170000000  0.4819740000000 1.0
C      1  0.4649210000000  0.5380120000000  0.4011300000000 1.0
C      1  0.5813720000000  0.5196830000000  0.5330740000000 1.0
C      1  0.5976470000000  0.4674070000000  0.4639140000000 1.0
C      1  0.4031960000000  0.5304690000000  0.4627380000000 1.0
C      1  0.4623920000000  0.5922450000000  0.4708880000000 1.0
C      1  0.4678910000000  0.4051920000000  0.5281470000000 1.0
C      1  0.5368600000000  0.5939620000000  0.5327790000000 1.0
C      1  0.5170780000000  0.4694470000000  0.4163970000000 1.0
C      1  0.5201880000000  0.5315920000000  0.5892770000000 1.0
C      1  0.4733920000000  0.4692460000000  0.5906380000000 1.0
C      1  0.4346840000000  0.5308640000000  0.4761430000000 1.0
C      1  0.4842450000000  0.4331650000000  0.5312200000000 1.0
C      1  0.5301430000000  0.4866630000000  0.4398370000000 1.0
C      1  0.5684150000000  0.4699020000000  0.4818790000000 1.0
C      1  0.5602380000000  0.5287900000000  0.5109370000000 1.0
C      1  0.4379720000000  0.4789150000000  0.5131430000000 1.0
C      1  0.5162760000000  0.5667250000000  0.5320860000000 1.0
C      1  0.5176380000000  0.4404720000000  0.4755210000000 1.0
C      1  0.4849580000000  0.5669020000000  0.4737860000000 1.0
C      1  0.4739390000000  0.5182680000000  0.4274870000000 1.0
C      1  0.4730310000000  0.4837370000000  0.5612110000000 1.0
C      1  0.5260780000000  0.5198800000000  0.5608170000000 1.0
C      1  0.5525630000000  0.4927930000000  0.5264200000000 1.0
C      1  0.5287970000000  0.5561310000000  0.4834780000000 1.0
C      1  0.4871310000000  0.5298010000000  0.5502110000000 1.0
C      1  0.4544840000000  0.5128540000000  0.5238590000000 1.0
C      1  0.4497000000000  0.4894140000000  0.4638470000000 1.0
C      1  0.5533230000000  0.5189870000000  0.4699910000000 1.0
C      1  0.4685290000000  0.4433040000000  0.4924560000000 1.0
C      1  0.4709290000000  0.5502430000000  0.5069470000000 1.0
C      1  0.5316760000000  0.4491550000000  0.5119480000000 1.0
C      1  0.5167870000000  0.4691600000000  0.5481090000000 1.0
C      1  0.5113930000000  0.5353460000000  0.4425340000000 1.0
C      1  0.4931200000000  0.4739920000000  0.4479720000000 1.0
C      1  0.5046760000000  0.4746100000000  0.6149580000000 1.0
C      1  0.6051330000000  0.5128590000000  0.4825800000000 1.0
C      1  0.4749610000000  0.6006510000000  0.5160850000000 1.0
C      1  0.4836760000000  0.5216870000000  0.6020630000000 1.0
C      1  0.4847430000000  0.4755370000000  0.3929980000000 1.0
C      1  0.5083790000000  0.5227300000000  0.3891060000000 1.0
C      1  0.3913820000000  0.4858490000000  0.4783390000000 1.0
C      1  0.3973830000000  0.5177360000000  0.5206650000000 1.0
C      1  0.6069660000000  0.4823050000000  0.5278680000000 1.0
C      1  0.5250400000000  0.3918650000000  0.5154370000000 1.0
C      1  0.5215490000000  0.6082780000000  0.4909560000000 1.0
C      1  0.4767600000000  0.3830610000000  0.4960580000000 1.0
C      1  0.6000180000000  0.4469770000000  0.4896020000000 1.0
C      1  0.4883810000000  0.5986090000000  0.4510210000000 1.0
C      1  0.4519800000000  0.4962260000000  0.5923250000000 1.0
C      1  0.4019720000000  0.5472860000000  0.4918160000000 1.0
C      1  0.4084440000000  0.4519480000000  0.5137990000000 1.0
C      1  0.5965730000000  0.5450150000000  0.5084400000000 1.0
C      1  0.5023070000000  0.4086720000000  0.4572500000000 1.0
C      1  0.5116040000000  0.5991700000000  0.5544730000000 1.0
C      1  0.4890570000000  0.4004410000000  0.5535110000000 1.0
C      1  0.5430520000000  0.5004400000000  0.5911630000000 1.0
C      1  0.5471030000000  0.4902390000000  0.4040490000000 1.0
C      1  0.4457810000000  0.5111340000000  0.4002510000000 1.0
C      1  0.5598410000000  0.5566190000000  0.4695870000000 1.0
C      1  0.4730240000000  0.5573860000000  0.5583400000000 1.0
C      1  0.5584850000000  0.4782410000000  0.5504160000000 1.0
C      1  0.4391350000000  0.4411960000000  0.4754110000000 1.0
C      1  0.4438090000000  0.5602800000000  0.5182470000000 1.0
C      1  0.5603560000000  0.4451280000000  0.5280790000000 1.0
C      1  0.5293820000000  0.4379820000000  0.5536310000000 1.0
C      1  0.5284400000000  0.5646210000000  0.4462440000000 1.0
C      1  0.4785350000000  0.4496430000000  0.4418290000000 1.0
C      1  0.4472330000000  0.5258610000000  0.5492080000000 1.0
C      1  0.4456490000000  0.4719180000000  0.4371480000000 1.0
C      1  0.5491620000000  0.5313530000000  0.4384820000000 1.0
C      1  0.5089730000000  0.5493910000000  0.4051780000000 1.0
C      1  0.4006950000000  0.5141630000000  0.5544180000000 1.0
C      1  0.5559680000000  0.3983200000000  0.5104510000000 1.0
C      1  0.4899700000000  0.4442680000000  0.4012600000000 1.0
C      1  0.4915600000000  0.5543990000000  0.6052140000000 1.0
C      1  0.5087270000000  0.4520980000000  0.5981610000000 1.0
C      1  0.5964890000000  0.4867520000000  0.5594040000000 1.0
C      1  0.5902180000000  0.5117980000000  0.4538190000000 1.0
C      1  0.4113150000000  0.4853410000000  0.4537870000000 1.0
C      1  0.4431840000000  0.5930460000000  0.5134390000000 1.0
C      1  0.4535150000000  0.3983070000000  0.4914680000000 1.0
C      1  0.5482290000000  0.5911960000000  0.4887930000000 1.0
C      1  0.5181070000000  0.4075390000000  0.5450150000000 1.0
C      1  0.5364380000000  0.5205670000000  0.4086340000000 1.0
C      1  0.4159500000000  0.5468320000000  0.5193730000000 1.0
C      1  0.4837200000000  0.5877060000000  0.5464660000000 1.0
C      1  0.4774400000000  0.4222800000000  0.4535830000000 1.0
C      1  0.5185320000000  0.5941740000000  0.4600600000000 1.0
C      1  0.4538320000000  0.4823320000000  0.4058130000000 1.0
C      1  0.4589740000000  0.5241080000000  0.5779920000000 1.0
C      1  0.5458610000000  0.4764820000000  0.5766630000000 1.0
C      1  0.5921480000000  0.4531230000000  0.5182420000000 1.0
C      1  0.5900940000000  0.5434250000000  0.4780840000000 1.0
C      1  0.4105870000000  0.4580980000000  0.4830240000000 1.0
C      1  0.6082280000000  0.5138110000000  0.5160310000000 1.0
C      1  0.5075910000000  0.6071530000000  0.5211260000000 1.0
C      1  0.5131170000000  0.5046740000000  0.6065280000000 1.0
C      1  0.3988800000000  0.4853180000000  0.5101590000000 1.0
C      1  0.3869150000000  0.5165430000000  0.4884000000000 1.0
C      1  0.6074150000000  0.4807530000000  0.4938270000000 1.0
C      1  0.4940540000000  0.3838660000000  0.5238330000000 1.0
C      1  0.4896400000000  0.6047640000000  0.4855310000000 1.0
C      1  0.5065020000000  0.3920030000000  0.4867010000000 1.0
C      1  0.4765020000000  0.4917200000000  0.6155170000000 1.0
C      1  0.4784770000000  0.5087710000000  0.3890090000000 1.0
C      1  0.5149570000000  0.4911560000000  0.3921660000000 1.0
C      1  0.4658620000000  0.5333920000000  0.4839040000000 1.0
C      1  0.4920290000000  0.4645440000000  0.5318080000000 1.0
C      1  0.5344270000000  0.4947420000000  0.4700590000000 1.0
C      1  0.5374440000000  0.4707300000000  0.4921270000000 1.0
C      1  0.5297190000000  0.5342920000000  0.5050320000000 1.0
C      1  0.4645050000000  0.4632330000000  0.5138890000000 1.0
C      1  0.5077960000000  0.5360200000000  0.5292880000000 1.0
C      1  0.5112180000000  0.4709850000000  0.4711680000000 1.0
C      1  0.4867250000000  0.5391370000000  0.4590520000000 1.0
C      1  0.4660350000000  0.5135340000000  0.4583880000000 1.0
C      1  0.4723110000000  0.4904840000000  0.5298820000000 1.0
C      1  0.5297870000000  0.5113690000000  0.5297900000000 1.0
C      1  0.5594180000000  0.4736790000000  0.4308730000000 1.0
C      1  0.4243670000000  0.5629610000000  0.4713340000000 1.0
C      1  0.4710970000000  0.4276140000000  0.5621360000000 1.0
C      1  0.4404410000000  0.5260290000000  0.4303420000000 1.0
C      1  0.4408540000000  0.4743340000000  0.5683740000000 1.0
C      1  0.5570610000000  0.5248600000000  0.5738990000000 1.0
C      1  0.5729120000000  0.4373440000000  0.4720650000000 1.0
C      1  0.5702800000000  0.5573860000000  0.5261440000000 1.0
C      1  0.4289560000000  0.4336150000000  0.5294960000000 1.0
C      1  0.5282090000000  0.5712490000000  0.5640970000000 1.0
C      1  0.5266680000000  0.4288330000000  0.4447850000000 1.0
C      1  0.4726010000000  0.5706890000000  0.4390470000000 1.0
C      1  0.5165610000000  0.5604790000000  0.5899280000000 1.0
C      1  0.5805280000000  0.5108990000000  0.5597860000000 1.0
C      1  0.5555240000000  0.5814190000000  0.5129770000000 1.0
C      1  0.4833680000000  0.4406110000000  0.5866950000000 1.0
C      1  0.4845200000000  0.5568870000000  0.4155260000000 1.0
C      1  0.5132870000000  0.4404830000000  0.4195000000000 1.0
C      1  0.4122210000000  0.4891230000000  0.5620540000000 1.0
C      1  0.4190320000000  0.5100630000000  0.4458650000000 1.0
C      1  0.5828110000000  0.4868510000000  0.4461770000000 1.0
C      1  0.4408370000000  0.4115230000000  0.5164230000000 1.0
C      1  0.4365150000000  0.5878020000000  0.4835080000000 1.0
C      1  0.5608880000000  0.4131420000000  0.4851110000000 1.0
C      1  0.5005570000000  0.4379950000000  0.5032920000000 1.0
C      1  0.5015050000000  0.5645560000000  0.5022920000000 1.0
C      1  0.5017710000000  0.5037630000000  0.4337990000000 1.0
C      1  0.4409630000000  0.5038560000000  0.4937320000000 1.0
C      1  0.5016620000000  0.4989850000000  0.5553740000000 1.0
C      1  0.5650200000000  0.4991870000000  0.4953550000000 1.0
C      1  0.4445480000000  0.5554220000000  0.4450070000000 1.0
C      1  0.5560550000000  0.4435970000000  0.4449390000000 1.0
C      1  0.4430620000000  0.4438390000000  0.5534800000000 1.0
C      1  0.5553710000000  0.5540560000000  0.5565440000000 1.0
END
