TITL C-2782237-5345-241 -0.0057822487603293 125000 -942.058882666703 0 0 160 (C1) n - 1
REM
REM in /home/nfs/bkarasulu/CARBON/AIRSS/Generating-Clusters/REBO/Higher-Symm/SD-CG/HFTN-CG
REM
REM
REM
REM
REM
REM ./C.cell (12c818d87b63d06a65506943cc24bca4)
REM
REM compiler GCC version 9.2.1 20190827 (Red Hat 9.2.1-1)
REM options -cpp -mtune=generic -march=x86-64 -g -O0 -fpre-include=/usr/include/finclude/math-vector-fortran.h
REM seed 1399029296 -1073218248 857433934 481129862 594619284 124628351 724422169 -969489184 -825130966 1798497615 -60934367 -1809246171 -1614218899 -191492394 1618874493 -241081818 1111276524 639895541 -1378305966 1699901055 803859444 1961983892 -1364494917 223493609 1357798415 1072131771 2026819030 -1956110093 -1418659877 -1539107946 67007311 1164056195 -992411028
REM
CELL 1.54180   50.00000   50.00000   50.00000   90.00000   90.00000   90.00000
LATT -1
SFAC C  
C      1  0.4938560000000  0.4964990000000  0.4573530000000 1.0
C      1  0.5266610000000  0.5824410000000  0.5476060000000 1.0
C      1  0.4342000000000  0.4144540000000  0.5421350000000 1.0
C      1  0.4864580000000  0.5549150000000  0.4954470000000 1.0
C      1  0.4374700000000  0.4608780000000  0.4777710000000 1.0
C      1  0.5322240000000  0.4593950000000  0.4218650000000 1.0
C      1  0.5597500000000  0.5524450000000  0.5585640000000 1.0
C      1  0.5425550000000  0.5492480000000  0.4549820000000 1.0
C      1  0.4479040000000  0.5690620000000  0.5497020000000 1.0
C      1  0.5343710000000  0.5203110000000  0.4710690000000 1.0
C      1  0.5606280000000  0.4434560000000  0.4621610000000 1.0
C      1  0.5009860000000  0.5993090000000  0.5095860000000 1.0
C      1  0.5297270000000  0.4585860000000  0.5806070000000 1.0
C      1  0.4463620000000  0.4067910000000  0.4726730000000 1.0
C      1  0.5958260000000  0.4818450000000  0.5428780000000 1.0
C      1  0.4648240000000  0.5098210000000  0.4452080000000 1.0
C      1  0.5887750000000  0.5469730000000  0.4410580000000 1.0
C      1  0.4123010000000  0.5584190000000  0.4855820000000 1.0
C      1  0.5719960000000  0.5292760000000  0.4961090000000 1.0
C      1  0.5032700000000  0.4249610000000  0.5040160000000 1.0
C      1  0.5097600000000  0.5690570000000  0.5716510000000 1.0
C      1  0.4956510000000  0.4678040000000  0.5616630000000 1.0
C      1  0.4269890000000  0.4996230000000  0.5548280000000 1.0
C      1  0.5467890000000  0.5866800000000  0.5274160000000 1.0
C      1  0.5287960000000  0.5258000000000  0.3907950000000 1.0
C      1  0.5908140000000  0.5573970000000  0.5180920000000 1.0
C      1  0.4329830000000  0.4373560000000  0.5654760000000 1.0
C      1  0.4720570000000  0.4603320000000  0.5397660000000 1.0
C      1  0.4283340000000  0.5587450000000  0.4557800000000 1.0
C      1  0.4783520000000  0.4313490000000  0.5924290000000 1.0
C      1  0.5380510000000  0.5926950000000  0.4706610000000 1.0
C      1  0.5679230000000  0.4509500000000  0.5579680000000 1.0
C      1  0.5713710000000  0.5710230000000  0.5352580000000 1.0
C      1  0.4494860000000  0.4846420000000  0.4912150000000 1.0
C      1  0.5174360000000  0.5886870000000  0.4484530000000 1.0
C      1  0.5024820000000  0.4328830000000  0.4736130000000 1.0
C      1  0.4876670000000  0.5931210000000  0.4593300000000 1.0
C      1  0.5815650000000  0.5187610000000  0.5473180000000 1.0
C      1  0.5046210000000  0.4375470000000  0.5903350000000 1.0
C      1  0.5527420000000  0.5526560000000  0.5029700000000 1.0
C      1  0.4074590000000  0.4803880000000  0.5683250000000 1.0
C      1  0.5420000000000  0.5448220000000  0.5300070000000 1.0
C      1  0.4524020000000  0.4826050000000  0.5396260000000 1.0
C      1  0.4890190000000  0.5473500000000  0.4630180000000 1.0
C      1  0.5424840000000  0.4943180000000  0.5339780000000 1.0
C      1  0.4136070000000  0.5147740000000  0.4375670000000 1.0
C      1  0.4676480000000  0.4735180000000  0.5772590000000 1.0
C      1  0.5534750000000  0.5256900000000  0.4111800000000 1.0
C      1  0.5557040000000  0.4986270000000  0.4768890000000 1.0
C      1  0.5188710000000  0.3836180000000  0.4874460000000 1.0
C      1  0.4639890000000  0.4358000000000  0.5182990000000 1.0
C      1  0.5257570000000  0.5570210000000  0.4835250000000 1.0
C      1  0.4258510000000  0.4671720000000  0.4526850000000 1.0
C      1  0.4371460000000  0.5351860000000  0.4868650000000 1.0
C      1  0.5545690000000  0.5179090000000  0.5391920000000 1.0
C      1  0.4724160000000  0.5590810000000  0.4164200000000 1.0
C      1  0.4844310000000  0.4602530000000  0.4024590000000 1.0
C      1  0.4672680000000  0.5124280000000  0.5383480000000 1.0
C      1  0.5225830000000  0.4786750000000  0.5114010000000 1.0
C      1  0.5019880000000  0.5178980000000  0.6021440000000 1.0
C      1  0.4456730000000  0.5814780000000  0.5059630000000 1.0
C      1  0.5006190000000  0.4484360000000  0.5250260000000 1.0
C      1  0.4087150000000  0.4556670000000  0.5707880000000 1.0
C      1  0.4628090000000  0.5423510000000  0.5341800000000 1.0
C      1  0.4593550000000  0.4447210000000  0.4047510000000 1.0
C      1  0.5846590000000  0.4946140000000  0.5702190000000 1.0
C      1  0.4012050000000  0.4978330000000  0.4809170000000 1.0
C      1  0.4899330000000  0.5537010000000  0.5251440000000 1.0
C      1  0.5351620000000  0.4324760000000  0.4811050000000 1.0
C      1  0.4170910000000  0.4388650000000  0.5327740000000 1.0
C      1  0.4566090000000  0.5112050000000  0.4884890000000 1.0
C      1  0.4670780000000  0.5611880000000  0.4469640000000 1.0
C      1  0.4650730000000  0.5041050000000  0.5712840000000 1.0
C      1  0.4969000000000  0.5820640000000  0.5362720000000 1.0
C      1  0.4727090000000  0.4516150000000  0.4415880000000 1.0
C      1  0.5749450000000  0.4340350000000  0.4901830000000 1.0
C      1  0.5147430000000  0.5269440000000  0.4955680000000 1.0
C      1  0.5455320000000  0.4674050000000  0.5449550000000 1.0
C      1  0.4731120000000  0.3833340000000  0.5144600000000 1.0
C      1  0.4333290000000  0.5844970000000  0.4774270000000 1.0
C      1  0.4497480000000  0.4330840000000  0.4882520000000 1.0
C      1  0.5038670000000  0.4858730000000  0.5384770000000 1.0
C      1  0.5066270000000  0.5090410000000  0.3932860000000 1.0
C      1  0.4101370000000  0.4907780000000  0.4540590000000 1.0
C      1  0.5358460000000  0.4594940000000  0.4518070000000 1.0
C      1  0.4098930000000  0.4828160000000  0.5042340000000 1.0
C      1  0.4106200000000  0.5489120000000  0.5263680000000 1.0
C      1  0.4308620000000  0.5243210000000  0.5667770000000 1.0
C      1  0.3914740000000  0.5388640000000  0.5134960000000 1.0
C      1  0.5867040000000  0.4621380000000  0.4743060000000 1.0
C      1  0.6085280000000  0.5085780000000  0.5069050000000 1.0
C      1  0.5231520000000  0.4287940000000  0.5650780000000 1.0
C      1  0.5392670000000  0.4534210000000  0.5040210000000 1.0
C      1  0.4579480000000  0.5885620000000  0.4579060000000 1.0
C      1  0.5541670000000  0.5066640000000  0.5792860000000 1.0
C      1  0.5023180000000  0.5798200000000  0.4841700000000 1.0
C      1  0.4746190000000  0.5505130000000  0.5714610000000 1.0
C      1  0.4071410000000  0.4556500000000  0.5130930000000 1.0
C      1  0.5330710000000  0.5969480000000  0.5028400000000 1.0
C      1  0.5217050000000  0.5428910000000  0.5900450000000 1.0
C      1  0.5886820000000  0.5646420000000  0.4901880000000 1.0
C      1  0.4621380000000  0.4019420000000  0.4535090000000 1.0
C      1  0.4835170000000  0.5230660000000  0.4853770000000 1.0
C      1  0.5284350000000  0.4030170000000  0.4687250000000 1.0
C      1  0.5595950000000  0.4758910000000  0.4242240000000 1.0
C      1  0.5312840000000  0.4111320000000  0.5175330000000 1.0
C      1  0.4232990000000  0.5774260000000  0.5513830000000 1.0
C      1  0.5138330000000  0.5335170000000  0.5273740000000 1.0
C      1  0.5015680000000  0.5667740000000  0.4277910000000 1.0
C      1  0.4978370000000  0.4864570000000  0.5896680000000 1.0
C      1  0.5788920000000  0.4805950000000  0.5215040000000 1.0
C      1  0.4980040000000  0.3929120000000  0.5049560000000 1.0
C      1  0.4825950000000  0.4919600000000  0.5152320000000 1.0
C      1  0.4873630000000  0.5106550000000  0.4206570000000 1.0
C      1  0.5624530000000  0.5787690000000  0.4832290000000 1.0
C      1  0.5341940000000  0.4989600000000  0.4203700000000 1.0
C      1  0.5622980000000  0.5465120000000  0.4328880000000 1.0
C      1  0.4267940000000  0.4964570000000  0.5219460000000 1.0
C      1  0.5243480000000  0.4498580000000  0.5409520000000 1.0
C      1  0.4356240000000  0.5182580000000  0.4192280000000 1.0
C      1  0.5142070000000  0.4057440000000  0.4451290000000 1.0
C      1  0.4507800000000  0.5407400000000  0.4085670000000 1.0
C      1  0.5797540000000  0.5123820000000  0.4589580000000 1.0
C      1  0.5298340000000  0.4806540000000  0.4703070000000 1.0
C      1  0.5012880000000  0.4874420000000  0.4869580000000 1.0
C      1  0.5799390000000  0.4803060000000  0.4496540000000 1.0
C      1  0.6041150000000  0.4860750000000  0.4910570000000 1.0
C      1  0.5263690000000  0.4913030000000  0.5716060000000 1.0
C      1  0.4392880000000  0.5524410000000  0.5144770000000 1.0
C      1  0.4523110000000  0.4920500000000  0.4185000000000 1.0
C      1  0.5109810000000  0.5129380000000  0.5503400000000 1.0
C      1  0.4679930000000  0.5963120000000  0.5126380000000 1.0
C      1  0.5112290000000  0.4121790000000  0.5409780000000 1.0
C      1  0.5586730000000  0.4157540000000  0.5139900000000 1.0
C      1  0.5688510000000  0.4540260000000  0.5154180000000 1.0
C      1  0.4558130000000  0.3996490000000  0.5332580000000 1.0
C      1  0.4051360000000  0.5372810000000  0.4527920000000 1.0
C      1  0.5986350000000  0.5292250000000  0.5258610000000 1.0
C      1  0.5745460000000  0.4302750000000  0.5382320000000 1.0
C      1  0.5932890000000  0.5388870000000  0.4715320000000 1.0
C      1  0.4735530000000  0.5178520000000  0.5938530000000 1.0
C      1  0.5729280000000  0.5059210000000  0.4272220000000 1.0
C      1  0.5499330000000  0.5361490000000  0.5803220000000 1.0
C      1  0.4773520000000  0.4913910000000  0.3954510000000 1.0
C      1  0.4756600000000  0.4488620000000  0.4726340000000 1.0
C      1  0.3947910000000  0.5288240000000  0.4831100000000 1.0
C      1  0.4997940000000  0.5356550000000  0.5667300000000 1.0
C      1  0.4770250000000  0.5803410000000  0.5606660000000 1.0
C      1  0.5695240000000  0.5002920000000  0.5052000000000 1.0
C      1  0.4870790000000  0.4779720000000  0.4318280000000 1.0
C      1  0.5604830000000  0.4732700000000  0.5814560000000 1.0
C      1  0.4833010000000  0.4146300000000  0.5369830000000 1.0
C      1  0.5132220000000  0.5419480000000  0.4449800000000 1.0
C      1  0.5187470000000  0.5104610000000  0.4449610000000 1.0
C      1  0.4858090000000  0.4209330000000  0.4460900000000 1.0
C      1  0.4518960000000  0.5341570000000  0.4562070000000 1.0
C      1  0.5139560000000  0.4771940000000  0.4027540000000 1.0
C      1  0.4444020000000  0.4632580000000  0.4290420000000 1.0
C      1  0.4717870000000  0.4639550000000  0.5002570000000 1.0
C      1  0.4573510000000  0.4454530000000  0.5813190000000 1.0
END
