TITL C-2782225-7408-1295 -0.00510186974013016 125000 -864.562219824947 0 0 143 (C1) n - 1
REM
REM in /home/nfs/bkarasulu/CARBON/AIRSS/Generating-Clusters/REBO/Higher-Symm/SD-CG/HFTN-CG
REM
REM
REM
REM
REM
REM ./C.cell (12c818d87b63d06a65506943cc24bca4)
REM
REM compiler GCC version 9.2.1 20190827 (Red Hat 9.2.1-1)
REM options -cpp -mtune=generic -march=x86-64 -g -O0 -fpre-include=/usr/include/finclude/math-vector-fortran.h
REM seed -1156524350 -152379288 1531384214 2019650195 313140230 -629462525 -1593411457 825750770 1979575599 1101493719 331930831 -406629054 -2011594426 153209624 854213786 1021742286 659579799 761501646 738810046 -797988571 634123865 202261417 -654862146 1706987445 750335186 169143774 1010307462 -673203205 -1373444179 -350020937 -1212576987 -1630572286 111335538
REM
CELL 1.54180   50.00000   50.00000   50.00000   90.00000   90.00000   90.00000
LATT -1
SFAC C  
C      1  0.5302980000000  0.5931110000000  0.4974100000000 1.0
C      1  0.5266230000000  0.5284830000000  0.4133660000000 1.0
C      1  0.5273200000000  0.4225990000000  0.4404640000000 1.0
C      1  0.5302110000000  0.4227070000000  0.5550040000000 1.0
C      1  0.5247400000000  0.5292750000000  0.5913930000000 1.0
C      1  0.4761450000000  0.5908150000000  0.5009660000000 1.0
C      1  0.4718150000000  0.5267610000000  0.4106930000000 1.0
C      1  0.4757750000000  0.4255890000000  0.4453790000000 1.0
C      1  0.4762380000000  0.4270300000000  0.5525320000000 1.0
C      1  0.4714650000000  0.5262440000000  0.5866100000000 1.0
C      1  0.5483330000000  0.4562800000000  0.4428180000000 1.0
C      1  0.5498270000000  0.4392450000000  0.5155160000000 1.0
C      1  0.5464700000000  0.5011810000000  0.5734770000000 1.0
C      1  0.5447610000000  0.5496900000000  0.5169880000000 1.0
C      1  0.5523000000000  0.5346350000000  0.4433730000000 1.0
C      1  0.4532710000000  0.4583250000000  0.4438720000000 1.0
C      1  0.4553210000000  0.4374570000000  0.5192860000000 1.0
C      1  0.4503600000000  0.5028250000000  0.5736410000000 1.0
C      1  0.4498800000000  0.5642900000000  0.5154330000000 1.0
C      1  0.4569510000000  0.5388710000000  0.4554010000000 1.0
C      1  0.5167110000000  0.4634350000000  0.4456620000000 1.0
C      1  0.5168400000000  0.4408880000000  0.5089690000000 1.0
C      1  0.5152170000000  0.4959770000000  0.5659220000000 1.0
C      1  0.5116190000000  0.5541200000000  0.5234600000000 1.0
C      1  0.5247670000000  0.5392360000000  0.4517670000000 1.0
C      1  0.4826600000000  0.4691030000000  0.4477140000000 1.0
C      1  0.4831480000000  0.4467490000000  0.5096780000000 1.0
C      1  0.4811720000000  0.4958420000000  0.5608010000000 1.0
C      1  0.4775290000000  0.5567100000000  0.5217170000000 1.0
C      1  0.4908040000000  0.5427430000000  0.4553340000000 1.0
C      1  0.5148750000000  0.5884490000000  0.4718740000000 1.0
C      1  0.5145100000000  0.5016330000000  0.4086740000000 1.0
C      1  0.5162770000000  0.4123250000000  0.4665450000000 1.0
C      1  0.5173220000000  0.4442030000000  0.5738270000000 1.0
C      1  0.5132410000000  0.5521290000000  0.5760080000000 1.0
C      1  0.4875450000000  0.5861620000000  0.4739600000000 1.0
C      1  0.4870250000000  0.5010410000000  0.4067720000000 1.0
C      1  0.4888640000000  0.4140970000000  0.4687560000000 1.0
C      1  0.4898180000000  0.4448350000000  0.5713170000000 1.0
C      1  0.4859220000000  0.5528520000000  0.5746440000000 1.0
C      1  0.5295310000000  0.4673370000000  0.5898040000000 1.0
C      1  0.5310450000000  0.5670210000000  0.5576330000000 1.0
C      1  0.5295390000000  0.5786090000000  0.4481530000000 1.0
C      1  0.5313460000000  0.4776610000000  0.4113660000000 1.0
C      1  0.5329280000000  0.4089510000000  0.4912330000000 1.0
C      1  0.4726190000000  0.4645140000000  0.5840390000000 1.0
C      1  0.4718490000000  0.5716400000000  0.5580810000000 1.0
C      1  0.4697080000000  0.5764900000000  0.4523160000000 1.0
C      1  0.4716380000000  0.4762850000000  0.4100410000000 1.0
C      1  0.4727330000000  0.4121710000000  0.4929490000000 1.0
C      1  0.4777240000000  0.4825000000000  0.5328390000000 1.0
C      1  0.4854310000000  0.5298120000000  0.5406840000000 1.0
C      1  0.4906630000000  0.5434950000000  0.4869330000000 1.0
C      1  0.4846020000000  0.4981960000000  0.4595990000000 1.0
C      1  0.4765130000000  0.4692360000000  0.4871030000000 1.0
C      1  0.5112220000000  0.4809560000000  0.5393550000000 1.0
C      1  0.5156930000000  0.5252870000000  0.5386690000000 1.0
C      1  0.5197430000000  0.5396670000000  0.4826010000000 1.0
C      1  0.5137040000000  0.4917740000000  0.4584840000000 1.0
C      1  0.5092890000000  0.4605270000000  0.4830270000000 1.0
C      1  0.5905320000000  0.5328440000000  0.5253590000000 1.0
C      1  0.5960100000000  0.5395760000000  0.4699160000000 1.0
C      1  0.5919100000000  0.4902260000000  0.4587990000000 1.0
C      1  0.5890350000000  0.4597810000000  0.5003520000000 1.0
C      1  0.5922270000000  0.4839400000000  0.5473030000000 1.0
C      1  0.4077970000000  0.5329410000000  0.5302650000000 1.0
C      1  0.4106450000000  0.5326040000000  0.4788210000000 1.0
C      1  0.4093950000000  0.4865160000000  0.4551330000000 1.0
C      1  0.4063120000000  0.4581030000000  0.5024590000000 1.0
C      1  0.4087710000000  0.4860060000000  0.5488840000000 1.0
C      1  0.5968690000000  0.5391550000000  0.4981820000000 1.0
C      1  0.6039460000000  0.5156860000000  0.4561210000000 1.0
C      1  0.5865770000000  0.4843190000000  0.4860660000000 1.0
C      1  0.5884310000000  0.4623020000000  0.5297800000000 1.0
C      1  0.6000040000000  0.5091870000000  0.5377180000000 1.0
C      1  0.4093870000000  0.5205930000000  0.5046840000000 1.0
C      1  0.4139580000000  0.5141560000000  0.4562020000000 1.0
C      1  0.4028210000000  0.4714940000000  0.4780080000000 1.0
C      1  0.3998460000000  0.4700450000000  0.5273880000000 1.0
C      1  0.4056760000000  0.5148870000000  0.5520930000000 1.0
C      1  0.5550150000000  0.4384230000000  0.5618320000000 1.0
C      1  0.5550360000000  0.5329170000000  0.5829610000000 1.0
C      1  0.5566490000000  0.5853820000000  0.4864370000000 1.0
C      1  0.5574910000000  0.5183310000000  0.4149640000000 1.0
C      1  0.5573380000000  0.4239000000000  0.4496280000000 1.0
C      1  0.4481410000000  0.4319170000000  0.5581220000000 1.0
C      1  0.4430070000000  0.5416700000000  0.5785310000000 1.0
C      1  0.4453970000000  0.5896220000000  0.4934630000000 1.0
C      1  0.4455810000000  0.5145330000000  0.4159010000000 1.0
C      1  0.4458000000000  0.4273930000000  0.4559610000000 1.0
C      1  0.5761620000000  0.4755840000000  0.4382240000000 1.0
C      1  0.5701660000000  0.4382380000000  0.4940270000000 1.0
C      1  0.5752600000000  0.4828530000000  0.5720700000000 1.0
C      1  0.5667350000000  0.5444680000000  0.5367050000000 1.0
C      1  0.5763940000000  0.5551580000000  0.4527790000000 1.0
C      1  0.4245470000000  0.4726630000000  0.4334580000000 1.0
C      1  0.4248290000000  0.4346140000000  0.5044940000000 1.0
C      1  0.4306350000000  0.4786130000000  0.5661140000000 1.0
C      1  0.4238420000000  0.5581700000000  0.5354370000000 1.0
C      1  0.4304090000000  0.5519530000000  0.4681250000000 1.0
C      1  0.5334080000000  0.5098670000000  0.5229480000000 1.0
C      1  0.5330720000000  0.5184250000000  0.4950740000000 1.0
C      1  0.5338920000000  0.4954470000000  0.4780690000000 1.0
C      1  0.5385030000000  0.4714950000000  0.4950450000000 1.0
C      1  0.5386390000000  0.4797530000000  0.5223300000000 1.0
C      1  0.4650630000000  0.5187870000000  0.5222670000000 1.0
C      1  0.4703920000000  0.5263250000000  0.4957120000000 1.0
C      1  0.4647790000000  0.5060450000000  0.4768590000000 1.0
C      1  0.4480100000000  0.4826440000000  0.4893800000000 1.0
C      1  0.4498340000000  0.4905990000000  0.5220570000000 1.0
C      1  0.4354960000000  0.5240250000000  0.4400730000000 1.0
C      1  0.4253400000000  0.4401300000000  0.4341880000000 1.0
C      1  0.4294480000000  0.4253130000000  0.5360200000000 1.0
C      1  0.4223230000000  0.5213940000000  0.5741310000000 1.0
C      1  0.4215240000000  0.5841400000000  0.5152970000000 1.0
C      1  0.5774910000000  0.5437810000000  0.4215270000000 1.0
C      1  0.5791200000000  0.4430080000000  0.4344430000000 1.0
C      1  0.5671770000000  0.4446010000000  0.5377120000000 1.0
C      1  0.5748060000000  0.5087320000000  0.5919480000000 1.0
C      1  0.5660710000000  0.5642410000000  0.5020780000000 1.0
C      1  0.4887030000000  0.4161000000000  0.5228830000000 1.0
C      1  0.4839470000000  0.4951820000000  0.5938440000000 1.0
C      1  0.4890140000000  0.5858340000000  0.5321030000000 1.0
C      1  0.4799340000000  0.5554700000000  0.4272060000000 1.0
C      1  0.4863880000000  0.4480350000000  0.4221020000000 1.0
C      1  0.5220570000000  0.4119440000000  0.5236750000000 1.0
C      1  0.5160780000000  0.4972350000000  0.5990910000000 1.0
C      1  0.5223680000000  0.5846190000000  0.5295150000000 1.0
C      1  0.5138820000000  0.5573400000000  0.4263930000000 1.0
C      1  0.5189800000000  0.4464130000000  0.4175690000000 1.0
C      1  0.4449080000000  0.5620470000000  0.5590120000000 1.0
C      1  0.4438190000000  0.5776190000000  0.4657140000000 1.0
C      1  0.4450540000000  0.4858720000000  0.4140210000000 1.0
C      1  0.4455760000000  0.4199920000000  0.4850630000000 1.0
C      1  0.4461230000000  0.4563910000000  0.5738970000000 1.0
C      1  0.5564300000000  0.5533160000000  0.5612300000000 1.0
C      1  0.5568200000000  0.5784650000000  0.4584150000000 1.0
C      1  0.5577900000000  0.4883120000000  0.4166470000000 1.0
C      1  0.5584310000000  0.4177710000000  0.4787410000000 1.0
C      1  0.5558240000000  0.4599090000000  0.5801500000000 1.0
C      1  0.5760290000000  0.5051010000000  0.5005330000000 1.0
C      1  0.4216640000000  0.4950340000000  0.5052570000000 1.0
C      1  0.5003380000000  0.4825650000000  0.5076680000000 1.0
END
