TITL C-2782225-7408-1212 -0.000392482349853306 125000 -199.255918495361 0 0 35 (C1) n - 1
REM
REM in /home/nfs/bkarasulu/CARBON/AIRSS/Generating-Clusters/REBO/Higher-Symm/SD-CG/HFTN-CG
REM
REM
REM
REM
REM
REM ./C.cell (12c818d87b63d06a65506943cc24bca4)
REM
REM compiler GCC version 9.2.1 20190827 (Red Hat 9.2.1-1)
REM options -cpp -mtune=generic -march=x86-64 -g -O0 -fpre-include=/usr/include/finclude/math-vector-fortran.h
REM seed -781304240 1345501474 -880840616 -915322778 -1951585459 -141461678 1329959290 -962681196 1771691648 -976030598 -811774070 -1319710870 468136540 -586237604 2035884984 1317937765 709461128 1118985796 -2064441913 484547762 -1022764860 932985846 711499691 941336454 -616769898 483567664 -315558239 -185469293 1739583576 -1097707898 1438301493 492289000 -1295164176
REM
CELL 1.54180   50.00000   50.00000   50.00000   90.00000   90.00000   90.00000
LATT -1
SFAC C  
C      1  0.5025460000000  0.4966030000000  0.4401010000000 1.0
C      1  0.5020000000000  0.5443860000000  0.4598600000000 1.0
C      1  0.5001090000000  0.5599570000000  0.5094070000000 1.0
C      1  0.4994770000000  0.5296360000000  0.5524750000000 1.0
C      1  0.5020050000000  0.4789040000000  0.5539270000000 1.0
C      1  0.5005420000000  0.4410850000000  0.5153540000000 1.0
C      1  0.5017530000000  0.4506950000000  0.4649580000000 1.0
C      1  0.5289720000000  0.5421450000000  0.4630690000000 1.0
C      1  0.5272210000000  0.5574790000000  0.5103200000000 1.0
C      1  0.5266430000000  0.5282960000000  0.5522650000000 1.0
C      1  0.5278310000000  0.4706170000000  0.5451840000000 1.0
C      1  0.5267820000000  0.4476460000000  0.5240060000000 1.0
C      1  0.5286830000000  0.4520890000000  0.4686280000000 1.0
C      1  0.5294790000000  0.4964430000000  0.4442220000000 1.0
C      1  0.4793610000000  0.4860210000000  0.5336550000000 1.0
C      1  0.4794470000000  0.4631770000000  0.5092760000000 1.0
C      1  0.4796580000000  0.4687390000000  0.4769120000000 1.0
C      1  0.4799090000000  0.4977360000000  0.4611950000000 1.0
C      1  0.4795540000000  0.5282960000000  0.4739010000000 1.0
C      1  0.4787640000000  0.5379460000000  0.5054660000000 1.0
C      1  0.4786060000000  0.5189880000000  0.5323540000000 1.0
C      1  0.4472550000000  0.4889910000000  0.4656820000000 1.0
C      1  0.4471330000000  0.5187750000000  0.4695740000000 1.0
C      1  0.4464630000000  0.5344190000000  0.4952300000000 1.0
C      1  0.4460850000000  0.5239770000000  0.5234640000000 1.0
C      1  0.4465580000000  0.4953740000000  0.5328160000000 1.0
C      1  0.4469810000000  0.4702000000000  0.5165940000000 1.0
C      1  0.4469860000000  0.4673430000000  0.4865840000000 1.0
C      1  0.5436600000000  0.4974780000000  0.4692680000000 1.0
C      1  0.5432280000000  0.5240270000000  0.4804410000000 1.0
C      1  0.5429310000000  0.5335530000000  0.5076000000000 1.0
C      1  0.5441120000000  0.5184310000000  0.5319230000000 1.0
C      1  0.5482910000000  0.4905130000000  0.5318600000000 1.0
C      1  0.5467350000000  0.4681630000000  0.5102330000000 1.0
C      1  0.5442410000000  0.4718740000000  0.4821950000000 1.0
END
