TITL C-2782231-7322-888 0.0045756374935989 125000 -384.801958406878 0 0 68 (C1) n - 1
REM
REM in /home/nfs/bkarasulu/CARBON/AIRSS/Generating-Clusters/REBO/Higher-Symm/SD-CG/HFTN-CG
REM
REM
REM
REM
REM
REM ./C.cell (12c818d87b63d06a65506943cc24bca4)
REM
REM compiler GCC version 9.2.1 20190827 (Red Hat 9.2.1-1)
REM options -cpp -mtune=generic -march=x86-64 -g -O0 -fpre-include=/usr/include/finclude/math-vector-fortran.h
REM seed 1623978415 -1079645799 -602468149 -1272456092 -1751953645 -1083437105 2146833322 1800670221 -1810319618 372856867 -1538057705 -1477752849 -765719677 -1364223323 -575302873 1079353196 -2013156926 -1276617881 554209182 -1311688036 1069676114 -1092142819 -1279082531 -2072040418 -1757379063 -1401630212 -415759487 1111639095 108534244 1707590704 1235682802 153431101 -1271699072
REM
CELL 1.54180   50.00000   50.00000   50.00000   90.00000   90.00000   90.00000
LATT -1
SFAC C  
C      1  0.5450840000000  0.5056840000000  0.4715940000000 1.0
C      1  0.5410970000000  0.5250990000000  0.4989890000000 1.0
C      1  0.5253320000000  0.5057980000000  0.5167030000000 1.0
C      1  0.5283480000000  0.4725120000000  0.5131720000000 1.0
C      1  0.5314810000000  0.4792920000000  0.4798820000000 1.0
C      1  0.4605860000000  0.5071350000000  0.4748940000000 1.0
C      1  0.4537770000000  0.5262280000000  0.5021960000000 1.0
C      1  0.4569450000000  0.5069370000000  0.5263190000000 1.0
C      1  0.4632170000000  0.4802890000000  0.5170620000000 1.0
C      1  0.4744860000000  0.4826110000000  0.4878190000000 1.0
C      1  0.4838560000000  0.5644270000000  0.4772130000000 1.0
C      1  0.4820730000000  0.5428070000000  0.5553220000000 1.0
C      1  0.4901770000000  0.4665940000000  0.5786720000000 1.0
C      1  0.4865770000000  0.4323250000000  0.4815050000000 1.0
C      1  0.4883480000000  0.4978630000000  0.4302450000000 1.0
C      1  0.5121980000000  0.5641650000000  0.4765070000000 1.0
C      1  0.5099870000000  0.5427060000000  0.5520620000000 1.0
C      1  0.5212720000000  0.4624020000000  0.5657020000000 1.0
C      1  0.5144820000000  0.4313500000000  0.4783370000000 1.0
C      1  0.5165310000000  0.4989590000000  0.4284550000000 1.0
C      1  0.5236200000000  0.5144990000000  0.5453380000000 1.0
C      1  0.5231810000000  0.4523580000000  0.5337520000000 1.0
C      1  0.5278300000000  0.4555090000000  0.4615510000000 1.0
C      1  0.5325740000000  0.5188100000000  0.4476250000000 1.0
C      1  0.5285360000000  0.5521640000000  0.5014160000000 1.0
C      1  0.4663950000000  0.5147900000000  0.5539460000000 1.0
C      1  0.4688690000000  0.4562610000000  0.5309260000000 1.0
C      1  0.4727610000000  0.4583090000000  0.4702550000000 1.0
C      1  0.4731240000000  0.5181550000000  0.4501100000000 1.0
C      1  0.4681980000000  0.5524820000000  0.5034700000000 1.0
C      1  0.4413180000000  0.5420020000000  0.4187690000000 1.0
C      1  0.4393860000000  0.5919070000000  0.5167950000000 1.0
C      1  0.4286230000000  0.5093940000000  0.5875380000000 1.0
C      1  0.4374230000000  0.4189850000000  0.5361340000000 1.0
C      1  0.4363350000000  0.4436040000000  0.4371450000000 1.0
C      1  0.5641140000000  0.5496860000000  0.4225210000000 1.0
C      1  0.5605430000000  0.5878480000000  0.5181820000000 1.0
C      1  0.5687320000000  0.5225480000000  0.5655110000000 1.0
C      1  0.5435420000000  0.4079200000000  0.5448690000000 1.0
C      1  0.5661430000000  0.4420480000000  0.4309300000000 1.0
C      1  0.5401840000000  0.5699440000000  0.5227940000000 1.0
C      1  0.5468420000000  0.5060540000000  0.5625310000000 1.0
C      1  0.5327440000000  0.4250760000000  0.5261710000000 1.0
C      1  0.5440240000000  0.4575840000000  0.4360320000000 1.0
C      1  0.5430920000000  0.5460760000000  0.4399020000000 1.0
C      1  0.4567530000000  0.5716810000000  0.5236340000000 1.0
C      1  0.4531150000000  0.5014160000000  0.5778400000000 1.0
C      1  0.4581620000000  0.4307270000000  0.5231050000000 1.0
C      1  0.4589500000000  0.4585750000000  0.4419980000000 1.0
C      1  0.4594600000000  0.5427220000000  0.4394450000000 1.0
C      1  0.5295200000000  0.4193010000000  0.4988240000000 1.0
C      1  0.5327530000000  0.4774980000000  0.4191970000000 1.0
C      1  0.5281710000000  0.5663050000000  0.4531100000000 1.0
C      1  0.5268710000000  0.5649980000000  0.5473580000000 1.0
C      1  0.5431950000000  0.4815100000000  0.5738240000000 1.0
C      1  0.4713300000000  0.4190300000000  0.5009420000000 1.0
C      1  0.4725200000000  0.4753910000000  0.4238540000000 1.0
C      1  0.4680890000000  0.5655920000000  0.4536820000000 1.0
C      1  0.4664140000000  0.5656860000000  0.5495350000000 1.0
C      1  0.4694080000000  0.4805210000000  0.5878010000000 1.0
C      1  0.4929610000000  0.4553980000000  0.5476850000000 1.0
C      1  0.4978500000000  0.4538480000000  0.4498250000000 1.0
C      1  0.5029790000000  0.5248990000000  0.4557090000000 1.0
C      1  0.4964760000000  0.5056450000000  0.5583440000000 1.0
C      1  0.4985730000000  0.5472180000000  0.5100410000000 1.0
C      1  0.4297850000000  0.5162710000000  0.4802450000000 1.0
C      1  0.5705640000000  0.5178420000000  0.4874410000000 1.0
C      1  0.5032700000000  0.4885660000000  0.4966920000000 1.0
END
