TITL C-2782240-8521-15 0.0017338747357649 125000 -278.745372014091 0 0 49 (C1) n - 1
REM
REM in /home/nfs/bkarasulu/CARBON/AIRSS/Generating-Clusters/REBO/Higher-Symm/SD-CG/HFTN-CG
REM
REM
REM
REM
REM
REM ./C.cell (12c818d87b63d06a65506943cc24bca4)
REM
REM compiler GCC version 9.2.1 20190827 (Red Hat 9.2.1-1)
REM options -cpp -mtune=generic -march=x86-64 -g -O0 -fpre-include=/usr/include/finclude/math-vector-fortran.h
REM seed -1243473664 -296334567 -1283877280 837307145 1668304664 1115893196 -1153670679 -1884393616 -1080343566 975226493 1886634594 192352473 241883402 708056356 610613097 -1330186278 1786076417 1333846919 1957029169 -1726690496 -1182634144 -1922215592 2101770382 503619912 523370698 -137103536 117191319 423332891 -513882749 1153256445 278395943 535971594 -530545198
REM
CELL 1.54180   50.00000   50.00000   50.00000   90.00000   90.00000   90.00000
LATT -1
SFAC C  
C      1  0.5812290000000  0.4883900000000  0.5041540000000 1.0
C      1  0.5142360000000  0.4159960000000  0.5046080000000 1.0
C      1  0.4240920000000  0.4581100000000  0.5045040000000 1.0
C      1  0.4373250000000  0.5569490000000  0.5035760000000 1.0
C      1  0.5352360000000  0.5749540000000  0.5038490000000 1.0
C      1  0.5754010000000  0.4848410000000  0.5346270000000 1.0
C      1  0.5095050000000  0.4229980000000  0.5344110000000 1.0
C      1  0.4292030000000  0.4651140000000  0.5342790000000 1.0
C      1  0.4454830000000  0.5545820000000  0.5334350000000 1.0
C      1  0.5353160000000  0.5673030000000  0.5340110000000 1.0
C      1  0.4770240000000  0.4604730000000  0.5380740000000 1.0
C      1  0.4553780000000  0.5075830000000  0.5378150000000 1.0
C      1  0.4938170000000  0.5427050000000  0.5381360000000 1.0
C      1  0.5395910000000  0.5178760000000  0.5395250000000 1.0
C      1  0.5289610000000  0.4668400000000  0.5384170000000 1.0
C      1  0.5463600000000  0.4529440000000  0.4914850000000 1.0
C      1  0.4687450000000  0.4363490000000  0.4928370000000 1.0
C      1  0.4299590000000  0.5076460000000  0.4926380000000 1.0
C      1  0.4863560000000  0.5667800000000  0.4928000000000 1.0
C      1  0.5618650000000  0.5323830000000  0.4948170000000 1.0
C      1  0.5661610000000  0.5149990000000  0.5186340000000 1.0
C      1  0.5324890000000  0.4424650000000  0.5148630000000 1.0
C      1  0.4546630000000  0.4485530000000  0.5153330000000 1.0
C      1  0.4373690000000  0.5251010000000  0.5148740000000 1.0
C      1  0.5049910000000  0.5652770000000  0.5152730000000 1.0
C      1  0.5652410000000  0.4775030000000  0.4845660000000 1.0
C      1  0.4950590000000  0.4203130000000  0.4848540000000 1.0
C      1  0.4226440000000  0.4776650000000  0.4847200000000 1.0
C      1  0.4558820000000  0.5640270000000  0.4840010000000 1.0
C      1  0.5476830000000  0.5589520000000  0.4846220000000 1.0
C      1  0.4692910000000  0.4959040000000  0.4543810000000 1.0
C      1  0.4889700000000  0.5235800000000  0.4575350000000 1.0
C      1  0.5168810000000  0.5107530000000  0.4703870000000 1.0
C      1  0.5224690000000  0.4819350000000  0.4537240000000 1.0
C      1  0.4907400000000  0.4693710000000  0.4530240000000 1.0
C      1  0.4672460000000  0.5348960000000  0.5395760000000 1.0
C      1  0.5235390000000  0.5404540000000  0.5405520000000 1.0
C      1  0.5460770000000  0.4886270000000  0.5410130000000 1.0
C      1  0.5031700000000  0.4516730000000  0.5403860000000 1.0
C      1  0.4545560000000  0.4799980000000  0.5400140000000 1.0
C      1  0.4791220000000  0.5484430000000  0.4677880000000 1.0
C      1  0.5397910000000  0.5301750000000  0.4715830000000 1.0
C      1  0.5455070000000  0.4660350000000  0.4623050000000 1.0
C      1  0.4846750000000  0.4448720000000  0.4665370000000 1.0
C      1  0.4437710000000  0.4945300000000  0.4670680000000 1.0
C      1  0.4985680000000  0.4985910000000  0.4370800000000 1.0
C      1  0.5097070000000  0.5021750000000  0.4995370000000 1.0
C      1  0.4995210000000  0.4913230000000  0.5499860000000 1.0
C      1  0.5044540000000  0.4964620000000  0.5247640000000 1.0
END
