TITL C-2782229-3092-163 -0.00393226527279952 125000 -776.369096675731 0 0 132 (C1) n - 1
REM
REM in /home/nfs/bkarasulu/CARBON/AIRSS/Generating-Clusters/REBO/Higher-Symm/SD-CG/HFTN-CG
REM
REM
REM
REM
REM
REM ./C.cell (12c818d87b63d06a65506943cc24bca4)
REM
REM compiler GCC version 9.2.1 20190827 (Red Hat 9.2.1-1)
REM options -cpp -mtune=generic -march=x86-64 -g -O0 -fpre-include=/usr/include/finclude/math-vector-fortran.h
REM seed -1241580188 1801526059 -1954712778 1138251062 1888090105 -246922977 1766632851 -997760441 -898234592 657787041 -1198381425 1499780955 -1135419679 1010797974 -1553640237 808863853 -75612642 1812654024 -1006795942 -2117663037 1447401852 797131204 -1317035130 -382628868 -983661150 1362500660 -1356052308 -1976344285 2096055377 1676427957 1172225216 -1014350637 -1646761647
REM
CELL 1.54180   50.00000   50.00000   50.00000   90.00000   90.00000   90.00000
LATT -1
SFAC C  
C      1  0.4910200000000  0.5417640000000  0.4352440000000 1.0
C      1  0.5605040000000  0.5427360000000  0.4643660000000 1.0
C      1  0.5541280000000  0.5542680000000  0.5563020000000 1.0
C      1  0.4703240000000  0.5438680000000  0.5596630000000 1.0
C      1  0.4359340000000  0.5399050000000  0.4940780000000 1.0
C      1  0.4612180000000  0.4633700000000  0.5168530000000 1.0
C      1  0.4817800000000  0.4576710000000  0.4697960000000 1.0
C      1  0.5210950000000  0.4614070000000  0.4751020000000 1.0
C      1  0.5404050000000  0.4561100000000  0.5291170000000 1.0
C      1  0.4994350000000  0.4723000000000  0.5304330000000 1.0
C      1  0.5215260000000  0.4778250000000  0.4119260000000 1.0
C      1  0.5856040000000  0.4867050000000  0.4933990000000 1.0
C      1  0.5325790000000  0.4740650000000  0.5807620000000 1.0
C      1  0.4279570000000  0.4759260000000  0.5592850000000 1.0
C      1  0.4275280000000  0.4854630000000  0.4544970000000 1.0
C      1  0.4720830000000  0.4845860000000  0.5412160000000 1.0
C      1  0.4646550000000  0.4874210000000  0.4930140000000 1.0
C      1  0.4914760000000  0.4820440000000  0.4504590000000 1.0
C      1  0.5310570000000  0.4911690000000  0.4767720000000 1.0
C      1  0.5285060000000  0.4828340000000  0.5389220000000 1.0
C      1  0.5206420000000  0.4340950000000  0.4919680000000 1.0
C      1  0.5206260000000  0.4367270000000  0.5218260000000 1.0
C      1  0.4925610000000  0.4415100000000  0.5333410000000 1.0
C      1  0.4747330000000  0.4347740000000  0.5083440000000 1.0
C      1  0.4916900000000  0.4301500000000  0.4829310000000 1.0
C      1  0.4238780000000  0.4634800000000  0.5308440000000 1.0
C      1  0.4511920000000  0.4677600000000  0.4425270000000 1.0
C      1  0.5385130000000  0.4659030000000  0.4355990000000 1.0
C      1  0.5762700000000  0.4677320000000  0.5166690000000 1.0
C      1  0.5057490000000  0.4601850000000  0.5719510000000 1.0
C      1  0.4127170000000  0.4998520000000  0.5609340000000 1.0
C      1  0.4208710000000  0.5079570000000  0.4378230000000 1.0
C      1  0.5348690000000  0.5000740000000  0.4001820000000 1.0
C      1  0.6008280000000  0.5085800000000  0.5028630000000 1.0
C      1  0.5280120000000  0.4966770000000  0.5968520000000 1.0
C      1  0.4069820000000  0.5179670000000  0.5324750000000 1.0
C      1  0.4435410000000  0.5180040000000  0.4144250000000 1.0
C      1  0.5573820000000  0.5187360000000  0.4178110000000 1.0
C      1  0.5922200000000  0.5178410000000  0.5330940000000 1.0
C      1  0.4990930000000  0.5142030000000  0.5958090000000 1.0
C      1  0.4254320000000  0.4594780000000  0.4987510000000 1.0
C      1  0.4764170000000  0.4497920000000  0.4309570000000 1.0
C      1  0.5582050000000  0.4610780000000  0.4603720000000 1.0
C      1  0.5685910000000  0.4483630000000  0.5437230000000 1.0
C      1  0.4759830000000  0.4454970000000  0.5697980000000 1.0
C      1  0.4988550000000  0.5935030000000  0.4699020000000 1.0
C      1  0.5264610000000  0.5938810000000  0.4897780000000 1.0
C      1  0.5176300000000  0.5943570000000  0.5214560000000 1.0
C      1  0.4848860000000  0.5949380000000  0.5221970000000 1.0
C      1  0.4721300000000  0.5944540000000  0.4909010000000 1.0
C      1  0.5669230000000  0.5593300000000  0.4933110000000 1.0
C      1  0.5256450000000  0.5673260000000  0.5671000000000 1.0
C      1  0.4491030000000  0.5628860000000  0.5444770000000 1.0
C      1  0.4407340000000  0.5574070000000  0.4652610000000 1.0
C      1  0.5177340000000  0.5617090000000  0.4337120000000 1.0
C      1  0.5671780000000  0.4967580000000  0.5271820000000 1.0
C      1  0.4976920000000  0.4908660000000  0.5710960000000 1.0
C      1  0.4290930000000  0.4944030000000  0.5238860000000 1.0
C      1  0.4591100000000  0.4972510000000  0.4336980000000 1.0
C      1  0.5429350000000  0.4975880000000  0.4392680000000 1.0
C      1  0.5894760000000  0.5449570000000  0.5142030000000 1.0
C      1  0.5124130000000  0.5443670000000  0.5882990000000 1.0
C      1  0.4198470000000  0.5468050000000  0.5424600000000 1.0
C      1  0.4359910000000  0.5445510000000  0.4337930000000 1.0
C      1  0.5427390000000  0.5480520000000  0.4167180000000 1.0
C      1  0.4410920000000  0.4373700000000  0.5287930000000 1.0
C      1  0.4538280000000  0.4411380000000  0.4625530000000 1.0
C      1  0.5262170000000  0.4397740000000  0.4494630000000 1.0
C      1  0.5628400000000  0.4401110000000  0.5051610000000 1.0
C      1  0.5099010000000  0.4288340000000  0.5646710000000 1.0
C      1  0.5480230000000  0.5656720000000  0.4453280000000 1.0
C      1  0.5646680000000  0.5636810000000  0.5261730000000 1.0
C      1  0.4933300000000  0.5638280000000  0.5690250000000 1.0
C      1  0.4331330000000  0.5628420000000  0.5163330000000 1.0
C      1  0.4601940000000  0.5666190000000  0.4401300000000 1.0
C      1  0.4095100000000  0.5324270000000  0.4509760000000 1.0
C      1  0.5225330000000  0.5272710000000  0.4004370000000 1.0
C      1  0.6040880000000  0.5328760000000  0.4857440000000 1.0
C      1  0.5373260000000  0.5237520000000  0.5896740000000 1.0
C      1  0.4256020000000  0.5257550000000  0.5668650000000 1.0
C      1  0.5582290000000  0.5286800000000  0.5712220000000 1.0
C      1  0.4523100000000  0.5249000000000  0.5762730000000 1.0
C      1  0.4079220000000  0.5328300000000  0.4788410000000 1.0
C      1  0.4948870000000  0.5280680000000  0.4074600000000 1.0
C      1  0.5906750000000  0.5330390000000  0.4607930000000 1.0
C      1  0.5284860000000  0.5614250000000  0.5022760000000 1.0
C      1  0.5066490000000  0.5621520000000  0.5278760000000 1.0
C      1  0.4754930000000  0.5627920000000  0.5145250000000 1.0
C      1  0.4773490000000  0.5621170000000  0.4804740000000 1.0
C      1  0.5105330000000  0.5613590000000  0.4738810000000 1.0
C      1  0.5576950000000  0.4378800000000  0.4760680000000 1.0
C      1  0.5337770000000  0.4178190000000  0.5550190000000 1.0
C      1  0.4519460000000  0.4270690000000  0.5548450000000 1.0
C      1  0.4358770000000  0.4363150000000  0.4863240000000 1.0
C      1  0.5025430000000  0.4303040000000  0.4344070000000 1.0
C      1  0.5386830000000  0.5068340000000  0.5214700000000 1.0
C      1  0.4833570000000  0.5139530000000  0.5504680000000 1.0
C      1  0.4497640000000  0.5132790000000  0.5069590000000 1.0
C      1  0.4803080000000  0.5144010000000  0.4514230000000 1.0
C      1  0.5405640000000  0.5201140000000  0.4647600000000 1.0
C      1  0.4897860000000  0.5753650000000  0.4431520000000 1.0
C      1  0.5507430000000  0.5798320000000  0.4747020000000 1.0
C      1  0.5393770000000  0.5811350000000  0.5402530000000 1.0
C      1  0.4741820000000  0.5820780000000  0.5493980000000 1.0
C      1  0.4428830000000  0.5788480000000  0.4901170000000 1.0
C      1  0.5171130000000  0.5298760000000  0.4809820000000 1.0
C      1  0.5228970000000  0.5292410000000  0.5123050000000 1.0
C      1  0.4950780000000  0.5307810000000  0.5279270000000 1.0
C      1  0.4733820000000  0.5314000000000  0.5052070000000 1.0
C      1  0.4859080000000  0.5302570000000  0.4762040000000 1.0
C      1  0.4107830000000  0.5093740000000  0.4995320000000 1.0
C      1  0.4742490000000  0.5052390000000  0.4055140000000 1.0
C      1  0.5743190000000  0.5099350000000  0.4461850000000 1.0
C      1  0.5732360000000  0.5054380000000  0.5585580000000 1.0
C      1  0.4688770000000  0.5016780000000  0.5858650000000 1.0
C      1  0.5558900000000  0.4761100000000  0.5593790000000 1.0
C      1  0.4585340000000  0.4742860000000  0.5688210000000 1.0
C      1  0.4309330000000  0.4862160000000  0.4848180000000 1.0
C      1  0.4905480000000  0.4780840000000  0.4181930000000 1.0
C      1  0.5651230000000  0.4893000000000  0.4712870000000 1.0
C      1  0.4949290000000  0.4068420000000  0.5282140000000 1.0
C      1  0.4725900000000  0.4014240000000  0.5030650000000 1.0
C      1  0.4878810000000  0.3994480000000  0.4727570000000 1.0
C      1  0.5201370000000  0.4010290000000  0.4839960000000 1.0
C      1  0.5271220000000  0.4041150000000  0.5173640000000 1.0
C      1  0.4415500000000  0.4138100000000  0.5055350000000 1.0
C      1  0.4750480000000  0.4196060000000  0.4484510000000 1.0
C      1  0.5416300000000  0.4154310000000  0.4640830000000 1.0
C      1  0.5548610000000  0.4190620000000  0.5315740000000 1.0
C      1  0.4814970000000  0.4130630000000  0.5588030000000 1.0
C      1  0.4976470000000  0.4658720000000  0.4996730000000 1.0
C      1  0.4967600000000  0.4924500000000  0.4814800000000 1.0
END
