TITL C-2782229-3092-1424 -0.0051715727207143 125000 -727.735492074429 0 0 130 (C1) n - 1
REM
REM in /home/nfs/bkarasulu/CARBON/AIRSS/Generating-Clusters/REBO/Higher-Symm/SD-CG/HFTN-CG
REM
REM
REM
REM
REM
REM ./C.cell (12c818d87b63d06a65506943cc24bca4)
REM
REM compiler GCC version 9.2.1 20190827 (Red Hat 9.2.1-1)
REM options -cpp -mtune=generic -march=x86-64 -g -O0 -fpre-include=/usr/include/finclude/math-vector-fortran.h
REM seed 323294226 813732452 1942847092 2025942119 -768346262 -258651071 -1523940692 -1082672455 17201432 223808688 -328190439 1828719040 200231940 549215182 -1647808166 1828311957 -663231835 -1473932726 -2040805824 -1654613201 939198744 -2011682569 937949707 -1840131634 -35906088 -1320899790 -1234211565 -86492851 1121545615 1898929125 -1022440207 1761710217 448167277
REM
CELL 1.54180   50.00000   50.00000   50.00000   90.00000   90.00000   90.00000
LATT -1
SFAC C  
C      1  0.5157470000000  0.4324320000000  0.4450820000000 1.0
C      1  0.5182100000000  0.5661550000000  0.5520670000000 1.0
C      1  0.5192350000000  0.4312030000000  0.5528490000000 1.0
C      1  0.5164550000000  0.5688100000000  0.4441690000000 1.0
C      1  0.5265980000000  0.4650410000000  0.5561000000000 1.0
C      1  0.5214190000000  0.5343650000000  0.4405400000000 1.0
C      1  0.5207940000000  0.4666220000000  0.4425550000000 1.0
C      1  0.5267370000000  0.5323190000000  0.5524770000000 1.0
C      1  0.5884600000000  0.5130740000000  0.5364850000000 1.0
C      1  0.5878510000000  0.4831120000000  0.4717060000000 1.0
C      1  0.5869970000000  0.5160660000000  0.4707570000000 1.0
C      1  0.5907150000000  0.4794100000000  0.5391740000000 1.0
C      1  0.4557580000000  0.5771080000000  0.4769850000000 1.0
C      1  0.4567260000000  0.4207220000000  0.5219920000000 1.0
C      1  0.4576410000000  0.5760600000000  0.5207980000000 1.0
C      1  0.4560140000000  0.4215550000000  0.4771090000000 1.0
C      1  0.5355560000000  0.4787510000000  0.5198110000000 1.0
C      1  0.5289370000000  0.5157280000000  0.4824400000000 1.0
C      1  0.5307610000000  0.4838080000000  0.4862570000000 1.0
C      1  0.5338410000000  0.5105110000000  0.5158190000000 1.0
C      1  0.5513030000000  0.4353410000000  0.5195850000000 1.0
C      1  0.5495040000000  0.5624050000000  0.4860920000000 1.0
C      1  0.5483700000000  0.4375000000000  0.4855040000000 1.0
C      1  0.5510650000000  0.5606800000000  0.5203630000000 1.0
C      1  0.4738990000000  0.5638410000000  0.5551430000000 1.0
C      1  0.4676710000000  0.4368380000000  0.4420960000000 1.0
C      1  0.4681740000000  0.5637130000000  0.4414720000000 1.0
C      1  0.4707980000000  0.4390480000000  0.5545270000000 1.0
C      1  0.4243120000000  0.4589530000000  0.5400060000000 1.0
C      1  0.4248390000000  0.5389120000000  0.4556600000000 1.0
C      1  0.4223430000000  0.4578160000000  0.4575040000000 1.0
C      1  0.4269710000000  0.5408520000000  0.5443090000000 1.0
C      1  0.5056330000000  0.5147200000000  0.5437240000000 1.0
C      1  0.4998910000000  0.4847130000000  0.4515710000000 1.0
C      1  0.4998180000000  0.5165360000000  0.4492380000000 1.0
C      1  0.5061510000000  0.4834630000000  0.5462990000000 1.0
C      1  0.5034500000000  0.4107200000000  0.4688070000000 1.0
C      1  0.5057170000000  0.5888070000000  0.5292210000000 1.0
C      1  0.5057750000000  0.4094600000000  0.5295290000000 1.0
C      1  0.5038580000000  0.5903390000000  0.4683870000000 1.0
C      1  0.5383540000000  0.5135880000000  0.5920280000000 1.0
C      1  0.5356460000000  0.4834320000000  0.4086920000000 1.0
C      1  0.5352340000000  0.5197040000000  0.4059860000000 1.0
C      1  0.5371290000000  0.4793950000000  0.5976500000000 1.0
C      1  0.5019500000000  0.4792250000000  0.5134880000000 1.0
C      1  0.4972220000000  0.5199690000000  0.4809800000000 1.0
C      1  0.4981260000000  0.4802710000000  0.4831350000000 1.0
C      1  0.5012030000000  0.5187920000000  0.5110780000000 1.0
C      1  0.4315430000000  0.5585860000000  0.5152660000000 1.0
C      1  0.4297380000000  0.4380540000000  0.4844240000000 1.0
C      1  0.4296120000000  0.5583630000000  0.4835560000000 1.0
C      1  0.4308050000000  0.4371500000000  0.5146090000000 1.0
C      1  0.5415480000000  0.5512180000000  0.4189080000000 1.0
C      1  0.5391090000000  0.4484360000000  0.5828530000000 1.0
C      1  0.5362380000000  0.5467370000000  0.5816990000000 1.0
C      1  0.5397740000000  0.4505770000000  0.4192020000000 1.0
C      1  0.5511110000000  0.4837210000000  0.5687170000000 1.0
C      1  0.5493960000000  0.5157970000000  0.4350090000000 1.0
C      1  0.5484990000000  0.4835830000000  0.4392370000000 1.0
C      1  0.5541160000000  0.5168290000000  0.5627760000000 1.0
C      1  0.4672800000000  0.4512980000000  0.4858720000000 1.0
C      1  0.4694820000000  0.5468930000000  0.5117430000000 1.0
C      1  0.4682030000000  0.4509750000000  0.5161310000000 1.0
C      1  0.4675430000000  0.5467390000000  0.4818560000000 1.0
C      1  0.5484780000000  0.5614770000000  0.4510640000000 1.0
C      1  0.5523580000000  0.4348340000000  0.5543260000000 1.0
C      1  0.5518840000000  0.5624800000000  0.5552180000000 1.0
C      1  0.5481920000000  0.4390180000000  0.4505300000000 1.0
C      1  0.4357130000000  0.5173120000000  0.5250020000000 1.0
C      1  0.4319500000000  0.4815600000000  0.4769140000000 1.0
C      1  0.4317580000000  0.5136550000000  0.4744910000000 1.0
C      1  0.4379910000000  0.4862700000000  0.5270040000000 1.0
C      1  0.5093720000000  0.5559440000000  0.4090930000000 1.0
C      1  0.5093500000000  0.4504370000000  0.5942920000000 1.0
C      1  0.5102360000000  0.5574600000000  0.5917070000000 1.0
C      1  0.5094820000000  0.4508670000000  0.4076420000000 1.0
C      1  0.4290380000000  0.4832650000000  0.4373070000000 1.0
C      1  0.4301040000000  0.5135190000000  0.5643040000000 1.0
C      1  0.4266790000000  0.4821380000000  0.5647820000000 1.0
C      1  0.4311040000000  0.5128580000000  0.4346650000000 1.0
C      1  0.5744730000000  0.5444700000000  0.5391770000000 1.0
C      1  0.5724890000000  0.4529820000000  0.4677110000000 1.0
C      1  0.5723940000000  0.5466970000000  0.4679320000000 1.0
C      1  0.5773670000000  0.4480440000000  0.5375940000000 1.0
C      1  0.4436620000000  0.5602280000000  0.4410010000000 1.0
C      1  0.4461960000000  0.4404740000000  0.5551420000000 1.0
C      1  0.4492400000000  0.5606710000000  0.5567740000000 1.0
C      1  0.4429820000000  0.4388130000000  0.4414810000000 1.0
C      1  0.4802420000000  0.5949770000000  0.5148280000000 1.0
C      1  0.4789880000000  0.4036610000000  0.4838200000000 1.0
C      1  0.4785560000000  0.5954260000000  0.4838850000000 1.0
C      1  0.4802500000000  0.4031920000000  0.5147600000000 1.0
C      1  0.4917210000000  0.5537520000000  0.4612640000000 1.0
C      1  0.4954290000000  0.4468190000000  0.5348220000000 1.0
C      1  0.4944470000000  0.5513380000000  0.5324640000000 1.0
C      1  0.4905340000000  0.4473790000000  0.4623940000000 1.0
C      1  0.4717870000000  0.4764140000000  0.4390790000000 1.0
C      1  0.4789680000000  0.5243700000000  0.5577560000000 1.0
C      1  0.4784230000000  0.4778130000000  0.5599570000000 1.0
C      1  0.4721210000000  0.5242850000000  0.4365340000000 1.0
C      1  0.5826790000000  0.4899070000000  0.5681650000000 1.0
C      1  0.5811170000000  0.5225610000000  0.4379330000000 1.0
C      1  0.5788570000000  0.4900450000000  0.4420160000000 1.0
C      1  0.5866440000000  0.5236330000000  0.5687790000000 1.0
C      1  0.4828510000000  0.4711640000000  0.4082960000000 1.0
C      1  0.4844110000000  0.5365970000000  0.5884200000000 1.0
C      1  0.4836950000000  0.4716650000000  0.5914460000000 1.0
C      1  0.4818530000000  0.5361620000000  0.4066400000000 1.0
C      1  0.4568020000000  0.5194130000000  0.5816280000000 1.0
C      1  0.4530410000000  0.4868350000000  0.4137190000000 1.0
C      1  0.4525510000000  0.5197360000000  0.4100270000000 1.0
C      1  0.4550880000000  0.4870160000000  0.5808030000000 1.0
C      1  0.4706990000000  0.4820440000000  0.5280760000000 1.0
C      1  0.4650020000000  0.5161560000000  0.4687940000000 1.0
C      1  0.4655510000000  0.4819350000000  0.4716450000000 1.0
C      1  0.4698930000000  0.5166170000000  0.5261480000000 1.0
C      1  0.5053230000000  0.5182470000000  0.3969520000000 1.0
C      1  0.5077470000000  0.4896660000000  0.6014610000000 1.0
C      1  0.5067580000000  0.5186810000000  0.6003060000000 1.0
C      1  0.5069320000000  0.4899810000000  0.4004430000000 1.0
C      1  0.5154420000000  0.4384010000000  0.4840210000000 1.0
C      1  0.5200720000000  0.5626420000000  0.5128860000000 1.0
C      1  0.5200910000000  0.4359420000000  0.5136530000000 1.0
C      1  0.5165120000000  0.5624150000000  0.4831180000000 1.0
C      1  0.5628170000000  0.5222410000000  0.5183760000000 1.0
C      1  0.5612040000000  0.4751010000000  0.4895130000000 1.0
C      1  0.5594620000000  0.5238280000000  0.4882370000000 1.0
C      1  0.5663100000000  0.4722400000000  0.5191120000000 1.0
C      1  0.4231250000000  0.5225960000000  0.5001700000000 1.0
C      1  0.4242110000000  0.4747910000000  0.5033960000000 1.0
END
