TITL C-2782239-8622-356 48.0146551164749 125000 -1073.73063346422 0 0 189 (C1) n - 1
REM
REM in /home/nfs/bkarasulu/CARBON/AIRSS/Generating-Clusters/REBO/Higher-Symm/SD-CG/HFTN-CG
REM
REM
REM
REM
REM
REM ./C.cell (12c818d87b63d06a65506943cc24bca4)
REM
REM compiler GCC version 9.2.1 20190827 (Red Hat 9.2.1-1)
REM options -cpp -mtune=generic -march=x86-64 -g -O0 -fpre-include=/usr/include/finclude/math-vector-fortran.h
REM seed -1519029902 1628668880 828096965 1266745968 1017888699 -242018975 -200267967 -1051715997 -1805218632 149527220 69899822 1371867025 2044946671 -286476271 -331106767 -1266345027 687421831 -458565660 1563806748 -667911420 -453199172 -1657742437 1100762587 -1777774249 318929089 346125595 -2007827688 -1575505329 -1822988323 -907229345 552794176 2111920020 1607362415
REM
CELL 1.54180   50.00000   50.00000   50.00000   90.00000   90.00000   90.00000
LATT -1
SFAC C  
C      1  0.4186880000000  0.4284940000000  0.4791540000000 1.0
C      1  0.5227890000000  0.4305880000000  0.5805560000000 1.0
C      1  0.5565500000000  0.4364630000000  0.4413160000000 1.0
C      1  0.4535440000000  0.4092660000000  0.5490800000000 1.0
C      1  0.5708870000000  0.4152830000000  0.5175610000000 1.0
C      1  0.4778450000000  0.4177290000000  0.4308660000000 1.0
C      1  0.5002290000000  0.4285000000000  0.5258060000000 1.0
C      1  0.5225820000000  0.4286350000000  0.4946560000000 1.0
C      1  0.4855360000000  0.4318910000000  0.4800940000000 1.0
C      1  0.5551270000000  0.3918970000000  0.4981790000000 1.0
C      1  0.4715050000000  0.3953710000000  0.4553410000000 1.0
C      1  0.4794260000000  0.3876570000000  0.5425610000000 1.0
C      1  0.6132050000000  0.4914030000000  0.4833220000000 1.0
C      1  0.4199920000000  0.4825220000000  0.4051690000000 1.0
C      1  0.4556540000000  0.4937850000000  0.6064730000000 1.0
C      1  0.5285340000000  0.4780990000000  0.5643480000000 1.0
C      1  0.5291850000000  0.4777990000000  0.4336530000000 1.0
C      1  0.4311100000000  0.4784200000000  0.4934550000000 1.0
C      1  0.4858850000000  0.5256840000000  0.3939360000000 1.0
C      1  0.4172990000000  0.5382850000000  0.5732140000000 1.0
C      1  0.6095650000000  0.5347100000000  0.5311200000000 1.0
C      1  0.4705910000000  0.5870440000000  0.5328960000000 1.0
C      1  0.5540810000000  0.5872560000000  0.5145460000000 1.0
C      1  0.4778860000000  0.5915010000000  0.4463610000000 1.0
C      1  0.4739830000000  0.4609970000000  0.4830960000000 1.0
C      1  0.4948640000000  0.4576900000000  0.5317100000000 1.0
C      1  0.5250610000000  0.4580840000000  0.4891560000000 1.0
C      1  0.5644350000000  0.5143550000000  0.4338460000000 1.0
C      1  0.4191510000000  0.5094560000000  0.4700350000000 1.0
C      1  0.5221460000000  0.5123740000000  0.5976350000000 1.0
C      1  0.5544430000000  0.4315330000000  0.4944310000000 1.0
C      1  0.4620220000000  0.4342230000000  0.4559540000000 1.0
C      1  0.4814900000000  0.4261840000000  0.5519810000000 1.0
C      1  0.5627530000000  0.4937230000000  0.4836050000000 1.0
C      1  0.4443100000000  0.4943420000000  0.4525060000000 1.0
C      1  0.4835290000000  0.4958320000000  0.5638040000000 1.0
C      1  0.4066680000000  0.4791390000000  0.4619150000000 1.0
C      1  0.5088640000000  0.4811440000000  0.6002410000000 1.0
C      1  0.5800860000000  0.4865770000000  0.4390300000000 1.0
C      1  0.4731050000000  0.4904490000000  0.4348130000000 1.0
C      1  0.4548220000000  0.4917830000000  0.5580230000000 1.0
C      1  0.5597690000000  0.4786300000000  0.5049570000000 1.0
C      1  0.5447180000000  0.4668940000000  0.5399120000000 1.0
C      1  0.5021990000000  0.4639100000000  0.4418220000000 1.0
C      1  0.4469530000000  0.4649380000000  0.5185100000000 1.0
C      1  0.5744170000000  0.4623360000000  0.5266740000000 1.0
C      1  0.4817640000000  0.4618000000000  0.4185060000000 1.0
C      1  0.4426600000000  0.4642990000000  0.5474150000000 1.0
C      1  0.4649610000000  0.5377940000000  0.4399430000000 1.0
C      1  0.4663170000000  0.5372160000000  0.5592070000000 1.0
C      1  0.5720290000000  0.5369830000000  0.4980980000000 1.0
C      1  0.5053640000000  0.5022660000000  0.4797550000000 1.0
C      1  0.4830130000000  0.5029610000000  0.5066100000000 1.0
C      1  0.5155670000000  0.5045930000000  0.5182460000000 1.0
C      1  0.6067450000000  0.4644620000000  0.5227670000000 1.0
C      1  0.4625920000000  0.4601950000000  0.3913370000000 1.0
C      1  0.4292510000000  0.4662100000000  0.5784640000000 1.0
C      1  0.4249300000000  0.5693670000000  0.5611600000000 1.0
C      1  0.5968850000000  0.5656440000000  0.5356910000000 1.0
C      1  0.4810290000000  0.5561870000000  0.4083080000000 1.0
C      1  0.4245230000000  0.4392670000000  0.5624280000000 1.0
C      1  0.5954320000000  0.4401800000000  0.5418450000000 1.0
C      1  0.4958930000000  0.4583610000000  0.3883480000000 1.0
C      1  0.5692180000000  0.5809070000000  0.5448320000000 1.0
C      1  0.4967750000000  0.5844590000000  0.4186290000000 1.0
C      1  0.4367180000000  0.5859190000000  0.5366220000000 1.0
C      1  0.4942530000000  0.5514910000000  0.4398960000000 1.0
C      1  0.4392530000000  0.5465430000000  0.5408480000000 1.0
C      1  0.5698210000000  0.5456070000000  0.5275430000000 1.0
C      1  0.5457710000000  0.5224300000000  0.5493520000000 1.0
C      1  0.5303610000000  0.5404250000000  0.4520180000000 1.0
C      1  0.4406920000000  0.5345960000000  0.4957970000000 1.0
C      1  0.5149630000000  0.5436730000000  0.5869230000000 1.0
C      1  0.5691050000000  0.5454370000000  0.4443040000000 1.0
C      1  0.4205720000000  0.5414760000000  0.4621090000000 1.0
C      1  0.4879260000000  0.5799740000000  0.4755810000000 1.0
C      1  0.4998800000000  0.5754640000000  0.5198750000000 1.0
C      1  0.5249770000000  0.5753200000000  0.5012830000000 1.0
C      1  0.4735770000000  0.5524620000000  0.4833710000000 1.0
C      1  0.5070280000000  0.5494090000000  0.5352890000000 1.0
C      1  0.5336560000000  0.5451350000000  0.4913910000000 1.0
C      1  0.4449370000000  0.4828760000000  0.3937110000000 1.0
C      1  0.4329650000000  0.4904760000000  0.5913120000000 1.0
C      1  0.6123150000000  0.4894760000000  0.5118270000000 1.0
C      1  0.5944250000000  0.5793310000000  0.4728350000000 1.0
C      1  0.4307410000000  0.5748870000000  0.4308890000000 1.0
C      1  0.4776150000000  0.5779620000000  0.5934730000000 1.0
C      1  0.5509050000000  0.5351580000000  0.4106900000000 1.0
C      1  0.4023900000000  0.5240700000000  0.4928960000000 1.0
C      1  0.5513830000000  0.5277730000000  0.5888630000000 1.0
C      1  0.5726640000000  0.4611180000000  0.4586820000000 1.0
C      1  0.4176110000000  0.4505240000000  0.4535510000000 1.0
C      1  0.4983700000000  0.4518790000000  0.5876820000000 1.0
C      1  0.4479480000000  0.5534210000000  0.4614590000000 1.0
C      1  0.4943700000000  0.5513840000000  0.5642840000000 1.0
C      1  0.5605410000000  0.5550090000000  0.4735840000000 1.0
C      1  0.4835620000000  0.5022950000000  0.5950040000000 1.0
C      1  0.5883110000000  0.5016730000000  0.4674760000000 1.0
C      1  0.4161700000000  0.4948720000000  0.4332210000000 1.0
C      1  0.5086500000000  0.4232160000000  0.4258390000000 1.0
C      1  0.4320870000000  0.4178620000000  0.5295060000000 1.0
C      1  0.5641550000000  0.4218160000000  0.5473510000000 1.0
C      1  0.5574880000000  0.4801380000000  0.4148680000000 1.0
C      1  0.3993780000000  0.4777840000000  0.4952490000000 1.0
C      1  0.5404390000000  0.4702770000000  0.5934700000000 1.0
C      1  0.4672880000000  0.5214960000000  0.5285690000000 1.0
C      1  0.5452620000000  0.5190440000000  0.5100030000000 1.0
C      1  0.4825620000000  0.5241220000000  0.4665150000000 1.0
C      1  0.5989310000000  0.5536110000000  0.4844030000000 1.0
C      1  0.4352810000000  0.5447640000000  0.4245710000000 1.0
C      1  0.4644320000000  0.5521810000000  0.5904990000000 1.0
C      1  0.4701390000000  0.4382710000000  0.5921360000000 1.0
C      1  0.5912280000000  0.4511460000000  0.4823610000000 1.0
C      1  0.4285560000000  0.4393090000000  0.4267650000000 1.0
C      1  0.5194310000000  0.5584280000000  0.4178360000000 1.0
C      1  0.4198170000000  0.5682730000000  0.5140380000000 1.0
C      1  0.5711320000000  0.5503700000000  0.5615780000000 1.0
C      1  0.5679020000000  0.5061680000000  0.5326790000000 1.0
C      1  0.4986400000000  0.5121900000000  0.4380710000000 1.0
C      1  0.4378100000000  0.5071820000000  0.5353080000000 1.0
C      1  0.5258550000000  0.5755930000000  0.5588620000000 1.0
C      1  0.5436930000000  0.5868840000000  0.4487950000000 1.0
C      1  0.4308460000000  0.5814600000000  0.4841180000000 1.0
C      1  0.6159170000000  0.5565600000000  0.5092430000000 1.0
C      1  0.4546160000000  0.5367290000000  0.4016420000000 1.0
C      1  0.4348760000000  0.5583930000000  0.5909750000000 1.0
C      1  0.5113950000000  0.5972700000000  0.4462600000000 1.0
C      1  0.4499510000000  0.5934370000000  0.5065800000000 1.0
C      1  0.5412630000000  0.6000190000000  0.5423630000000 1.0
C      1  0.5492830000000  0.5649850000000  0.4272390000000 1.0
C      1  0.4067240000000  0.5571200000000  0.4859340000000 1.0
C      1  0.5433100000000  0.5571560000000  0.5782410000000 1.0
C      1  0.5368880000000  0.5049090000000  0.4035230000000 1.0
C      1  0.4017100000000  0.5032550000000  0.5186150000000 1.0
C      1  0.5577430000000  0.4951750000000  0.5856800000000 1.0
C      1  0.4288730000000  0.5122330000000  0.5676120000000 1.0
C      1  0.5982620000000  0.5104680000000  0.5255630000000 1.0
C      1  0.4626750000000  0.5044600000000  0.4055220000000 1.0
C      1  0.5255080000000  0.5079110000000  0.5657230000000 1.0
C      1  0.5323750000000  0.5110860000000  0.4427110000000 1.0
C      1  0.4389300000000  0.5065850000000  0.5046810000000 1.0
C      1  0.5495700000000  0.4492820000000  0.4146130000000 1.0
C      1  0.3910390000000  0.4522570000000  0.5072230000000 1.0
C      1  0.5593000000000  0.4482590000000  0.5891520000000 1.0
C      1  0.4121880000000  0.5254590000000  0.4340930000000 1.0
C      1  0.4871600000000  0.5317480000000  0.5982560000000 1.0
C      1  0.5910420000000  0.5314640000000  0.4634670000000 1.0
C      1  0.5340790000000  0.4994720000000  0.4723130000000 1.0
C      1  0.4598750000000  0.5034940000000  0.4798810000000 1.0
C      1  0.5026690000000  0.5171730000000  0.5454800000000 1.0
C      1  0.4064890000000  0.4766090000000  0.5344970000000 1.0
C      1  0.5750510000000  0.4857800000000  0.5590570000000 1.0
C      1  0.5234630000000  0.4754950000000  0.3960870000000 1.0
C      1  0.4883040000000  0.4799360000000  0.4647260000000 1.0
C      1  0.4764070000000  0.4714090000000  0.5123840000000 1.0
C      1  0.5287270000000  0.4769100000000  0.5140500000000 1.0
C      1  0.4408400000000  0.4090890000000  0.4974280000000 1.0
C      1  0.5316330000000  0.4086680000000  0.5555870000000 1.0
C      1  0.5306980000000  0.4166770000000  0.4512060000000 1.0
C      1  0.5937060000000  0.4339910000000  0.5005460000000 1.0
C      1  0.4495640000000  0.4289430000000  0.4183700000000 1.0
C      1  0.4540690000000  0.4224800000000  0.5806680000000 1.0
C      1  0.4603010000000  0.5509140000000  0.5139320000000 1.0
C      1  0.5383350000000  0.5507030000000  0.5390560000000 1.0
C      1  0.5104330000000  0.5566040000000  0.4691210000000 1.0
C      1  0.5340790000000  0.4004580000000  0.4804700000000 1.0
C      1  0.4673970000000  0.4048640000000  0.4824340000000 1.0
C      1  0.5063680000000  0.3986100000000  0.5378470000000 1.0
C      1  0.4121030000000  0.5358520000000  0.5233210000000 1.0
C      1  0.5785640000000  0.5182080000000  0.5706520000000 1.0
C      1  0.5121840000000  0.5264340000000  0.4118170000000 1.0
C      1  0.5391060000000  0.4409560000000  0.5542050000000 1.0
C      1  0.5051830000000  0.4359290000000  0.4566590000000 1.0
C      1  0.4351010000000  0.4405350000000  0.5053840000000 1.0
C      1  0.4961320000000  0.4149010000000  0.5728880000000 1.0
C      1  0.5650700000000  0.4236760000000  0.4699640000000 1.0
C      1  0.4377620000000  0.4164740000000  0.4582810000000 1.0
C      1  0.4082600000000  0.4423850000000  0.5344500000000 1.0
C      1  0.5756060000000  0.4521920000000  0.5648310000000 1.0
C      1  0.5200340000000  0.4426440000000  0.4056430000000 1.0
C      1  0.4440400000000  0.4593450000000  0.4713750000000 1.0
C      1  0.4990860000000  0.4693360000000  0.5598070000000 1.0
C      1  0.5409200000000  0.4670160000000  0.4635330000000 1.0
C      1  0.5246890000000  0.5955770000000  0.4759570000000 1.0
C      1  0.4780620000000  0.5986060000000  0.4955030000000 1.0
C      1  0.5091400000000  0.6037460000000  0.5366130000000 1.0
C      1  0.4926530000000  0.5831780000000  0.5582320000000 1.0
C      1  0.5571290000000  0.5862330000000  0.4805480000000 1.0
C      1  0.4468840000000  0.5851230000000  0.4543380000000 1.0
END
