TITL C-2782236-320-931 0.00299678684965704 125000 -789.491965411466 0 0 132 (C1) n - 1
REM
REM in /home/nfs/bkarasulu/CARBON/AIRSS/Generating-Clusters/REBO/Higher-Symm/SD-CG/HFTN-CG
REM
REM
REM
REM
REM
REM ./C.cell (12c818d87b63d06a65506943cc24bca4)
REM
REM compiler GCC version 9.2.1 20190827 (Red Hat 9.2.1-1)
REM options -cpp -mtune=generic -march=x86-64 -g -O0 -fpre-include=/usr/include/finclude/math-vector-fortran.h
REM seed 1978000776 -2021674369 2090148230 854518884 470682687 1796991302 636655848 -1987445362 -2051850025 1713814230 1379982633 -483053047 215174396 1858710163 1800674957 -414463781 987536000 -1485020461 1800566515 1099320896 5303621 -1598044556 -1274586434 -1982634096 -1203595051 2138753311 -1755266282 -342405048 -2033010521 1043329670 -1636144894 524129452 1454611767
REM
CELL 1.54180   50.00000   50.00000   50.00000   90.00000   90.00000   90.00000
LATT -1
SFAC C  
C      1  0.5000100000000  0.4573140000000  0.4830470000000 1.0
C      1  0.4784250000000  0.4998360000000  0.4553480000000 1.0
C      1  0.4566390000000  0.4819060000000  0.5020340000000 1.0
C      1  0.4972270000000  0.5464150000000  0.4749740000000 1.0
C      1  0.4987470000000  0.4562470000000  0.5230080000000 1.0
C      1  0.5002520000000  0.5439740000000  0.5261880000000 1.0
C      1  0.5205030000000  0.4997450000000  0.4568080000000 1.0
C      1  0.5220290000000  0.5002750000000  0.5446230000000 1.0
C      1  0.4795840000000  0.5001660000000  0.5480880000000 1.0
C      1  0.5373780000000  0.5243970000000  0.4997100000000 1.0
C      1  0.5452650000000  0.4748300000000  0.4993830000000 1.0
C      1  0.4572930000000  0.5218460000000  0.5019800000000 1.0
C      1  0.4566480000000  0.5024930000000  0.4757400000000 1.0
C      1  0.5000830000000  0.4750420000000  0.4576950000000 1.0
C      1  0.4745410000000  0.4589400000000  0.5033390000000 1.0
C      1  0.5418020000000  0.4996050000000  0.4790640000000 1.0
C      1  0.4572880000000  0.5004790000000  0.5271930000000 1.0
C      1  0.5399540000000  0.5000940000000  0.5190170000000 1.0
C      1  0.4988190000000  0.5243410000000  0.4544480000000 1.0
C      1  0.5018620000000  0.5248920000000  0.5480670000000 1.0
C      1  0.5007840000000  0.4758020000000  0.5454680000000 1.0
C      1  0.5183780000000  0.5464670000000  0.5005080000000 1.0
C      1  0.4785130000000  0.5443630000000  0.5013890000000 1.0
C      1  0.5240610000000  0.4555370000000  0.5025240000000 1.0
C      1  0.5258140000000  0.4972400000000  0.4067120000000 1.0
C      1  0.4065070000000  0.5244860000000  0.5040620000000 1.0
C      1  0.5088420000000  0.4070860000000  0.5113800000000 1.0
C      1  0.4786250000000  0.4965090000000  0.4044870000000 1.0
C      1  0.4855670000000  0.4992210000000  0.5982610000000 1.0
C      1  0.5250050000000  0.4991760000000  0.5950570000000 1.0
C      1  0.5949990000000  0.4811800000000  0.5030690000000 1.0
C      1  0.5891840000000  0.5321620000000  0.5042340000000 1.0
C      1  0.4047930000000  0.4733600000000  0.5029670000000 1.0
C      1  0.4922340000000  0.5953760000000  0.5180610000000 1.0
C      1  0.5113780000000  0.4045850000000  0.4716040000000 1.0
C      1  0.4968970000000  0.5968650000000  0.4790400000000 1.0
C      1  0.5027490000000  0.5162160000000  0.4042300000000 1.0
C      1  0.5367870000000  0.4049730000000  0.4913940000000 1.0
C      1  0.4071260000000  0.5004530000000  0.5224760000000 1.0
C      1  0.5024060000000  0.4765590000000  0.4070200000000 1.0
C      1  0.5054100000000  0.4748190000000  0.5957660000000 1.0
C      1  0.5043950000000  0.5228410000000  0.5981020000000 1.0
C      1  0.4681390000000  0.5992790000000  0.4943840000000 1.0
C      1  0.5185050000000  0.5958570000000  0.5006360000000 1.0
C      1  0.4835300000000  0.4065250000000  0.4911610000000 1.0
C      1  0.5894830000000  0.5042690000000  0.5225680000000 1.0
C      1  0.4033630000000  0.5012770000000  0.4834020000000 1.0
C      1  0.5943370000000  0.5055180000000  0.4833160000000 1.0
C      1  0.5380300000000  0.5730980000000  0.4979880000000 1.0
C      1  0.4992050000000  0.5422260000000  0.5757740000000 1.0
C      1  0.5661530000000  0.4989730000000  0.5379800000000 1.0
C      1  0.4675110000000  0.4341700000000  0.4835120000000 1.0
C      1  0.4611650000000  0.5717060000000  0.5103630000000 1.0
C      1  0.5348190000000  0.4280910000000  0.5133060000000 1.0
C      1  0.5068400000000  0.4594560000000  0.5724080000000 1.0
C      1  0.5019040000000  0.5383100000000  0.4245960000000 1.0
C      1  0.4998270000000  0.4572430000000  0.4306550000000 1.0
C      1  0.4286410000000  0.5018220000000  0.5434030000000 1.0
C      1  0.4265690000000  0.4977830000000  0.4616380000000 1.0
C      1  0.5694820000000  0.5079170000000  0.4621680000000 1.0
C      1  0.5647270000000  0.5318880000000  0.4842900000000 1.0
C      1  0.5428200000000  0.4984670000000  0.5704290000000 1.0
C      1  0.4835550000000  0.5698820000000  0.5351450000000 1.0
C      1  0.4311960000000  0.4729220000000  0.4840720000000 1.0
C      1  0.5739080000000  0.4590210000000  0.5033660000000 1.0
C      1  0.4309970000000  0.5418900000000  0.5049910000000 1.0
C      1  0.4639970000000  0.5008830000000  0.5774940000000 1.0
C      1  0.5422390000000  0.5014070000000  0.4313390000000 1.0
C      1  0.4625860000000  0.4959460000000  0.4272150000000 1.0
C      1  0.5025590000000  0.4264850000000  0.5364560000000 1.0
C      1  0.4947030000000  0.4316920000000  0.4627760000000 1.0
C      1  0.4987270000000  0.5747890000000  0.4585900000000 1.0
C      1  0.5676170000000  0.4868150000000  0.4286090000000 1.0
C      1  0.4275620000000  0.5652600000000  0.4866410000000 1.0
C      1  0.4826840000000  0.4162520000000  0.5554810000000 1.0
C      1  0.4195920000000  0.5178600000000  0.4066740000000 1.0
C      1  0.4427520000000  0.4813560000000  0.5851160000000 1.0
C      1  0.5672310000000  0.5151400000000  0.5744770000000 1.0
C      1  0.5803590000000  0.4343700000000  0.4867020000000 1.0
C      1  0.5884130000000  0.5582510000000  0.5179930000000 1.0
C      1  0.3986940000000  0.4469170000000  0.5140770000000 1.0
C      1  0.5223930000000  0.5946040000000  0.5660310000000 1.0
C      1  0.5190760000000  0.4067940000000  0.4416370000000 1.0
C      1  0.4789380000000  0.5797750000000  0.4363210000000 1.0
C      1  0.4813460000000  0.5581350000000  0.4160430000000 1.0
C      1  0.5640530000000  0.4083520000000  0.4800960000000 1.0
C      1  0.4211840000000  0.4825140000000  0.5650510000000 1.0
C      1  0.5186070000000  0.4341430000000  0.4279880000000 1.0
C      1  0.4776440000000  0.4220760000000  0.5852710000000 1.0
C      1  0.5153610000000  0.5669270000000  0.5790300000000 1.0
C      1  0.4404490000000  0.5929350000000  0.4835620000000 1.0
C      1  0.5635890000000  0.5764390000000  0.5135330000000 1.0
C      1  0.4169170000000  0.4214090000000  0.5100350000000 1.0
C      1  0.5972560000000  0.5129630000000  0.5663380000000 1.0
C      1  0.4053170000000  0.5112580000000  0.4329860000000 1.0
C      1  0.5955230000000  0.4795920000000  0.4398200000000 1.0
C      1  0.4056930000000  0.4390930000000  0.5436990000000 1.0
C      1  0.5488800000000  0.4086420000000  0.4320130000000 1.0
C      1  0.4303650000000  0.5465840000000  0.4105460000000 1.0
C      1  0.5965370000000  0.5646690000000  0.5469320000000 1.0
C      1  0.5905430000000  0.4275890000000  0.4577050000000 1.0
C      1  0.4165790000000  0.5607540000000  0.4578800000000 1.0
C      1  0.4500870000000  0.5893180000000  0.4328720000000 1.0
C      1  0.4508690000000  0.4162930000000  0.5564840000000 1.0
C      1  0.5535040000000  0.5909980000000  0.5618820000000 1.0
C      1  0.5684310000000  0.4564170000000  0.4222410000000 1.0
C      1  0.5643140000000  0.5448810000000  0.5799450000000 1.0
C      1  0.4312820000000  0.4520460000000  0.5885370000000 1.0
C      1  0.4291850000000  0.4178540000000  0.5388050000000 1.0
C      1  0.4130080000000  0.5420990000000  0.4374850000000 1.0
C      1  0.5479940000000  0.4374710000000  0.4191430000000 1.0
C      1  0.5729410000000  0.5859650000000  0.5418310000000 1.0
C      1  0.4316210000000  0.5882090000000  0.4544500000000 1.0
C      1  0.5704490000000  0.4038040000000  0.4503800000000 1.0
C      1  0.5944670000000  0.4484080000000  0.4388860000000 1.0
C      1  0.4078740000000  0.4554990000000  0.5665150000000 1.0
C      1  0.5929960000000  0.5445480000000  0.5669750000000 1.0
C      1  0.4514040000000  0.5653210000000  0.4114730000000 1.0
C      1  0.5461600000000  0.5657790000000  0.5794800000000 1.0
C      1  0.4476050000000  0.4289660000000  0.5862960000000 1.0
C      1  0.5232150000000  0.5545370000000  0.4458570000000 1.0
C      1  0.4496510000000  0.5247950000000  0.5576300000000 1.0
C      1  0.5273940000000  0.4462090000000  0.5489210000000 1.0
C      1  0.5496370000000  0.4721030000000  0.5507150000000 1.0
C      1  0.5461290000000  0.5294670000000  0.4491570000000 1.0
C      1  0.4478350000000  0.4753560000000  0.4473840000000 1.0
C      1  0.4723260000000  0.5494900000000  0.5586580000000 1.0
C      1  0.5545380000000  0.4487730000000  0.5281400000000 1.0
C      1  0.4504490000000  0.5477510000000  0.5323230000000 1.0
C      1  0.4435970000000  0.4480860000000  0.4674510000000 1.0
C      1  0.5447590000000  0.5550750000000  0.4718290000000 1.0
C      1  0.4708030000000  0.4501090000000  0.4469830000000 1.0
END
