TITL C-2782238-9940-1430 -0.0021370298994112 125000 -1058.49977033362 0 0 183 (C1) n - 1
REM
REM in /home/nfs/bkarasulu/CARBON/AIRSS/Generating-Clusters/REBO/Higher-Symm/SD-CG/HFTN-CG
REM
REM
REM
REM
REM
REM ./C.cell (12c818d87b63d06a65506943cc24bca4)
REM
REM compiler GCC version 9.2.1 20190827 (Red Hat 9.2.1-1)
REM options -cpp -mtune=generic -march=x86-64 -g -O0 -fpre-include=/usr/include/finclude/math-vector-fortran.h
REM seed 969315778 -1457960432 1268315658 -195271485 1396751178 1648073917 659503149 -151478234 2059206728 -636954030 1345462102 1600474060 1971728238 -77807921 2067688171 1683096677 -489707596 -2036349863 63402580 -1980253930 -1901908613 -1145795359 1901000995 -176547065 1676090371 -1319163532 -2087779321 1737121514 1692818463 -1769177677 -92876768 -1809848668 1588598838
REM
CELL 1.54180   50.00000   50.00000   50.00000   90.00000   90.00000   90.00000
LATT -1
SFAC C  
C      1  0.5891200000000  0.5486100000000  0.5534310000000 1.0
C      1  0.5862390000000  0.5217150000000  0.4374040000000 1.0
C      1  0.5858810000000  0.4319580000000  0.5230730000000 1.0
C      1  0.4142670000000  0.5555690000000  0.5428370000000 1.0
C      1  0.4145770000000  0.5093860000000  0.4299070000000 1.0
C      1  0.4107960000000  0.4316820000000  0.5279920000000 1.0
C      1  0.5944770000000  0.4473780000000  0.5511680000000 1.0
C      1  0.5817140000000  0.4878120000000  0.4386050000000 1.0
C      1  0.5898560000000  0.5698890000000  0.5268090000000 1.0
C      1  0.4135110000000  0.4542770000000  0.5533100000000 1.0
C      1  0.4127740000000  0.4760370000000  0.4363830000000 1.0
C      1  0.4155920000000  0.5690720000000  0.5115820000000 1.0
C      1  0.4749170000000  0.6006500000000  0.4539540000000 1.0
C      1  0.4641370000000  0.4104540000000  0.4337290000000 1.0
C      1  0.4695340000000  0.4818860000000  0.6117730000000 1.0
C      1  0.5312020000000  0.6038790000000  0.4570770000000 1.0
C      1  0.5321160000000  0.4149240000000  0.4294470000000 1.0
C      1  0.5348910000000  0.4876370000000  0.6081710000000 1.0
C      1  0.4624840000000  0.3975850000000  0.4589500000000 1.0
C      1  0.4683070000000  0.5848880000000  0.4317870000000 1.0
C      1  0.4677440000000  0.5117640000000  0.6060270000000 1.0
C      1  0.5274930000000  0.4023130000000  0.4585280000000 1.0
C      1  0.5346070000000  0.5874210000000  0.4311300000000 1.0
C      1  0.5337830000000  0.5154140000000  0.6069230000000 1.0
C      1  0.4151280000000  0.5496100000000  0.4835430000000 1.0
C      1  0.4080450000000  0.4608370000000  0.4665930000000 1.0
C      1  0.4104500000000  0.4882520000000  0.5497650000000 1.0
C      1  0.5908540000000  0.5580160000000  0.4949230000000 1.0
C      1  0.5893630000000  0.4650290000000  0.4631010000000 1.0
C      1  0.5956900000000  0.4806160000000  0.5500260000000 1.0
C      1  0.4083150000000  0.4439360000000  0.4963420000000 1.0
C      1  0.4090840000000  0.5320100000000  0.4547400000000 1.0
C      1  0.4086280000000  0.5225200000000  0.5488210000000 1.0
C      1  0.5851940000000  0.4496250000000  0.4939060000000 1.0
C      1  0.5913830000000  0.5393910000000  0.4661940000000 1.0
C      1  0.5942780000000  0.5148770000000  0.5506530000000 1.0
C      1  0.4550470000000  0.3951710000000  0.5124380000000 1.0
C      1  0.4618010000000  0.5577180000000  0.5793210000000 1.0
C      1  0.4611300000000  0.5379550000000  0.4071860000000 1.0
C      1  0.5362750000000  0.4028370000000  0.5119700000000 1.0
C      1  0.5396480000000  0.5603440000000  0.5778500000000 1.0
C      1  0.5405040000000  0.5402380000000  0.4071010000000 1.0
C      1  0.4641920000000  0.5969430000000  0.5138460000000 1.0
C      1  0.4633880000000  0.4412370000000  0.5763170000000 1.0
C      1  0.4568220000000  0.4569010000000  0.4089230000000 1.0
C      1  0.5448940000000  0.6048130000000  0.5116430000000 1.0
C      1  0.5426860000000  0.4439240000000  0.5774950000000 1.0
C      1  0.5368380000000  0.4640340000000  0.4087350000000 1.0
C      1  0.5243380000000  0.4457660000000  0.4532060000000 1.0
C      1  0.5286320000000  0.4885440000000  0.5688490000000 1.0
C      1  0.5181790000000  0.5671520000000  0.4825650000000 1.0
C      1  0.4720350000000  0.4443080000000  0.4529880000000 1.0
C      1  0.4766850000000  0.4796030000000  0.5652930000000 1.0
C      1  0.4842040000000  0.5636220000000  0.4797240000000 1.0
C      1  0.5263850000000  0.5557160000000  0.4533980000000 1.0
C      1  0.5287600000000  0.5181760000000  0.5674000000000 1.0
C      1  0.5156460000000  0.4344080000000  0.4798760000000 1.0
C      1  0.4752240000000  0.5520140000000  0.4532640000000 1.0
C      1  0.4761160000000  0.5095790000000  0.5672280000000 1.0
C      1  0.4814840000000  0.4308150000000  0.4809030000000 1.0
C      1  0.5751820000000  0.5762710000000  0.4714360000000 1.0
C      1  0.5751770000000  0.4416090000000  0.4428490000000 1.0
C      1  0.5795270000000  0.4891850000000  0.5787980000000 1.0
C      1  0.4333950000000  0.5766430000000  0.4738090000000 1.0
C      1  0.4209360000000  0.4379610000000  0.4447540000000 1.0
C      1  0.4260130000000  0.4816170000000  0.5793900000000 1.0
C      1  0.5694610000000  0.4307320000000  0.4724930000000 1.0
C      1  0.5783810000000  0.5614180000000  0.4434350000000 1.0
C      1  0.5789590000000  0.5212070000000  0.5805770000000 1.0
C      1  0.4216180000000  0.4238570000000  0.4733860000000 1.0
C      1  0.4246660000000  0.5609770000000  0.4465040000000 1.0
C      1  0.4226700000000  0.5136030000000  0.5785960000000 1.0
C      1  0.4898280000000  0.5939530000000  0.4913570000000 1.0
C      1  0.4823640000000  0.4373740000000  0.4217610000000 1.0
C      1  0.4872000000000  0.4626890000000  0.5897800000000 1.0
C      1  0.5194510000000  0.6007140000000  0.4891930000000 1.0
C      1  0.5130900000000  0.4420290000000  0.4211490000000 1.0
C      1  0.5177120000000  0.4643400000000  0.5899060000000 1.0
C      1  0.4795730000000  0.3974650000000  0.4885350000000 1.0
C      1  0.4857560000000  0.5576350000000  0.4211680000000 1.0
C      1  0.4857400000000  0.5346770000000  0.5882120000000 1.0
C      1  0.5108160000000  0.4030280000000  0.4890710000000 1.0
C      1  0.5161670000000  0.5601050000000  0.4213440000000 1.0
C      1  0.5154440000000  0.5383080000000  0.5893050000000 1.0
C      1  0.5128110000000  0.4201750000000  0.5267020000000 1.0
C      1  0.5167080000000  0.5681690000000  0.5539560000000 1.0
C      1  0.5169210000000  0.5180650000000  0.4167840000000 1.0
C      1  0.4798840000000  0.4116490000000  0.5258470000000 1.0
C      1  0.4847450000000  0.5575160000000  0.5548330000000 1.0
C      1  0.4834390000000  0.5130000000000  0.4124270000000 1.0
C      1  0.5206690000000  0.5882170000000  0.5271030000000 1.0
C      1  0.5171650000000  0.4379840000000  0.5557540000000 1.0
C      1  0.5117240000000  0.4852090000000  0.4176590000000 1.0
C      1  0.4880990000000  0.5783530000000  0.5279890000000 1.0
C      1  0.4843450000000  0.4322790000000  0.5518510000000 1.0
C      1  0.4784280000000  0.4814020000000  0.4117340000000 1.0
C      1  0.5477130000000  0.4869330000000  0.4391460000000 1.0
C      1  0.5619870000000  0.4556120000000  0.5446580000000 1.0
C      1  0.5580690000000  0.5676420000000  0.5155170000000 1.0
C      1  0.4459870000000  0.4854490000000  0.4347130000000 1.0
C      1  0.4451910000000  0.4469110000000  0.5412440000000 1.0
C      1  0.4475090000000  0.5615730000000  0.5216950000000 1.0
C      1  0.5532280000000  0.5156840000000  0.4355570000000 1.0
C      1  0.5568390000000  0.5538710000000  0.5424590000000 1.0
C      1  0.5528840000000  0.4381730000000  0.5198110000000 1.0
C      1  0.4479490000000  0.5159220000000  0.4374080000000 1.0
C      1  0.4458880000000  0.5428090000000  0.5462540000000 1.0
C      1  0.4417650000000  0.4323920000000  0.5146780000000 1.0
C      1  0.4349210000000  0.4085010000000  0.5368660000000 1.0
C      1  0.4391200000000  0.5732850000000  0.5590090000000 1.0
C      1  0.4385170000000  0.5122690000000  0.4053450000000 1.0
C      1  0.5624550000000  0.4085550000000  0.5328780000000 1.0
C      1  0.5682000000000  0.5740520000000  0.5648290000000 1.0
C      1  0.5684880000000  0.5205370000000  0.4074230000000 1.0
C      1  0.4354700000000  0.5908360000000  0.5298230000000 1.0
C      1  0.4337280000000  0.4283700000000  0.5649130000000 1.0
C      1  0.4307650000000  0.4788660000000  0.4068190000000 1.0
C      1  0.5657130000000  0.5927960000000  0.5360960000000 1.0
C      1  0.5677060000000  0.4276130000000  0.5608550000000 1.0
C      1  0.5625230000000  0.4867910000000  0.4095540000000 1.0
C      1  0.4480400000000  0.4651670000000  0.5939640000000 1.0
C      1  0.4575080000000  0.5953260000000  0.4803810000000 1.0
C      1  0.4433760000000  0.4311140000000  0.4241640000000 1.0
C      1  0.5566560000000  0.4702300000000  0.5940850000000 1.0
C      1  0.5564450000000  0.6006870000000  0.4797230000000 1.0
C      1  0.5524460000000  0.4372080000000  0.4219120000000 1.0
C      1  0.4467320000000  0.5302350000000  0.5927120000000 1.0
C      1  0.4410080000000  0.4002760000000  0.4817620000000 1.0
C      1  0.4468080000000  0.5639900000000  0.4237330000000 1.0
C      1  0.5544400000000  0.5350290000000  0.5949230000000 1.0
C      1  0.5492930000000  0.4075730000000  0.4809090000000 1.0
C      1  0.5552640000000  0.5662090000000  0.4229530000000 1.0
C      1  0.5718990000000  0.4898440000000  0.5270950000000 1.0
C      1  0.5690870000000  0.5329940000000  0.4991460000000 1.0
C      1  0.5650290000000  0.4856850000000  0.4748600000000 1.0
C      1  0.4329130000000  0.4809870000000  0.5247320000000 1.0
C      1  0.4361210000000  0.5292380000000  0.5013600000000 1.0
C      1  0.4315320000000  0.4853110000000  0.4718600000000 1.0
C      1  0.5712810000000  0.5207650000000  0.5256380000000 1.0
C      1  0.5631510000000  0.4731830000000  0.5038660000000 1.0
C      1  0.5675980000000  0.5153470000000  0.4726770000000 1.0
C      1  0.4311880000000  0.5124130000000  0.5252910000000 1.0
C      1  0.4323770000000  0.4675310000000  0.4983440000000 1.0
C      1  0.4315650000000  0.5146380000000  0.4735700000000 1.0
C      1  0.4827160000000  0.4719480000000  0.4417900000000 1.0
C      1  0.4818950000000  0.4628640000000  0.5395680000000 1.0
C      1  0.4828640000000  0.5480790000000  0.5162550000000 1.0
C      1  0.5119400000000  0.4734790000000  0.4487260000000 1.0
C      1  0.5203920000000  0.4696980000000  0.5459300000000 1.0
C      1  0.5198500000000  0.5566760000000  0.5157910000000 1.0
C      1  0.4870080000000  0.5240040000000  0.4426030000000 1.0
C      1  0.4824320000000  0.5271650000000  0.5424350000000 1.0
C      1  0.4801020000000  0.4426190000000  0.5129240000000 1.0
C      1  0.5168730000000  0.5268960000000  0.4476400000000 1.0
C      1  0.5206310000000  0.5371280000000  0.5436370000000 1.0
C      1  0.5169010000000  0.4510480000000  0.5183310000000 1.0
C      1  0.4792400000000  0.4822570000000  0.5162040000000 1.0
C      1  0.4781060000000  0.5254890000000  0.4926910000000 1.0
C      1  0.4729990000000  0.4843580000000  0.4685010000000 1.0
C      1  0.5185680000000  0.4903270000000  0.5220980000000 1.0
C      1  0.5227170000000  0.5295260000000  0.4949860000000 1.0
C      1  0.5185110000000  0.4873620000000  0.4737190000000 1.0
C      1  0.4801730000000  0.5087860000000  0.5172870000000 1.0
C      1  0.4748440000000  0.4688120000000  0.4910090000000 1.0
C      1  0.4752380000000  0.5120040000000  0.4688070000000 1.0
C      1  0.5195390000000  0.5170630000000  0.5206690000000 1.0
C      1  0.5179400000000  0.4741950000000  0.4972180000000 1.0
C      1  0.5228650000000  0.5139710000000  0.4730070000000 1.0
C      1  0.4453450000000  0.4599510000000  0.4531110000000 1.0
C      1  0.4474640000000  0.4750300000000  0.5552080000000 1.0
C      1  0.4536660000000  0.5569390000000  0.4909290000000 1.0
C      1  0.5506610000000  0.4613150000000  0.4549840000000 1.0
C      1  0.5565490000000  0.4827670000000  0.5563370000000 1.0
C      1  0.5515110000000  0.5605090000000  0.4882220000000 1.0
C      1  0.4481720000000  0.5391760000000  0.4556030000000 1.0
C      1  0.4469910000000  0.5149830000000  0.5558450000000 1.0
C      1  0.4483460000000  0.4392090000000  0.4870730000000 1.0
C      1  0.5538130000000  0.5407060000000  0.4537290000000 1.0
C      1  0.5565780000000  0.5256800000000  0.5561860000000 1.0
C      1  0.5455370000000  0.4459690000000  0.4912560000000 1.0
C      1  0.4991690000000  0.4102590000000  0.4515160000000 1.0
C      1  0.4994560000000  0.6120470000000  0.4566260000000 1.0
C      1  0.4722580000000  0.4751320000000  0.6387680000000 1.0
END
