TITL C-2782240-8521-590 0.00725381804014544 125000 -726.817630619018 0 0 130 (C1) n - 1
REM
REM in /home/nfs/bkarasulu/CARBON/AIRSS/Generating-Clusters/REBO/Higher-Symm/SD-CG/HFTN-CG
REM
REM
REM
REM
REM
REM ./C.cell (12c818d87b63d06a65506943cc24bca4)
REM
REM compiler GCC version 9.2.1 20190827 (Red Hat 9.2.1-1)
REM options -cpp -mtune=generic -march=x86-64 -g -O0 -fpre-include=/usr/include/finclude/math-vector-fortran.h
REM seed 2000861771 -2044991921 1704069286 -1194793949 1684918828 783798103 1799982880 2120642383 1197846354 -1165363482 -639440966 286066071 282776779 -858060617 -1992234485 -1999655462 -1601448654 365058092 841507906 -924527080 -307909210 -1159857943 -1921788480 -1712889212 -1260250397 686531969 -1142825373 -897944867 -61881514 556076148 -980681091 1886682907 -1119496870
REM
CELL 1.54180   50.00000   50.00000   50.00000   90.00000   90.00000   90.00000
LATT -1
SFAC C  
C      1  0.4243510000000  0.4408330000000  0.5097100000000 1.0
C      1  0.4284890000000  0.5601720000000  0.4850980000000 1.0
C      1  0.5726800000000  0.4398900000000  0.5126990000000 1.0
C      1  0.5734880000000  0.5589800000000  0.4831900000000 1.0
C      1  0.4252730000000  0.5586200000000  0.5125160000000 1.0
C      1  0.4255960000000  0.4405340000000  0.4818640000000 1.0
C      1  0.5693500000000  0.5570480000000  0.5100870000000 1.0
C      1  0.5765180000000  0.4377450000000  0.4855430000000 1.0
C      1  0.5566100000000  0.4377770000000  0.4390730000000 1.0
C      1  0.5444150000000  0.5557340000000  0.5555640000000 1.0
C      1  0.4557740000000  0.4481640000000  0.4374670000000 1.0
C      1  0.4443050000000  0.5614680000000  0.5597420000000 1.0
C      1  0.5525930000000  0.5538390000000  0.4381870000000 1.0
C      1  0.5477140000000  0.4447000000000  0.5585250000000 1.0
C      1  0.4562820000000  0.5553250000000  0.4402540000000 1.0
C      1  0.4457610000000  0.4381050000000  0.5574330000000 1.0
C      1  0.5161250000000  0.4685300000000  0.4447840000000 1.0
C      1  0.5140630000000  0.5297030000000  0.5553440000000 1.0
C      1  0.4863660000000  0.4718090000000  0.4476230000000 1.0
C      1  0.4840190000000  0.5346090000000  0.5609150000000 1.0
C      1  0.5176410000000  0.5360040000000  0.4456500000000 1.0
C      1  0.5175580000000  0.4708120000000  0.5559990000000 1.0
C      1  0.4873370000000  0.5315340000000  0.4485410000000 1.0
C      1  0.4861800000000  0.4668090000000  0.5599640000000 1.0
C      1  0.5602380000000  0.5125500000000  0.5165430000000 1.0
C      1  0.5565490000000  0.4723420000000  0.4846850000000 1.0
C      1  0.4475410000000  0.5222020000000  0.5205700000000 1.0
C      1  0.4409790000000  0.4771620000000  0.4862680000000 1.0
C      1  0.5612880000000  0.4806880000000  0.5122460000000 1.0
C      1  0.5558430000000  0.5231910000000  0.4854470000000 1.0
C      1  0.4465530000000  0.4769020000000  0.5179650000000 1.0
C      1  0.4414650000000  0.5225370000000  0.4885900000000 1.0
C      1  0.4340750000000  0.5475240000000  0.4587590000000 1.0
C      1  0.4254790000000  0.4502550000000  0.5380970000000 1.0
C      1  0.5730530000000  0.5452090000000  0.4573890000000 1.0
C      1  0.5694990000000  0.4524090000000  0.5388670000000 1.0
C      1  0.4323120000000  0.4538140000000  0.4555620000000 1.0
C      1  0.4252790000000  0.5482540000000  0.5402920000000 1.0
C      1  0.5756890000000  0.4497330000000  0.4584510000000 1.0
C      1  0.5656380000000  0.5467170000000  0.5365240000000 1.0
C      1  0.5228230000000  0.5682460000000  0.4461410000000 1.0
C      1  0.5139890000000  0.4384470000000  0.5564770000000 1.0
C      1  0.4889750000000  0.5635530000000  0.4461330000000 1.0
C      1  0.4796910000000  0.4363200000000  0.5555870000000 1.0
C      1  0.5226640000000  0.4373840000000  0.4420150000000 1.0
C      1  0.5110420000000  0.5623950000000  0.5515370000000 1.0
C      1  0.4882990000000  0.4399240000000  0.4442370000000 1.0
C      1  0.4770430000000  0.5644530000000  0.5567310000000 1.0
C      1  0.4664470000000  0.5187540000000  0.4277180000000 1.0
C      1  0.4715430000000  0.4865570000000  0.5808920000000 1.0
C      1  0.5310560000000  0.5202280000000  0.4212300000000 1.0
C      1  0.5376960000000  0.4868020000000  0.5755480000000 1.0
C      1  0.4681960000000  0.4860220000000  0.4256170000000 1.0
C      1  0.4692090000000  0.5196020000000  0.5849720000000 1.0
C      1  0.5324890000000  0.4874810000000  0.4244430000000 1.0
C      1  0.5335080000000  0.5196650000000  0.5788350000000 1.0
C      1  0.4800540000000  0.5697560000000  0.4755170000000 1.0
C      1  0.4814190000000  0.4219640000000  0.5267600000000 1.0
C      1  0.5118670000000  0.5722290000000  0.4843690000000 1.0
C      1  0.5093890000000  0.4206570000000  0.5134220000000 1.0
C      1  0.4802310000000  0.4294720000000  0.4722200000000 1.0
C      1  0.4825970000000  0.5775540000000  0.5278930000000 1.0
C      1  0.5093610000000  0.4268740000000  0.4835810000000 1.0
C      1  0.5105530000000  0.5791550000000  0.5153160000000 1.0
C      1  0.4609630000000  0.4859090000000  0.4600400000000 1.0
C      1  0.4581580000000  0.5150670000000  0.5525430000000 1.0
C      1  0.5412510000000  0.4849690000000  0.4572980000000 1.0
C      1  0.5420840000000  0.5159360000000  0.5455840000000 1.0
C      1  0.4615390000000  0.5173370000000  0.4615480000000 1.0
C      1  0.4581230000000  0.4832180000000  0.5496040000000 1.0
C      1  0.5428170000000  0.5168920000000  0.4538890000000 1.0
C      1  0.5452360000000  0.4838540000000  0.5423810000000 1.0
C      1  0.4637790000000  0.5957810000000  0.4744060000000 1.0
C      1  0.4656000000000  0.3958300000000  0.5261530000000 1.0
C      1  0.5273240000000  0.5935330000000  0.4651260000000 1.0
C      1  0.5238500000000  0.3936310000000  0.5190110000000 1.0
C      1  0.4652110000000  0.4027860000000  0.4695170000000 1.0
C      1  0.4675280000000  0.6043270000000  0.5275570000000 1.0
C      1  0.5327650000000  0.4104510000000  0.4667080000000 1.0
C      1  0.5266160000000  0.6047500000000  0.5216840000000 1.0
C      1  0.4794850000000  0.4778940000000  0.4945200000000 1.0
C      1  0.4865580000000  0.5181020000000  0.5252410000000 1.0
C      1  0.5170330000000  0.4701340000000  0.4849620000000 1.0
C      1  0.5230980000000  0.5243530000000  0.5114390000000 1.0
C      1  0.4797660000000  0.5177780000000  0.4968770000000 1.0
C      1  0.4859020000000  0.4784060000000  0.5222330000000 1.0
C      1  0.5164610000000  0.5210120000000  0.4827140000000 1.0
C      1  0.5232080000000  0.4694780000000  0.5128060000000 1.0
C      1  0.4813790000000  0.5137840000000  0.4000990000000 1.0
C      1  0.4918810000000  0.4936890000000  0.6048220000000 1.0
C      1  0.5109760000000  0.5239600000000  0.3957540000000 1.0
C      1  0.5227280000000  0.4904670000000  0.6035010000000 1.0
C      1  0.4846110000000  0.4817420000000  0.3976560000000 1.0
C      1  0.4874780000000  0.5250990000000  0.6115540000000 1.0
C      1  0.5144390000000  0.4919800000000  0.3984690000000 1.0
C      1  0.5185730000000  0.5228770000000  0.6080340000000 1.0
C      1  0.4202020000000  0.4840370000000  0.5384100000000 1.0
C      1  0.4220520000000  0.5157050000000  0.4613130000000 1.0
C      1  0.5836740000000  0.4835240000000  0.5384570000000 1.0
C      1  0.5805370000000  0.5126000000000  0.4638530000000 1.0
C      1  0.4207150000000  0.5143710000000  0.5394460000000 1.0
C      1  0.4214750000000  0.4859130000000  0.4597460000000 1.0
C      1  0.5815710000000  0.5172820000000  0.5421700000000 1.0
C      1  0.5804640000000  0.4831590000000  0.4628510000000 1.0
C      1  0.4351360000000  0.4271350000000  0.5808780000000 1.0
C      1  0.4501140000000  0.5542140000000  0.4129390000000 1.0
C      1  0.5565060000000  0.4437200000000  0.5852550000000 1.0
C      1  0.5568750000000  0.5490310000000  0.4110950000000 1.0
C      1  0.4334090000000  0.5716460000000  0.5833040000000 1.0
C      1  0.4508970000000  0.4516500000000  0.4100910000000 1.0
C      1  0.5524410000000  0.5573630000000  0.5823930000000 1.0
C      1  0.5668750000000  0.4260000000000  0.4160140000000 1.0
C      1  0.4540520000000  0.3817340000000  0.4820590000000 1.0
C      1  0.4544890000000  0.6222790000000  0.5121790000000 1.0
C      1  0.5440530000000  0.3877800000000  0.4761760000000 1.0
C      1  0.5381320000000  0.6211020000000  0.5030480000000 1.0
C      1  0.4525610000000  0.6177490000000  0.4852100000000 1.0
C      1  0.4540550000000  0.3782950000000  0.5091970000000 1.0
C      1  0.5377790000000  0.6155350000000  0.4761220000000 1.0
C      1  0.5396150000000  0.3792300000000  0.5019860000000 1.0
C      1  0.4701200000000  0.5477880000000  0.5212850000000 1.0
C      1  0.4637320000000  0.4513280000000  0.4863090000000 1.0
C      1  0.5234510000000  0.5500420000000  0.5223200000000 1.0
C      1  0.5353920000000  0.4476000000000  0.4727890000000 1.0
C      1  0.4673480000000  0.4498260000000  0.5200960000000 1.0
C      1  0.4658980000000  0.5465360000000  0.4884040000000 1.0
C      1  0.5240320000000  0.4448020000000  0.5263100000000 1.0
C      1  0.5323700000000  0.5477740000000  0.4805410000000 1.0
C      1  0.5114550000000  0.4978110000000  0.5275370000000 1.0
C      1  0.4981660000000  0.4966820000000  0.4772650000000 1.0
END
