TITL C-2782228-2999-1204 -0.000940029500062777 125000 -1102.87982011915 0 0 190 (C1) n - 1
REM
REM in /home/nfs/bkarasulu/CARBON/AIRSS/Generating-Clusters/REBO/Higher-Symm/SD-CG/HFTN-CG
REM
REM
REM
REM
REM
REM ./C.cell (12c818d87b63d06a65506943cc24bca4)
REM
REM compiler GCC version 9.2.1 20190827 (Red Hat 9.2.1-1)
REM options -cpp -mtune=generic -march=x86-64 -g -O0 -fpre-include=/usr/include/finclude/math-vector-fortran.h
REM seed 1474328271 -50566710 1337071609 750007787 -478575934 1739293546 -1350287555 -941618274 1819779250 -667764008 -772639715 1628377144 -1138940265 -971630423 -509825535 832880048 -454633138 -637514595 -1899970470 -1348418557 -364651297 -37326835 1420802922 -112875204 1822129603 -2047257874 -1641933919 1342560755 -1812056321 -447942008 -2103097575 -554276881 -1870504446
REM
CELL 1.54180   50.00000   50.00000   50.00000   90.00000   90.00000   90.00000
LATT -1
SFAC C  
C      1  0.5111720000000  0.4878940000000  0.5435190000000 1.0
C      1  0.4886240000000  0.4857880000000  0.4569910000000 1.0
C      1  0.5119290000000  0.5193390000000  0.4588230000000 1.0
C      1  0.4856230000000  0.5184160000000  0.5434550000000 1.0
C      1  0.4681170000000  0.4689130000000  0.4760330000000 1.0
C      1  0.5306210000000  0.4742250000000  0.5207740000000 1.0
C      1  0.4614410000000  0.5372540000000  0.5337400000000 1.0
C      1  0.5393500000000  0.5369510000000  0.4641030000000 1.0
C      1  0.4997070000000  0.4953400000000  0.6009420000000 1.0
C      1  0.4985290000000  0.4965880000000  0.3983510000000 1.0
C      1  0.4867430000000  0.5252630000000  0.3921350000000 1.0
C      1  0.5152810000000  0.5230560000000  0.6057400000000 1.0
C      1  0.6086930000000  0.4924180000000  0.5573440000000 1.0
C      1  0.3943110000000  0.4995950000000  0.4434180000000 1.0
C      1  0.6148340000000  0.4950630000000  0.4493110000000 1.0
C      1  0.3840770000000  0.4960540000000  0.5509350000000 1.0
C      1  0.5025240000000  0.4216870000000  0.4826370000000 1.0
C      1  0.5042970000000  0.4240400000000  0.5165200000000 1.0
C      1  0.5020020000000  0.5815910000000  0.5189910000000 1.0
C      1  0.5053230000000  0.5816740000000  0.4850230000000 1.0
C      1  0.4141920000000  0.4432830000000  0.4412850000000 1.0
C      1  0.5875100000000  0.4422090000000  0.5610280000000 1.0
C      1  0.4212740000000  0.5537560000000  0.5629080000000 1.0
C      1  0.5802770000000  0.5563840000000  0.4406340000000 1.0
C      1  0.4392350000000  0.5789080000000  0.5607790000000 1.0
C      1  0.5623690000000  0.5798370000000  0.4454540000000 1.0
C      1  0.4427570000000  0.4331800000000  0.4505000000000 1.0
C      1  0.5595780000000  0.4423640000000  0.5445970000000 1.0
C      1  0.4147310000000  0.5415860000000  0.5120890000000 1.0
C      1  0.5841930000000  0.5392050000000  0.4906630000000 1.0
C      1  0.4060740000000  0.4443020000000  0.4901230000000 1.0
C      1  0.5859060000000  0.4438930000000  0.5077540000000 1.0
C      1  0.4131660000000  0.5225520000000  0.4339230000000 1.0
C      1  0.5946500000000  0.5174370000000  0.5664140000000 1.0
C      1  0.3964270000000  0.4702870000000  0.5633720000000 1.0
C      1  0.6020530000000  0.4697720000000  0.4354930000000 1.0
C      1  0.4646990000000  0.4351120000000  0.4305050000000 1.0
C      1  0.5384680000000  0.4410880000000  0.5675440000000 1.0
C      1  0.4639600000000  0.5552570000000  0.5602370000000 1.0
C      1  0.5384680000000  0.5591580000000  0.4401300000000 1.0
C      1  0.4396360000000  0.4787380000000  0.5174270000000 1.0
C      1  0.5638980000000  0.4768920000000  0.4747000000000 1.0
C      1  0.4483840000000  0.5128180000000  0.4873170000000 1.0
C      1  0.5520850000000  0.5134270000000  0.5110710000000 1.0
C      1  0.5086940000000  0.4348940000000  0.5547120000000 1.0
C      1  0.4943650000000  0.4322210000000  0.4449860000000 1.0
C      1  0.5099890000000  0.5757340000000  0.4457910000000 1.0
C      1  0.4917170000000  0.5745380000000  0.5569900000000 1.0
C      1  0.5626320000000  0.4520280000000  0.4876890000000 1.0
C      1  0.4303180000000  0.4480210000000  0.5117160000000 1.0
C      1  0.5630530000000  0.5445150000000  0.5143620000000 1.0
C      1  0.4385700000000  0.5433230000000  0.4912930000000 1.0
C      1  0.5063080000000  0.5352150000000  0.5610750000000 1.0
C      1  0.4933820000000  0.5309860000000  0.4355880000000 1.0
C      1  0.5081630000000  0.4691980000000  0.4390670000000 1.0
C      1  0.4950020000000  0.4711950000000  0.5640200000000 1.0
C      1  0.4207250000000  0.5556980000000  0.4354590000000 1.0
C      1  0.5820080000000  0.5480230000000  0.5699820000000 1.0
C      1  0.4185120000000  0.4443070000000  0.5676040000000 1.0
C      1  0.5803540000000  0.4445160000000  0.4280490000000 1.0
C      1  0.3998350000000  0.4537210000000  0.4636710000000 1.0
C      1  0.5968660000000  0.4515720000000  0.5336570000000 1.0
C      1  0.4037540000000  0.5438300000000  0.5428150000000 1.0
C      1  0.5974800000000  0.5440680000000  0.4607300000000 1.0
C      1  0.5418400000000  0.4347800000000  0.4781930000000 1.0
C      1  0.4620230000000  0.4450700000000  0.5237320000000 1.0
C      1  0.5380910000000  0.5646130000000  0.5183720000000 1.0
C      1  0.4690390000000  0.5512920000000  0.4790180000000 1.0
C      1  0.4747370000000  0.5060090000000  0.4401920000000 1.0
C      1  0.5254860000000  0.5093060000000  0.5586970000000 1.0
C      1  0.4748390000000  0.4952980000000  0.5585070000000 1.0
C      1  0.5242280000000  0.4959520000000  0.4420620000000 1.0
C      1  0.4400060000000  0.5099230000000  0.4172780000000 1.0
C      1  0.5634680000000  0.5141270000000  0.5799090000000 1.0
C      1  0.4219920000000  0.4825360000000  0.5781290000000 1.0
C      1  0.5760870000000  0.4835030000000  0.4220330000000 1.0
C      1  0.4693060000000  0.5942720000000  0.5647830000000 1.0
C      1  0.5188280000000  0.5924110000000  0.4170110000000 1.0
C      1  0.4823030000000  0.4087260000000  0.4246170000000 1.0
C      1  0.5254480000000  0.4122170000000  0.5721400000000 1.0
C      1  0.4177620000000  0.5017160000000  0.5122800000000 1.0
C      1  0.5808640000000  0.4995690000000  0.4870270000000 1.0
C      1  0.4245010000000  0.4893080000000  0.4819140000000 1.0
C      1  0.5785930000000  0.4933130000000  0.5173090000000 1.0
C      1  0.5517580000000  0.4591180000000  0.4263460000000 1.0
C      1  0.4441800000000  0.4568630000000  0.5811890000000 1.0
C      1  0.5504760000000  0.5439060000000  0.5761510000000 1.0
C      1  0.4441980000000  0.5422960000000  0.4183420000000 1.0
C      1  0.5477530000000  0.4843470000000  0.4047430000000 1.0
C      1  0.4486630000000  0.4846360000000  0.5990630000000 1.0
C      1  0.5348690000000  0.5459550000000  0.6003880000000 1.0
C      1  0.4602530000000  0.5332910000000  0.3919250000000 1.0
C      1  0.5051770000000  0.5433670000000  0.4094060000000 1.0
C      1  0.4965340000000  0.5440260000000  0.5893280000000 1.0
C      1  0.5092190000000  0.4661000000000  0.5916610000000 1.0
C      1  0.4956320000000  0.4651240000000  0.4098750000000 1.0
C      1  0.5651970000000  0.5982610000000  0.4967630000000 1.0
C      1  0.4369850000000  0.5803400000000  0.5063250000000 1.0
C      1  0.5644590000000  0.4017760000000  0.5047170000000 1.0
C      1  0.4288720000000  0.4078030000000  0.5018450000000 1.0
C      1  0.5713460000000  0.4221550000000  0.4503230000000 1.0
C      1  0.4294780000000  0.4289450000000  0.5399730000000 1.0
C      1  0.5700190000000  0.5627630000000  0.5423210000000 1.0
C      1  0.4340730000000  0.5644510000000  0.4648760000000 1.0
C      1  0.4624440000000  0.5785910000000  0.4981510000000 1.0
C      1  0.5394790000000  0.5898810000000  0.5039550000000 1.0
C      1  0.4569710000000  0.4134310000000  0.5121640000000 1.0
C      1  0.5402190000000  0.4106060000000  0.4946210000000 1.0
C      1  0.5261170000000  0.5056160000000  0.4114730000000 1.0
C      1  0.4717260000000  0.5023580000000  0.5895030000000 1.0
C      1  0.5341890000000  0.4975150000000  0.5882710000000 1.0
C      1  0.4673800000000  0.4931100000000  0.4115530000000 1.0
C      1  0.5220960000000  0.4254950000000  0.4263790000000 1.0
C      1  0.4793620000000  0.4282110000000  0.5671380000000 1.0
C      1  0.5210240000000  0.5844010000000  0.5704760000000 1.0
C      1  0.4776470000000  0.5741390000000  0.4352720000000 1.0
C      1  0.5317320000000  0.3963340000000  0.5309250000000 1.0
C      1  0.4571170000000  0.3918180000000  0.4785070000000 1.0
C      1  0.5381740000000  0.6173860000000  0.4743870000000 1.0
C      1  0.4555560000000  0.6117990000000  0.5226130000000 1.0
C      1  0.5142770000000  0.6117240000000  0.4962870000000 1.0
C      1  0.4821160000000  0.6053040000000  0.5065860000000 1.0
C      1  0.5142610000000  0.3908770000000  0.5045900000000 1.0
C      1  0.4819880000000  0.3983680000000  0.4964930000000 1.0
C      1  0.3972490000000  0.5142440000000  0.5352850000000 1.0
C      1  0.6029940000000  0.5134080000000  0.4661420000000 1.0
C      1  0.4000300000000  0.4824210000000  0.4635070000000 1.0
C      1  0.6005390000000  0.4798540000000  0.5346260000000 1.0
C      1  0.5550570000000  0.6034240000000  0.4584200000000 1.0
C      1  0.4397970000000  0.6027720000000  0.5392940000000 1.0
C      1  0.5468900000000  0.4141250000000  0.5384530000000 1.0
C      1  0.4431790000000  0.4065340000000  0.4645460000000 1.0
C      1  0.5338480000000  0.5465270000000  0.5469230000000 1.0
C      1  0.4642750000000  0.5446120000000  0.4458600000000 1.0
C      1  0.5307450000000  0.4476440000000  0.4502960000000 1.0
C      1  0.4658790000000  0.4564250000000  0.5555750000000 1.0
C      1  0.4321970000000  0.4624960000000  0.4255620000000 1.0
C      1  0.5712920000000  0.4649610000000  0.5752510000000 1.0
C      1  0.4351440000000  0.5326060000000  0.5759750000000 1.0
C      1  0.5673270000000  0.5364280000000  0.4245300000000 1.0
C      1  0.5154660000000  0.5565290000000  0.4725900000000 1.0
C      1  0.4901990000000  0.5550090000000  0.5290660000000 1.0
C      1  0.5069580000000  0.4518230000000  0.5273500000000 1.0
C      1  0.4955420000000  0.4496470000000  0.4718910000000 1.0
C      1  0.5951100000000  0.4456110000000  0.4584740000000 1.0
C      1  0.4009400000000  0.4482740000000  0.5387750000000 1.0
C      1  0.5940090000000  0.5382910000000  0.5395650000000 1.0
C      1  0.4101870000000  0.5398160000000  0.4632290000000 1.0
C      1  0.4915610000000  0.4804350000000  0.5166800000000 1.0
C      1  0.5052660000000  0.4793470000000  0.4860190000000 1.0
C      1  0.4949800000000  0.5346060000000  0.4841670000000 1.0
C      1  0.5002500000000  0.5259650000000  0.5136800000000 1.0
C      1  0.4624060000000  0.4607100000000  0.4127130000000 1.0
C      1  0.5410790000000  0.4652140000000  0.5881520000000 1.0
C      1  0.4655690000000  0.5342970000000  0.5869930000000 1.0
C      1  0.5367700000000  0.5377230000000  0.4136850000000 1.0
C      1  0.3916390000000  0.4579000000000  0.5123070000000 1.0
C      1  0.6023780000000  0.4555750000000  0.4854960000000 1.0
C      1  0.3985390000000  0.5296160000000  0.4883790000000 1.0
C      1  0.6019180000000  0.5267790000000  0.5131240000000 1.0
C      1  0.5580950000000  0.4697680000000  0.5308530000000 1.0
C      1  0.4400260000000  0.4639980000000  0.4646190000000 1.0
C      1  0.5644950000000  0.5232270000000  0.4687120000000 1.0
C      1  0.4359120000000  0.5232720000000  0.5312020000000 1.0
C      1  0.6155270000000  0.5040530000000  0.5063440000000 1.0
C      1  0.3829820000000  0.5079330000000  0.4936820000000 1.0
C      1  0.6151500000000  0.4799200000000  0.4931850000000 1.0
C      1  0.3811010000000  0.4832610000000  0.5053180000000 1.0
C      1  0.4481810000000  0.4838540000000  0.5458870000000 1.0
C      1  0.5513300000000  0.4892950000000  0.4525280000000 1.0
C      1  0.4489660000000  0.5153100000000  0.4558360000000 1.0
C      1  0.5516870000000  0.5182040000000  0.5422210000000 1.0
C      1  0.4817600000000  0.5960540000000  0.4682240000000 1.0
C      1  0.5211050000000  0.5941280000000  0.5388150000000 1.0
C      1  0.4887230000000  0.4064110000000  0.5350690000000 1.0
C      1  0.5200160000000  0.4060340000000  0.4609590000000 1.0
C      1  0.5454800000000  0.4107960000000  0.4464100000000 1.0
C      1  0.4586850000000  0.4126890000000  0.5462280000000 1.0
C      1  0.5494340000000  0.5829800000000  0.5516480000000 1.0
C      1  0.4566270000000  0.5833950000000  0.4588180000000 1.0
C      1  0.5723560000000  0.5099900000000  0.4387490000000 1.0
C      1  0.4303030000000  0.5069790000000  0.5600350000000 1.0
C      1  0.5667310000000  0.4911150000000  0.5554420000000 1.0
C      1  0.4335880000000  0.4894850000000  0.4429690000000 1.0
C      1  0.4945990000000  0.4392320000000  0.5918620000000 1.0
C      1  0.5103570000000  0.4411430000000  0.4013440000000 1.0
C      1  0.4966590000000  0.5728840000000  0.4086440000000 1.0
C      1  0.5045290000000  0.5712400000000  0.5945800000000 1.0
C      1  0.5221820000000  0.5027590000000  0.5042180000000 1.0
C      1  0.4648300000000  0.4862750000000  0.5009270000000 1.0
END
