TITL C-2782228-2999-64 0.00187054944068375 125000 -780.10505532293 0 0 131 (C1) n - 1
REM
REM in /home/nfs/bkarasulu/CARBON/AIRSS/Generating-Clusters/REBO/Higher-Symm/SD-CG/HFTN-CG
REM
REM
REM
REM
REM
REM ./C.cell (12c818d87b63d06a65506943cc24bca4)
REM
REM compiler GCC version 9.2.1 20190827 (Red Hat 9.2.1-1)
REM options -cpp -mtune=generic -march=x86-64 -g -O0 -fpre-include=/usr/include/finclude/math-vector-fortran.h
REM seed -600059714 1885275615 1293429655 1571746307 -1696084129 -598024782 358317032 -489109339 708899218 -243218452 -1365369186 1581564584 1884070489 -233422902 -1601685182 -877704062 68159828 817219378 920222615 1068382834 2139122063 24466534 1242619860 -1472734476 -725288605 -1511268486 -607533819 1838721652 -1605725695 1114761111 -33888322 463773460 -566156962
REM
CELL 1.54180   50.00000   50.00000   50.00000   90.00000   90.00000   90.00000
LATT -1
SFAC C  
C      1  0.4600180000000  0.5981480000000  0.4924180000000 1.0
C      1  0.4673990000000  0.5346650000000  0.5857270000000 1.0
C      1  0.4608610000000  0.4253970000000  0.5611030000000 1.0
C      1  0.4636120000000  0.4180020000000  0.4491560000000 1.0
C      1  0.4672190000000  0.5233170000000  0.4105310000000 1.0
C      1  0.5337130000000  0.5925440000000  0.4932020000000 1.0
C      1  0.5398840000000  0.5369880000000  0.5885680000000 1.0
C      1  0.5350220000000  0.4288260000000  0.5642730000000 1.0
C      1  0.5373660000000  0.4217570000000  0.4521020000000 1.0
C      1  0.5394280000000  0.5222620000000  0.4075200000000 1.0
C      1  0.4613920000000  0.5534550000000  0.5072790000000 1.0
C      1  0.4656990000000  0.5063590000000  0.5462250000000 1.0
C      1  0.4628480000000  0.4511590000000  0.5239070000000 1.0
C      1  0.4617410000000  0.4664240000000  0.4643700000000 1.0
C      1  0.4626140000000  0.5240400000000  0.4556970000000 1.0
C      1  0.5366070000000  0.5486620000000  0.5075370000000 1.0
C      1  0.5356890000000  0.5070210000000  0.5481580000000 1.0
C      1  0.5336290000000  0.4565640000000  0.5174190000000 1.0
C      1  0.5356300000000  0.4636890000000  0.4637820000000 1.0
C      1  0.5372680000000  0.5226670000000  0.4535830000000 1.0
C      1  0.4234640000000  0.5025070000000  0.4349030000000 1.0
C      1  0.4208630000000  0.5636840000000  0.4805360000000 1.0
C      1  0.4241710000000  0.5372460000000  0.5536640000000 1.0
C      1  0.4222270000000  0.4607400000000  0.5516770000000 1.0
C      1  0.4228150000000  0.4379580000000  0.4784470000000 1.0
C      1  0.5792790000000  0.4999030000000  0.4346650000000 1.0
C      1  0.5763840000000  0.5617280000000  0.4803790000000 1.0
C      1  0.5783710000000  0.5385500000000  0.5522030000000 1.0
C      1  0.5757320000000  0.4620880000000  0.5528260000000 1.0
C      1  0.5786950000000  0.4383640000000  0.4799700000000 1.0
C      1  0.5293400000000  0.5466620000000  0.4162130000000 1.0
C      1  0.5253020000000  0.5928840000000  0.5198630000000 1.0
C      1  0.5300670000000  0.5122530000000  0.5964360000000 1.0
C      1  0.5262710000000  0.4111120000000  0.5448180000000 1.0
C      1  0.5275970000000  0.4358950000000  0.4301660000000 1.0
C      1  0.4753920000000  0.5490510000000  0.4175670000000 1.0
C      1  0.4704750000000  0.5961890000000  0.5185310000000 1.0
C      1  0.4759620000000  0.5090530000000  0.5929680000000 1.0
C      1  0.4722780000000  0.4124810000000  0.5386100000000 1.0
C      1  0.4724470000000  0.4338620000000  0.4281200000000 1.0
C      1  0.5158890000000  0.4612130000000  0.4105150000000 1.0
C      1  0.5182220000000  0.5724510000000  0.4354470000000 1.0
C      1  0.5141590000000  0.5830060000000  0.5505760000000 1.0
C      1  0.5196960000000  0.4806070000000  0.5926860000000 1.0
C      1  0.5190640000000  0.4053720000000  0.5120240000000 1.0
C      1  0.4835070000000  0.4617620000000  0.4126160000000 1.0
C      1  0.4859470000000  0.5755710000000  0.4363030000000 1.0
C      1  0.4818140000000  0.5836860000000  0.5481450000000 1.0
C      1  0.4873540000000  0.4769110000000  0.5925270000000 1.0
C      1  0.4868800000000  0.4052450000000  0.5085890000000 1.0
C      1  0.5135270000000  0.5072680000000  0.5270670000000 1.0
C      1  0.5116720000000  0.4631050000000  0.4980040000000 1.0
C      1  0.5095880000000  0.4817530000000  0.4690450000000 1.0
C      1  0.5155780000000  0.5127060000000  0.4732500000000 1.0
C      1  0.5079540000000  0.5378650000000  0.5189770000000 1.0
C      1  0.4905550000000  0.4896250000000  0.5349560000000 1.0
C      1  0.4846310000000  0.4704750000000  0.5130730000000 1.0
C      1  0.4798530000000  0.4824830000000  0.4840840000000 1.0
C      1  0.4903480000000  0.5312150000000  0.4707220000000 1.0
C      1  0.4825120000000  0.5314400000000  0.5022500000000 1.0
C      1  0.5597020000000  0.5818600000000  0.4876660000000 1.0
C      1  0.5650790000000  0.5381500000000  0.5756760000000 1.0
C      1  0.5605000000000  0.4412450000000  0.5611140000000 1.0
C      1  0.5638910000000  0.4263970000000  0.4608450000000 1.0
C      1  0.5650640000000  0.5142400000000  0.4167290000000 1.0
C      1  0.4347330000000  0.5858830000000  0.4874810000000 1.0
C      1  0.4409680000000  0.5369160000000  0.5749600000000 1.0
C      1  0.4355000000000  0.4379870000000  0.5579240000000 1.0
C      1  0.4380350000000  0.4242010000000  0.4605980000000 1.0
C      1  0.4409870000000  0.5151080000000  0.4184600000000 1.0
C      1  0.5271050000000  0.5572150000000  0.5376960000000 1.0
C      1  0.5319390000000  0.4820020000000  0.5632020000000 1.0
C      1  0.5416630000000  0.4290980000000  0.5128980000000 1.0
C      1  0.5298690000000  0.4753320000000  0.4353750000000 1.0
C      1  0.5290860000000  0.5514310000000  0.4566550000000 1.0
C      1  0.4688140000000  0.5574950000000  0.5359910000000 1.0
C      1  0.4760870000000  0.4804650000000  0.5634270000000 1.0
C      1  0.4674900000000  0.4301240000000  0.5030870000000 1.0
C      1  0.4704990000000  0.4760520000000  0.4380610000000 1.0
C      1  0.4725640000000  0.5556220000000  0.4568020000000 1.0
C      1  0.5835580000000  0.4580560000000  0.4991590000000 1.0
C      1  0.5843990000000  0.4874230000000  0.4591770000000 1.0
C      1  0.5839140000000  0.5349340000000  0.4759770000000 1.0
C      1  0.5836450000000  0.5335550000000  0.5252420000000 1.0
C      1  0.5827410000000  0.4855970000000  0.5391410000000 1.0
C      1  0.4160360000000  0.4576560000000  0.4974510000000 1.0
C      1  0.4156210000000  0.4903550000000  0.4590360000000 1.0
C      1  0.4152670000000  0.5364510000000  0.4768020000000 1.0
C      1  0.4165190000000  0.5330540000000  0.5269390000000 1.0
C      1  0.4166290000000  0.4854580000000  0.5396760000000 1.0
C      1  0.5166050000000  0.5575640000000  0.4852710000000 1.0
C      1  0.5153180000000  0.5326080000000  0.5576010000000 1.0
C      1  0.5194410000000  0.4595690000000  0.5444490000000 1.0
C      1  0.5106110000000  0.4422400000000  0.4732380000000 1.0
C      1  0.5164820000000  0.5043310000000  0.4346050000000 1.0
C      1  0.4841180000000  0.5673510000000  0.4859890000000 1.0
C      1  0.4823830000000  0.5316640000000  0.5490600000000 1.0
C      1  0.4868060000000  0.4523650000000  0.5481850000000 1.0
C      1  0.4776910000000  0.4434250000000  0.4762170000000 1.0
C      1  0.4837480000000  0.5047110000000  0.4415400000000 1.0
C      1  0.5132360000000  0.5864680000000  0.4665980000000 1.0
C      1  0.5197540000000  0.5607730000000  0.5765980000000 1.0
C      1  0.5133790000000  0.4503020000000  0.5777690000000 1.0
C      1  0.5185330000000  0.4110600000000  0.4783380000000 1.0
C      1  0.5202310000000  0.4947130000000  0.4020860000000 1.0
C      1  0.4802150000000  0.5938140000000  0.4652560000000 1.0
C      1  0.4874360000000  0.5579700000000  0.5708650000000 1.0
C      1  0.4807070000000  0.4449320000000  0.5808230000000 1.0
C      1  0.4853210000000  0.4099290000000  0.4740990000000 1.0
C      1  0.4875130000000  0.4960070000000  0.4083870000000 1.0
C      1  0.3930490000000  0.5199140000000  0.5162610000000 1.0
C      1  0.3932780000000  0.4913480000000  0.5236390000000 1.0
C      1  0.3929840000000  0.4752780000000  0.4987340000000 1.0
C      1  0.3923600000000  0.4941850000000  0.4758410000000 1.0
C      1  0.3923710000000  0.5217310000000  0.4867360000000 1.0
C      1  0.6069070000000  0.5198340000000  0.5152470000000 1.0
C      1  0.6066230000000  0.4915510000000  0.5238650000000 1.0
C      1  0.6069670000000  0.4748830000000  0.4996450000000 1.0
C      1  0.6072380000000  0.4926520000000  0.4760830000000 1.0
C      1  0.6071630000000  0.5206280000000  0.4857190000000 1.0
C      1  0.4411200000000  0.5287040000000  0.5062080000000 1.0
C      1  0.4422830000000  0.5025630000000  0.5279600000000 1.0
C      1  0.4416180000000  0.4731330000000  0.5111390000000 1.0
C      1  0.4402210000000  0.4832910000000  0.4787720000000 1.0
C      1  0.4411020000000  0.5162990000000  0.4755020000000 1.0
C      1  0.5581550000000  0.5278630000000  0.5056400000000 1.0
C      1  0.5581690000000  0.5028650000000  0.5273520000000 1.0
C      1  0.5574420000000  0.4745740000000  0.5102000000000 1.0
C      1  0.5583860000000  0.4803010000000  0.4775690000000 1.0
C      1  0.5590210000000  0.5141570000000  0.4745130000000 1.0
C      1  0.4986380000000  0.5048290000000  0.4990990000000 1.0
END
