TITL C-2782233-7966-133 -0.00398535166444842 125000 -660.087711484251 0 0 118 (C1) n - 1
REM
REM in /home/nfs/bkarasulu/CARBON/AIRSS/Generating-Clusters/REBO/Higher-Symm/SD-CG/HFTN-CG
REM
REM
REM
REM
REM
REM ./C.cell (12c818d87b63d06a65506943cc24bca4)
REM
REM compiler GCC version 9.2.1 20190827 (Red Hat 9.2.1-1)
REM options -cpp -mtune=generic -march=x86-64 -g -O0 -fpre-include=/usr/include/finclude/math-vector-fortran.h
REM seed 1437973031 1642644208 387387313 661454625 1014016029 67130933 1153556729 -915638152 -1449263868 -1798614448 -100734002 -1386801702 -394793309 -72542678 -922968880 1113147269 540558301 -1572438975 1982137946 835219018 1501425020 1273683396 -1410976240 -1923306400 -1028208918 808108952 564135932 -131980146 -554386977 599923300 517733533 -1438912093 2026751349
REM
CELL 1.54180   50.00000   50.00000   50.00000   90.00000   90.00000   90.00000
LATT -1
SFAC C  
C      1  0.4408050000000  0.5276510000000  0.5526170000000 1.0
C      1  0.5265890000000  0.5576550000000  0.5488730000000 1.0
C      1  0.5580130000000  0.4741440000000  0.5512250000000 1.0
C      1  0.4741300000000  0.4455090000000  0.5496820000000 1.0
C      1  0.4449650000000  0.5270070000000  0.4526720000000 1.0
C      1  0.5279340000000  0.5560600000000  0.4531460000000 1.0
C      1  0.5624360000000  0.4765900000000  0.4503920000000 1.0
C      1  0.4762500000000  0.4438750000000  0.4500390000000 1.0
C      1  0.5476020000000  0.5379260000000  0.5637970000000 1.0
C      1  0.5355300000000  0.4553590000000  0.5663500000000 1.0
C      1  0.4514910000000  0.4635550000000  0.5650880000000 1.0
C      1  0.4641120000000  0.5457430000000  0.5665970000000 1.0
C      1  0.5487160000000  0.5392820000000  0.4324920000000 1.0
C      1  0.5404330000000  0.4555100000000  0.4384110000000 1.0
C      1  0.4551510000000  0.4647980000000  0.4397450000000 1.0
C      1  0.4645070000000  0.5478390000000  0.4351480000000 1.0
C      1  0.5856110000000  0.4705040000000  0.5395550000000 1.0
C      1  0.4743030000000  0.4179200000000  0.5362500000000 1.0
C      1  0.4139630000000  0.5396820000000  0.5359290000000 1.0
C      1  0.5272500000000  0.5848660000000  0.5360970000000 1.0
C      1  0.5924040000000  0.4796350000000  0.4581540000000 1.0
C      1  0.4745680000000  0.4143870000000  0.4554670000000 1.0
C      1  0.4151130000000  0.5229780000000  0.4594960000000 1.0
C      1  0.5384230000000  0.5837650000000  0.4679000000000 1.0
C      1  0.4020410000000  0.4112080000000  0.4892140000000 1.0
C      1  0.4165310000000  0.5726120000000  0.4945730000000 1.0
C      1  0.5632250000000  0.5858370000000  0.4809040000000 1.0
C      1  0.5831590000000  0.4051470000000  0.4837680000000 1.0
C      1  0.4017650000000  0.4199890000000  0.5152290000000 1.0
C      1  0.4146290000000  0.5650750000000  0.5234720000000 1.0
C      1  0.5712100000000  0.5832220000000  0.5095680000000 1.0
C      1  0.5829420000000  0.4084310000000  0.5109570000000 1.0
C      1  0.5196060000000  0.5421370000000  0.4832510000000 1.0
C      1  0.5630170000000  0.4791390000000  0.4847990000000 1.0
C      1  0.4749970000000  0.4420560000000  0.4841760000000 1.0
C      1  0.4440660000000  0.5191840000000  0.4864530000000 1.0
C      1  0.5191620000000  0.5513350000000  0.5160860000000 1.0
C      1  0.5534480000000  0.4790790000000  0.5176780000000 1.0
C      1  0.4792930000000  0.4520810000000  0.5165320000000 1.0
C      1  0.4465670000000  0.5232320000000  0.5205370000000 1.0
C      1  0.5076940000000  0.5102600000000  0.4844050000000 1.0
C      1  0.5321970000000  0.4852600000000  0.4844390000000 1.0
C      1  0.4812970000000  0.4735280000000  0.4808760000000 1.0
C      1  0.4747770000000  0.5068550000000  0.4844960000000 1.0
C      1  0.5067150000000  0.5202840000000  0.5139390000000 1.0
C      1  0.5235070000000  0.4903000000000  0.5142670000000 1.0
C      1  0.4920720000000  0.4831660000000  0.5112970000000 1.0
C      1  0.4737380000000  0.5117810000000  0.5148580000000 1.0
C      1  0.5190720000000  0.4116700000000  0.4837940000000 1.0
C      1  0.4089260000000  0.4733730000000  0.4846400000000 1.0
C      1  0.4811640000000  0.5845030000000  0.4839740000000 1.0
C      1  0.5917480000000  0.5272140000000  0.4829410000000 1.0
C      1  0.5236270000000  0.4160810000000  0.5165840000000 1.0
C      1  0.4112210000000  0.4826670000000  0.5171800000000 1.0
C      1  0.4756700000000  0.5875570000000  0.5173710000000 1.0
C      1  0.5893660000000  0.5196030000000  0.5158970000000 1.0
C      1  0.4557390000000  0.4976340000000  0.4439050000000 1.0
C      1  0.4971770000000  0.5564880000000  0.4400530000000 1.0
C      1  0.5567800000000  0.5064950000000  0.4375080000000 1.0
C      1  0.5067800000000  0.4527650000000  0.4426980000000 1.0
C      1  0.4426630000000  0.4964960000000  0.5639780000000 1.0
C      1  0.4965840000000  0.5551780000000  0.5628760000000 1.0
C      1  0.5564800000000  0.5050250000000  0.5628710000000 1.0
C      1  0.5025660000000  0.4478540000000  0.5662890000000 1.0
C      1  0.5484140000000  0.5166120000000  0.5303200000000 1.0
C      1  0.5163380000000  0.4548820000000  0.5313530000000 1.0
C      1  0.4495690000000  0.4847930000000  0.5315490000000 1.0
C      1  0.4828000000000  0.5469500000000  0.5314660000000 1.0
C      1  0.5480810000000  0.5184720000000  0.4690270000000 1.0
C      1  0.5141960000000  0.4505830000000  0.4760690000000 1.0
C      1  0.4453150000000  0.4836860000000  0.4731340000000 1.0
C      1  0.4822930000000  0.5468830000000  0.4705930000000 1.0
C      1  0.4821800000000  0.4727850000000  0.5774940000000 1.0
C      1  0.4691690000000  0.5136070000000  0.5768140000000 1.0
C      1  0.5163100000000  0.5308140000000  0.5763130000000 1.0
C      1  0.5311860000000  0.4872460000000  0.5774790000000 1.0
C      1  0.4856700000000  0.4747480000000  0.4268180000000 1.0
C      1  0.4728940000000  0.5171170000000  0.4225960000000 1.0
C      1  0.5161010000000  0.5341070000000  0.4221340000000 1.0
C      1  0.5323230000000  0.4862760000000  0.4249990000000 1.0
C      1  0.4930010000000  0.4881060000000  0.4546920000000 1.0
C      1  0.4882740000000  0.5198340000000  0.4508790000000 1.0
C      1  0.5204430000000  0.5171430000000  0.4488460000000 1.0
C      1  0.5234160000000  0.4863250000000  0.4566330000000 1.0
C      1  0.4775150000000  0.4880950000000  0.5474730000000 1.0
C      1  0.4890510000000  0.5189370000000  0.5497200000000 1.0
C      1  0.5206160000000  0.5125440000000  0.5489680000000 1.0
C      1  0.5098700000000  0.4813310000000  0.5501680000000 1.0
C      1  0.5529130000000  0.4146140000000  0.4852920000000 1.0
C      1  0.4119940000000  0.4403930000000  0.4824550000000 1.0
C      1  0.4474560000000  0.5827110000000  0.4887310000000 1.0
C      1  0.5823660000000  0.5593570000000  0.4799370000000 1.0
C      1  0.5562680000000  0.4173740000000  0.5216320000000 1.0
C      1  0.4108590000000  0.4488400000000  0.5180350000000 1.0
C      1  0.4428240000000  0.5818760000000  0.5227440000000 1.0
C      1  0.5840680000000  0.5531390000000  0.5136640000000 1.0
C      1  0.5866960000000  0.4881110000000  0.5155160000000 1.0
C      1  0.4925390000000  0.4202150000000  0.5123590000000 1.0
C      1  0.4150390000000  0.5136940000000  0.5160110000000 1.0
C      1  0.5068610000000  0.5837960000000  0.5143660000000 1.0
C      1  0.5931960000000  0.4953840000000  0.4843960000000 1.0
C      1  0.4874180000000  0.4102070000000  0.4819520000000 1.0
C      1  0.4122740000000  0.5054260000000  0.4844200000000 1.0
C      1  0.5117610000000  0.5752400000000  0.4839600000000 1.0
C      1  0.5358390000000  0.4308890000000  0.4608590000000 1.0
C      1  0.4286510000000  0.4589310000000  0.4604060000000 1.0
C      1  0.4613200000000  0.5707050000000  0.4600730000000 1.0
C      1  0.5722230000000  0.5377110000000  0.4570860000000 1.0
C      1  0.5360580000000  0.4316860000000  0.5439510000000 1.0
C      1  0.4253260000000  0.4658530000000  0.5434750000000 1.0
C      1  0.4646070000000  0.5711960000000  0.5450750000000 1.0
C      1  0.5727490000000  0.5360610000000  0.5408230000000 1.0
C      1  0.5165220000000  0.4528470000000  0.5026830000000 1.0
C      1  0.4485680000000  0.4831250000000  0.5028980000000 1.0
C      1  0.4819750000000  0.5482260000000  0.5007290000000 1.0
C      1  0.5476110000000  0.5185670000000  0.4996910000000 1.0
C      1  0.5004740000000  0.5012010000000  0.5834820000000 1.0
C      1  0.5032960000000  0.5024490000000  0.4162970000000 1.0
END
