TITL C-2782229-3092-390 -0.0505523466293845 125000 -655.606976748446 0 0 117 (C1) n - 1
REM
REM in /home/nfs/bkarasulu/CARBON/AIRSS/Generating-Clusters/REBO/Higher-Symm/SD-CG/HFTN-CG
REM
REM
REM
REM
REM
REM ./C.cell (12c818d87b63d06a65506943cc24bca4)
REM
REM compiler GCC version 9.2.1 20190827 (Red Hat 9.2.1-1)
REM options -cpp -mtune=generic -march=x86-64 -g -O0 -fpre-include=/usr/include/finclude/math-vector-fortran.h
REM seed 450274485 524624397 613780236 -526039509 941690565 2100789342 -2079888417 379959088 -35164016 -744463141 900174846 877116857 611137795 1505399243 -54583140 -1356994112 -1399659294 1375748643 739981513 692879031 1120049382 631905284 -1839705605 -1375267699 915951599 582402695 1861289824 1536514161 1366311455 2099245821 342749402 1688507762 -1021735677
REM
CELL 1.54180   50.00000   50.00000   50.00000   90.00000   90.00000   90.00000
LATT -1
SFAC C  
C      1  0.4687000000000  0.5620580000000  0.4455650000000 1.0
C      1  0.5308110000000  0.5596520000000  0.5476350000000 1.0
C      1  0.5335170000000  0.5607650000000  0.4499400000000 1.0
C      1  0.4685610000000  0.5620130000000  0.5493840000000 1.0
C      1  0.4785730000000  0.4249340000000  0.5278140000000 1.0
C      1  0.5188790000000  0.4291400000000  0.4804090000000 1.0
C      1  0.5264000000000  0.4264810000000  0.5270890000000 1.0
C      1  0.4863710000000  0.4326580000000  0.4796810000000 1.0
C      1  0.4841630000000  0.5001860000000  0.5510190000000 1.0
C      1  0.5158690000000  0.5031210000000  0.4502300000000 1.0
C      1  0.5126460000000  0.5014610000000  0.5495340000000 1.0
C      1  0.4853270000000  0.5013050000000  0.4494800000000 1.0
C      1  0.5463120000000  0.5139780000000  0.4592940000000 1.0
C      1  0.4495580000000  0.5160580000000  0.5389220000000 1.0
C      1  0.4541100000000  0.5135780000000  0.4567620000000 1.0
C      1  0.5491770000000  0.5127720000000  0.5381750000000 1.0
C      1  0.5517570000000  0.4244240000000  0.5152760000000 1.0
C      1  0.4557570000000  0.4228900000000  0.4863150000000 1.0
C      1  0.4536580000000  0.4229430000000  0.5153350000000 1.0
C      1  0.5498830000000  0.4223560000000  0.4863560000000 1.0
C      1  0.4559860000000  0.4682040000000  0.5754760000000 1.0
C      1  0.5411650000000  0.4679490000000  0.4248000000000 1.0
C      1  0.5392350000000  0.4667300000000  0.5744370000000 1.0
C      1  0.4579510000000  0.4682000000000  0.4237720000000 1.0
C      1  0.5559470000000  0.5526310000000  0.4564770000000 1.0
C      1  0.4470290000000  0.5486130000000  0.5408440000000 1.0
C      1  0.4467410000000  0.5468920000000  0.4516560000000 1.0
C      1  0.5526960000000  0.5453190000000  0.5401510000000 1.0
C      1  0.5877980000000  0.4832840000000  0.4462880000000 1.0
C      1  0.4119780000000  0.4832560000000  0.5497630000000 1.0
C      1  0.4121880000000  0.4826320000000  0.4486020000000 1.0
C      1  0.5851430000000  0.4767390000000  0.5474060000000 1.0
C      1  0.4391030000000  0.4952180000000  0.4320530000000 1.0
C      1  0.5575640000000  0.4920970000000  0.5607390000000 1.0
C      1  0.5588150000000  0.4957420000000  0.4335450000000 1.0
C      1  0.4408910000000  0.4961430000000  0.5628940000000 1.0
C      1  0.4333530000000  0.4577040000000  0.4434650000000 1.0
C      1  0.5640410000000  0.4532070000000  0.5586290000000 1.0
C      1  0.5671670000000  0.4579220000000  0.4422900000000 1.0
C      1  0.4319430000000  0.4581670000000  0.5556190000000 1.0
C      1  0.5176450000000  0.4531000000000  0.4325950000000 1.0
C      1  0.4793990000000  0.4517680000000  0.5713160000000 1.0
C      1  0.4828750000000  0.4552610000000  0.4324660000000 1.0
C      1  0.5133480000000  0.4529940000000  0.5682150000000 1.0
C      1  0.4248580000000  0.5346250000000  0.4736420000000 1.0
C      1  0.5804320000000  0.5330060000000  0.5243370000000 1.0
C      1  0.5777710000000  0.5346060000000  0.4727130000000 1.0
C      1  0.4255660000000  0.5411070000000  0.5192660000000 1.0
C      1  0.5993090000000  0.4621570000000  0.5199910000000 1.0
C      1  0.4078110000000  0.4606580000000  0.4739480000000 1.0
C      1  0.4063970000000  0.4616920000000  0.5240160000000 1.0
C      1  0.5951940000000  0.4609500000000  0.4704340000000 1.0
C      1  0.4760130000000  0.5253360000000  0.5674270000000 1.0
C      1  0.5242600000000  0.5278650000000  0.4291850000000 1.0
C      1  0.5219050000000  0.5252250000000  0.5661900000000 1.0
C      1  0.4787360000000  0.5273050000000  0.4284920000000 1.0
C      1  0.4769090000000  0.5255060000000  0.5210570000000 1.0
C      1  0.5259450000000  0.5316950000000  0.4763400000000 1.0
C      1  0.5249150000000  0.5242600000000  0.5193120000000 1.0
C      1  0.4761950000000  0.5311670000000  0.4761800000000 1.0
C      1  0.4325480000000  0.4421370000000  0.5276160000000 1.0
C      1  0.5687330000000  0.4414740000000  0.4702020000000 1.0
C      1  0.5722730000000  0.4443970000000  0.5280360000000 1.0
C      1  0.4349100000000  0.4415650000000  0.4715010000000 1.0
C      1  0.5769940000000  0.4994070000000  0.5266240000000 1.0
C      1  0.4249130000000  0.5017070000000  0.4710420000000 1.0
C      1  0.4238870000000  0.5021430000000  0.5273540000000 1.0
C      1  0.5753790000000  0.5016990000000  0.4691660000000 1.0
C      1  0.4851290000000  0.4525660000000  0.5398710000000 1.0
C      1  0.5140620000000  0.4566050000000  0.4635890000000 1.0
C      1  0.5177660000000  0.4548390000000  0.5367100000000 1.0
C      1  0.4824420000000  0.4611700000000  0.4634650000000 1.0
C      1  0.5236510000000  0.4855400000000  0.4756180000000 1.0
C      1  0.4728660000000  0.4813470000000  0.5322500000000 1.0
C      1  0.4770110000000  0.4879160000000  0.4788510000000 1.0
C      1  0.5230320000000  0.4848750000000  0.5264370000000 1.0
C      1  0.5314610000000  0.4984360000000  0.4137440000000 1.0
C      1  0.4656600000000  0.4987440000000  0.5862050000000 1.0
C      1  0.4672460000000  0.4992580000000  0.4139350000000 1.0
C      1  0.5327860000000  0.4980340000000  0.5836270000000 1.0
C      1  0.5635880000000  0.4595160000000  0.4987510000000 1.0
C      1  0.4402580000000  0.4600020000000  0.4996790000000 1.0
C      1  0.3957790000000  0.4610970000000  0.4986800000000 1.0
C      1  0.6083630000000  0.4614860000000  0.4944690000000 1.0
C      1  0.4802700000000  0.5947060000000  0.5023020000000 1.0
C      1  0.5200210000000  0.5959620000000  0.5025420000000 1.0
C      1  0.4990560000000  0.4322710000000  0.4165510000000 1.0
C      1  0.4986250000000  0.4332280000000  0.5893400000000 1.0
C      1  0.4630530000000  0.5501030000000  0.5014900000000 1.0
C      1  0.5377750000000  0.5511310000000  0.5019340000000 1.0
C      1  0.5695130000000  0.5888320000000  0.5082160000000 1.0
C      1  0.4306470000000  0.5875350000000  0.5062430000000 1.0
C      1  0.5000130000000  0.5716740000000  0.5485930000000 1.0
C      1  0.5011180000000  0.5711890000000  0.4503830000000 1.0
C      1  0.4999750000000  0.5959940000000  0.5298550000000 1.0
C      1  0.5005190000000  0.5880550000000  0.4755150000000 1.0
C      1  0.5586100000000  0.5271230000000  0.4987630000000 1.0
C      1  0.4446390000000  0.5227470000000  0.4984410000000 1.0
C      1  0.5312490000000  0.4547860000000  0.4993810000000 1.0
C      1  0.4725260000000  0.4553420000000  0.5015480000000 1.0
C      1  0.4630880000000  0.4975460000000  0.5061580000000 1.0
C      1  0.5410910000000  0.4994930000000  0.5013740000000 1.0
C      1  0.4549910000000  0.5780970000000  0.5036390000000 1.0
C      1  0.5453490000000  0.5792110000000  0.5046260000000 1.0
C      1  0.4254040000000  0.4877960000000  0.4984750000000 1.0
C      1  0.5786630000000  0.4879620000000  0.4974610000000 1.0
C      1  0.5011650000000  0.5454100000000  0.4292050000000 1.0
C      1  0.4990580000000  0.5430930000000  0.5669860000000 1.0
C      1  0.4994260000000  0.5014950000000  0.5894060000000 1.0
C      1  0.4994680000000  0.5005380000000  0.4071990000000 1.0
C      1  0.4067920000000  0.5178560000000  0.5027040000000 1.0
C      1  0.5957950000000  0.5183040000000  0.4974040000000 1.0
C      1  0.5006360000000  0.5367270000000  0.4992110000000 1.0
C      1  0.5029000000000  0.4106320000000  0.5238070000000 1.0
C      1  0.5022360000000  0.4946180000000  0.5007990000000 1.0
C      1  0.5016840000000  0.4627520000000  0.5011010000000 1.0
C      1  0.5009840000000  0.5670560000000  0.5025580000000 1.0
END
