TITL C-2782233-7966-1058 -0.00338145952559252 125000 -1028.78763883772 0 0 178 (C1) n - 1
REM
REM in /home/nfs/bkarasulu/CARBON/AIRSS/Generating-Clusters/REBO/Higher-Symm/SD-CG/HFTN-CG
REM
REM
REM
REM
REM
REM ./C.cell (12c818d87b63d06a65506943cc24bca4)
REM
REM compiler GCC version 9.2.1 20190827 (Red Hat 9.2.1-1)
REM options -cpp -mtune=generic -march=x86-64 -g -O0 -fpre-include=/usr/include/finclude/math-vector-fortran.h
REM seed -819305951 527639927 -1976412714 -708299418 476453283 1358833403 -2097244662 2107336982 -529983341 710939373 -1023098622 -1685533920 1750388088 -295855378 1234243399 -636167486 1144304937 348488285 -1896545320 -599560872 -38649758 -1374519183 692425535 -2017573591 1357663794 -410828683 -1461208225 407990489 1596800464 -1248703527 648776398 -1818799615 225525408
REM
CELL 1.54180   50.00000   50.00000   50.00000   90.00000   90.00000   90.00000
LATT -1
SFAC C  
C      1  0.4629730000000  0.5173240000000  0.6033610000000 1.0
C      1  0.5181010000000  0.6055870000000  0.4563620000000 1.0
C      1  0.6035280000000  0.4558740000000  0.5195750000000 1.0
C      1  0.5384240000000  0.4771820000000  0.6040230000000 1.0
C      1  0.4599440000000  0.4777210000000  0.3926930000000 1.0
C      1  0.5455540000000  0.5172410000000  0.3970790000000 1.0
C      1  0.4792630000000  0.3994250000000  0.4584070000000 1.0
C      1  0.5176230000000  0.3921660000000  0.5341030000000 1.0
C      1  0.4830100000000  0.6104980000000  0.5402020000000 1.0
C      1  0.3987130000000  0.5380120000000  0.5193090000000 1.0
C      1  0.5969680000000  0.5417790000000  0.4831790000000 1.0
C      1  0.3943120000000  0.4608710000000  0.4816870000000 1.0
C      1  0.5572090000000  0.4571070000000  0.5226220000000 1.0
C      1  0.4581310000000  0.5203910000000  0.5511120000000 1.0
C      1  0.5234260000000  0.5558960000000  0.4567640000000 1.0
C      1  0.4456350000000  0.5383280000000  0.5248690000000 1.0
C      1  0.5432200000000  0.5371700000000  0.4773660000000 1.0
C      1  0.4394840000000  0.4615810000000  0.4736300000000 1.0
C      1  0.5429880000000  0.4796360000000  0.5439980000000 1.0
C      1  0.4469870000000  0.4812190000000  0.4465520000000 1.0
C      1  0.5441220000000  0.5234250000000  0.4462630000000 1.0
C      1  0.4845180000000  0.4429990000000  0.4559940000000 1.0
C      1  0.5104660000000  0.4400250000000  0.5468700000000 1.0
C      1  0.4806230000000  0.5651730000000  0.5473760000000 1.0
C      1  0.4607500000000  0.4586650000000  0.6031090000000 1.0
C      1  0.4538210000000  0.5933160000000  0.4632810000000 1.0
C      1  0.5942130000000  0.4630300000000  0.4532630000000 1.0
C      1  0.5416270000000  0.5418830000000  0.6085060000000 1.0
C      1  0.4659340000000  0.5386560000000  0.3905970000000 1.0
C      1  0.5351870000000  0.4517000000000  0.4129650000000 1.0
C      1  0.5474850000000  0.4020270000000  0.4583050000000 1.0
C      1  0.4479510000000  0.3946850000000  0.5343210000000 1.0
C      1  0.5498020000000  0.6025130000000  0.5313270000000 1.0
C      1  0.3956440000000  0.5376120000000  0.4592290000000 1.0
C      1  0.5972480000000  0.5378920000000  0.5380820000000 1.0
C      1  0.4093550000000  0.4623450000000  0.5483350000000 1.0
C      1  0.4168420000000  0.5467880000000  0.4729130000000 1.0
C      1  0.5480270000000  0.4711110000000  0.4290860000000 1.0
C      1  0.4646540000000  0.4086560000000  0.5513090000000 1.0
C      1  0.5764490000000  0.4494850000000  0.4694670000000 1.0
C      1  0.4256890000000  0.4514070000000  0.5292190000000 1.0
C      1  0.5706340000000  0.5458660000000  0.5287360000000 1.0
C      1  0.4500670000000  0.5250260000000  0.4075070000000 1.0
C      1  0.5623170000000  0.5345600000000  0.5960920000000 1.0
C      1  0.4548050000000  0.4725050000000  0.5807450000000 1.0
C      1  0.5432930000000  0.5896390000000  0.5518070000000 1.0
C      1  0.4721140000000  0.5782850000000  0.4492450000000 1.0
C      1  0.5307780000000  0.4197170000000  0.4454230000000 1.0
C      1  0.4708210000000  0.5554750000000  0.5741150000000 1.0
C      1  0.5614920000000  0.5788530000000  0.4624830000000 1.0
C      1  0.5717520000000  0.4674410000000  0.5583980000000 1.0
C      1  0.5306030000000  0.4402750000000  0.5699770000000 1.0
C      1  0.4677720000000  0.4473530000000  0.4323600000000 1.0
C      1  0.5333770000000  0.5560270000000  0.4257990000000 1.0
C      1  0.4368070000000  0.4281320000000  0.4666360000000 1.0
C      1  0.5591780000000  0.4240250000000  0.5305200000000 1.0
C      1  0.4418970000000  0.5713160000000  0.5333270000000 1.0
C      1  0.4270940000000  0.5300780000000  0.5615810000000 1.0
C      1  0.5759270000000  0.5321590000000  0.4390030000000 1.0
C      1  0.4187400000000  0.4660920000000  0.4397940000000 1.0
C      1  0.4584410000000  0.5973960000000  0.5255410000000 1.0
C      1  0.5976660000000  0.5238300000000  0.4578990000000 1.0
C      1  0.5232630000000  0.4525700000000  0.5953020000000 1.0
C      1  0.5429870000000  0.3990470000000  0.5211860000000 1.0
C      1  0.4534660000000  0.4026150000000  0.4721700000000 1.0
C      1  0.5418010000000  0.5987320000000  0.4713670000000 1.0
C      1  0.3969400000000  0.4741600000000  0.4563390000000 1.0
C      1  0.5971180000000  0.4737940000000  0.5428490000000 1.0
C      1  0.4041540000000  0.5221180000000  0.5431850000000 1.0
C      1  0.4793670000000  0.5402830000000  0.5969750000000 1.0
C      1  0.5274450000000  0.5405520000000  0.4027540000000 1.0
C      1  0.4771380000000  0.4588400000000  0.4074680000000 1.0
C      1  0.4289560000000  0.5655070000000  0.4917320000000 1.0
C      1  0.5686220000000  0.4922750000000  0.4441840000000 1.0
C      1  0.4867280000000  0.4141410000000  0.5726710000000 1.0
C      1  0.5608140000000  0.4280180000000  0.4908140000000 1.0
C      1  0.4374400000000  0.4316430000000  0.5063610000000 1.0
C      1  0.5577230000000  0.5700870000000  0.5093200000000 1.0
C      1  0.4264310000000  0.5071090000000  0.4153840000000 1.0
C      1  0.5655480000000  0.5170000000000  0.5719660000000 1.0
C      1  0.4359190000000  0.4918990000000  0.5694070000000 1.0
C      1  0.5173510000000  0.5738550000000  0.5604330000000 1.0
C      1  0.4941630000000  0.5625240000000  0.4293050000000 1.0
C      1  0.5083810000000  0.4352190000000  0.4249290000000 1.0
C      1  0.5297280000000  0.5098210000000  0.5348230000000 1.0
C      1  0.4966070000000  0.5307970000000  0.5189110000000 1.0
C      1  0.5323870000000  0.5182760000000  0.5023340000000 1.0
C      1  0.4813270000000  0.5044640000000  0.5318440000000 1.0
C      1  0.5178730000000  0.5096500000000  0.4633670000000 1.0
C      1  0.4690480000000  0.4993640000000  0.4648850000000 1.0
C      1  0.5092930000000  0.4668430000000  0.5267190000000 1.0
C      1  0.4913880000000  0.4616700000000  0.4816890000000 1.0
C      1  0.5036130000000  0.5341250000000  0.4750280000000 1.0
C      1  0.4639540000000  0.4786850000000  0.4899370000000 1.0
C      1  0.5332360000000  0.4738380000000  0.5061060000000 1.0
C      1  0.4683990000000  0.5279650000000  0.5026140000000 1.0
C      1  0.5079330000000  0.4264190000000  0.4637030000000 1.0
C      1  0.4261420000000  0.4695970000000  0.5034720000000 1.0
C      1  0.4643490000000  0.4998290000000  0.4253720000000 1.0
C      1  0.4984640000000  0.5730590000000  0.4675820000000 1.0
C      1  0.4913960000000  0.5749600000000  0.5248700000000 1.0
C      1  0.4896530000000  0.4201660000000  0.5335130000000 1.0
C      1  0.5687900000000  0.5338590000000  0.4979370000000 1.0
C      1  0.4293010000000  0.5260130000000  0.4971620000000 1.0
C      1  0.5736930000000  0.4649970000000  0.4954780000000 1.0
C      1  0.5323210000000  0.4974610000000  0.4285990000000 1.0
C      1  0.4752650000000  0.4982220000000  0.5707580000000 1.0
C      1  0.5255970000000  0.4920160000000  0.5702640000000 1.0
C      1  0.4325110000000  0.4831820000000  0.3995690000000 1.0
C      1  0.4873450000000  0.4099880000000  0.4337150000000 1.0
C      1  0.4107350000000  0.4370700000000  0.4861660000000 1.0
C      1  0.5673110000000  0.5111490000000  0.4157270000000 1.0
C      1  0.4385570000000  0.5150440000000  0.5883090000000 1.0
C      1  0.5586790000000  0.4874510000000  0.5795960000000 1.0
C      1  0.5114950000000  0.5902560000000  0.4339390000000 1.0
C      1  0.4959200000000  0.5988800000000  0.5622470000000 1.0
C      1  0.5098400000000  0.3994020000000  0.5611030000000 1.0
C      1  0.5778070000000  0.5699300000000  0.4845100000000 1.0
C      1  0.4147550000000  0.5623030000000  0.5170100000000 1.0
C      1  0.5865510000000  0.4318270000000  0.5130580000000 1.0
C      1  0.5329990000000  0.5470300000000  0.5155190000000 1.0
C      1  0.5508550000000  0.5310370000000  0.5475140000000 1.0
C      1  0.5152460000000  0.5467810000000  0.5398310000000 1.0
C      1  0.4618900000000  0.4549620000000  0.5129660000000 1.0
C      1  0.5385180000000  0.4525480000000  0.4816610000000 1.0
C      1  0.4624240000000  0.5378980000000  0.4731020000000 1.0
C      1  0.4658210000000  0.4759220000000  0.5347230000000 1.0
C      1  0.5424100000000  0.4889010000000  0.4661140000000 1.0
C      1  0.4416310000000  0.5184550000000  0.4597390000000 1.0
C      1  0.4880590000000  0.4639720000000  0.5536340000000 1.0
C      1  0.5169000000000  0.4685220000000  0.4631020000000 1.0
C      1  0.4832580000000  0.5399410000000  0.4515550000000 1.0
C      1  0.3970690000000  0.4860810000000  0.5044400000000 1.0
C      1  0.4829490000000  0.5026400000000  0.3968530000000 1.0
C      1  0.5034720000000  0.3994430000000  0.4824520000000 1.0
C      1  0.5966640000000  0.5154500000000  0.5050240000000 1.0
C      1  0.3975930000000  0.5160770000000  0.4928250000000 1.0
C      1  0.6003790000000  0.4831700000000  0.4988410000000 1.0
C      1  0.5166550000000  0.4988370000000  0.3997010000000 1.0
C      1  0.4843670000000  0.4908090000000  0.6028360000000 1.0
C      1  0.5144700000000  0.5013590000000  0.6010640000000 1.0
C      1  0.4938250000000  0.6045390000000  0.4800190000000 1.0
C      1  0.5014770000000  0.6046840000000  0.5120070000000 1.0
C      1  0.4926130000000  0.3953340000000  0.5110820000000 1.0
C      1  0.5055970000000  0.4683680000000  0.4337940000000 1.0
C      1  0.4698300000000  0.4260290000000  0.4995420000000 1.0
C      1  0.4199760000000  0.5104530000000  0.4430420000000 1.0
C      1  0.4960060000000  0.5287000000000  0.4242250000000 1.0
C      1  0.5093410000000  0.5423940000000  0.5709700000000 1.0
C      1  0.4880830000000  0.4421160000000  0.5794910000000 1.0
C      1  0.5258810000000  0.5722740000000  0.4967460000000 1.0
C      1  0.4607760000000  0.5654210000000  0.4910310000000 1.0
C      1  0.5273150000000  0.4272730000000  0.4983110000000 1.0
C      1  0.5710920000000  0.5000530000000  0.4775510000000 1.0
C      1  0.4357740000000  0.4903370000000  0.5378660000000 1.0
C      1  0.5704320000000  0.5068040000000  0.5372090000000 1.0
C      1  0.6020790000000  0.4921320000000  0.4659070000000 1.0
C      1  0.4931190000000  0.4581380000000  0.6071570000000 1.0
C      1  0.4636060000000  0.5984410000000  0.4945710000000 1.0
C      1  0.3930720000000  0.5051330000000  0.4606440000000 1.0
C      1  0.6029700000000  0.5045590000000  0.5366530000000 1.0
C      1  0.4020200000000  0.4914750000000  0.5364290000000 1.0
C      1  0.5124370000000  0.5331910000000  0.6009750000000 1.0
C      1  0.4978190000000  0.5331120000000  0.3919740000000 1.0
C      1  0.5079080000000  0.4661640000000  0.3999350000000 1.0
C      1  0.5369300000000  0.3963340000000  0.4879660000000 1.0
C      1  0.4591300000000  0.3948080000000  0.5046640000000 1.0
C      1  0.5345910000000  0.6030470000000  0.5043500000000 1.0
C      1  0.4949890000000  0.4995960000000  0.4426360000000 1.0
C      1  0.4998130000000  0.4410160000000  0.5067180000000 1.0
C      1  0.4486310000000  0.5016170000000  0.5094170000000 1.0
C      1  0.4942520000000  0.5577770000000  0.4976070000000 1.0
C      1  0.5569230000000  0.4976480000000  0.5084850000000 1.0
C      1  0.5032620000000  0.5123560000000  0.5562360000000 1.0
C      1  0.4394440000000  0.4429440000000  0.4384480000000 1.0
C      1  0.4440160000000  0.5565050000000  0.5607470000000 1.0
C      1  0.5596240000000  0.5600820000000  0.4404740000000 1.0
C      1  0.5570270000000  0.4395820000000  0.5585030000000 1.0
END
