TITL C-2782230-7391-1317 -0.00037470427790916 125000 -858.943374114592 0 0 149 (C1) n - 1
REM
REM in /home/nfs/bkarasulu/CARBON/AIRSS/Generating-Clusters/REBO/Higher-Symm/SD-CG/HFTN-CG
REM
REM
REM
REM
REM
REM ./C.cell (12c818d87b63d06a65506943cc24bca4)
REM
REM compiler GCC version 9.2.1 20190827 (Red Hat 9.2.1-1)
REM options -cpp -mtune=generic -march=x86-64 -g -O0 -fpre-include=/usr/include/finclude/math-vector-fortran.h
REM seed -1556162223 1712123600 -1162854642 1112959623 -2027462897 -1632642946 -848339715 -781697555 -720199775 1145280029 1596426025 471432854 -721633616 -1440024751 983926692 -149799195 -99815247 -188618505 123431922 2100858401 658328618 -1901905113 -1696469120 2047513073 1112100817 -518275701 497106746 941346079 77091322 1862332723 -1645828160 -2018805676 -902163934
REM
CELL 1.54180   50.00000   50.00000   50.00000   90.00000   90.00000   90.00000
LATT -1
SFAC C  
C      1  0.4403710000000  0.5380570000000  0.4397650000000 1.0
C      1  0.4959060000000  0.4207110000000  0.4386220000000 1.0
C      1  0.5606120000000  0.5360700000000  0.4394270000000 1.0
C      1  0.4360990000000  0.5385560000000  0.5598150000000 1.0
C      1  0.4998070000000  0.4259800000000  0.5591960000000 1.0
C      1  0.5659710000000  0.5397540000000  0.5629270000000 1.0
C      1  0.4949610000000  0.4674890000000  0.5439370000000 1.0
C      1  0.5279800000000  0.5117440000000  0.5417740000000 1.0
C      1  0.4822540000000  0.5123200000000  0.5551170000000 1.0
C      1  0.4942890000000  0.4693300000000  0.4495390000000 1.0
C      1  0.5293250000000  0.5089550000000  0.4575140000000 1.0
C      1  0.4771580000000  0.5151360000000  0.4572630000000 1.0
C      1  0.5273250000000  0.3918470000000  0.4820510000000 1.0
C      1  0.5748220000000  0.5767640000000  0.4783680000000 1.0
C      1  0.3936790000000  0.5302510000000  0.4830670000000 1.0
C      1  0.5284190000000  0.3931880000000  0.5161100000000 1.0
C      1  0.5684130000000  0.5766480000000  0.5119650000000 1.0
C      1  0.3943050000000  0.5291730000000  0.5171320000000 1.0
C      1  0.5521140000000  0.5015750000000  0.5112850000000 1.0
C      1  0.4769070000000  0.5419920000000  0.5131580000000 1.0
C      1  0.4799640000000  0.4573330000000  0.5086180000000 1.0
C      1  0.5527960000000  0.4903660000000  0.4839970000000 1.0
C      1  0.4756900000000  0.5474360000000  0.4803990000000 1.0
C      1  0.4739950000000  0.4506630000000  0.4776290000000 1.0
C      1  0.5123310000000  0.5982520000000  0.4557470000000 1.0
C      1  0.4107160000000  0.4644330000000  0.4554310000000 1.0
C      1  0.5749250000000  0.4392100000000  0.4556710000000 1.0
C      1  0.5111750000000  0.5968730000000  0.5444600000000 1.0
C      1  0.4100490000000  0.4622230000000  0.5419770000000 1.0
C      1  0.5774200000000  0.4450590000000  0.5429390000000 1.0
C      1  0.4389420000000  0.5090690000000  0.4670120000000 1.0
C      1  0.5220460000000  0.4359690000000  0.4643950000000 1.0
C      1  0.5418630000000  0.5549030000000  0.4692480000000 1.0
C      1  0.4366970000000  0.5085500000000  0.5335080000000 1.0
C      1  0.5255130000000  0.4414510000000  0.5329150000000 1.0
C      1  0.5420050000000  0.5477930000000  0.5324760000000 1.0
C      1  0.4836720000000  0.5371830000000  0.5906500000000 1.0
C      1  0.4753970000000  0.4672540000000  0.5893190000000 1.0
C      1  0.5414890000000  0.4958590000000  0.5935970000000 1.0
C      1  0.4899260000000  0.5406880000000  0.4130410000000 1.0
C      1  0.4733980000000  0.4663800000000  0.4043720000000 1.0
C      1  0.5391170000000  0.4911890000000  0.4061390000000 1.0
C      1  0.5069780000000  0.5503690000000  0.4882050000000 1.0
C      1  0.4623380000000  0.4798430000000  0.4808650000000 1.0
C      1  0.5356020000000  0.4698160000000  0.4797930000000 1.0
C      1  0.5051970000000  0.5579270000000  0.5209860000000 1.0
C      1  0.4607530000000  0.4834240000000  0.5139480000000 1.0
C      1  0.5400110000000  0.4755130000000  0.5188100000000 1.0
C      1  0.5088880000000  0.5572400000000  0.5817050000000 1.0
C      1  0.4458180000000  0.4777960000000  0.5798250000000 1.0
C      1  0.5448540000000  0.4644030000000  0.5823400000000 1.0
C      1  0.5133070000000  0.5571140000000  0.4239410000000 1.0
C      1  0.4441250000000  0.4809380000000  0.4140780000000 1.0
C      1  0.5436610000000  0.4600300000000  0.4163420000000 1.0
C      1  0.4385360000000  0.5590050000000  0.4630730000000 1.0
C      1  0.4733260000000  0.4148590000000  0.4574310000000 1.0
C      1  0.5762920000000  0.5200150000000  0.4589540000000 1.0
C      1  0.4430860000000  0.5613350000000  0.5429520000000 1.0
C      1  0.4743130000000  0.4178650000000  0.5414870000000 1.0
C      1  0.5835070000000  0.5312450000000  0.5382530000000 1.0
C      1  0.5013240000000  0.4330930000000  0.5167850000000 1.0
C      1  0.5521620000000  0.5288470000000  0.5125620000000 1.0
C      1  0.4443560000000  0.5321450000000  0.5157640000000 1.0
C      1  0.4981910000000  0.4322320000000  0.4833700000000 1.0
C      1  0.5602990000000  0.5411980000000  0.4887900000000 1.0
C      1  0.4520360000000  0.5285990000000  0.4852040000000 1.0
C      1  0.4971720000000  0.4478760000000  0.5786050000000 1.0
C      1  0.5490960000000  0.5240690000000  0.5805860000000 1.0
C      1  0.4555870000000  0.5299060000000  0.5791500000000 1.0
C      1  0.4928820000000  0.4436210000000  0.4189770000000 1.0
C      1  0.5424290000000  0.5205340000000  0.4204190000000 1.0
C      1  0.4616810000000  0.5303680000000  0.4208620000000 1.0
C      1  0.3784360000000  0.4935320000000  0.4867070000000 1.0
C      1  0.5666870000000  0.3960310000000  0.4876380000000 1.0
C      1  0.5518810000000  0.6090340000000  0.4901210000000 1.0
C      1  0.3775060000000  0.4933030000000  0.5116680000000 1.0
C      1  0.5686500000000  0.3985810000000  0.5123380000000 1.0
C      1  0.5513730000000  0.6126970000000  0.5145000000000 1.0
C      1  0.4870100000000  0.5439430000000  0.5514580000000 1.0
C      1  0.4674610000000  0.4653810000000  0.5488060000000 1.0
C      1  0.5427680000000  0.4920990000000  0.5541680000000 1.0
C      1  0.4893820000000  0.5448340000000  0.4528090000000 1.0
C      1  0.4666010000000  0.4668750000000  0.4434800000000 1.0
C      1  0.5423170000000  0.4874860000000  0.4449410000000 1.0
C      1  0.4673840000000  0.5008540000000  0.5903400000000 1.0
C      1  0.5141090000000  0.4751880000000  0.5901620000000 1.0
C      1  0.5166870000000  0.5265890000000  0.5906310000000 1.0
C      1  0.4684970000000  0.5007820000000  0.4054710000000 1.0
C      1  0.5130790000000  0.4677750000000  0.4060870000000 1.0
C      1  0.5122200000000  0.5200590000000  0.4096160000000 1.0
C      1  0.5628770000000  0.4604980000000  0.4424940000000 1.0
C      1  0.5006480000000  0.5760690000000  0.4445420000000 1.0
C      1  0.4335060000000  0.4639530000000  0.4398130000000 1.0
C      1  0.5648580000000  0.4661940000000  0.5562970000000 1.0
C      1  0.4996170000000  0.5751010000000  0.5565870000000 1.0
C      1  0.4350470000000  0.4618540000000  0.5541110000000 1.0
C      1  0.5263840000000  0.5769700000000  0.4864350000000 1.0
C      1  0.4299970000000  0.4839980000000  0.4842990000000 1.0
C      1  0.5471660000000  0.4404330000000  0.4842010000000 1.0
C      1  0.5343160000000  0.5766840000000  0.5177940000000 1.0
C      1  0.4277680000000  0.4848690000000  0.5144770000000 1.0
C      1  0.5507950000000  0.4460140000000  0.5133600000000 1.0
C      1  0.5431930000000  0.5979620000000  0.5430420000000 1.0
C      1  0.4005040000000  0.4917330000000  0.5325200000000 1.0
C      1  0.5587020000000  0.4195850000000  0.5334090000000 1.0
C      1  0.5431890000000  0.5941800000000  0.4623440000000 1.0
C      1  0.4023240000000  0.4933610000000  0.4668110000000 1.0
C      1  0.5553850000000  0.4142150000000  0.4643470000000 1.0
C      1  0.5097760000000  0.4729910000000  0.5139180000000 1.0
C      1  0.5129150000000  0.5247550000000  0.5179830000000 1.0
C      1  0.4766880000000  0.5095580000000  0.5219600000000 1.0
C      1  0.5043020000000  0.4714770000000  0.4802230000000 1.0
C      1  0.5131900000000  0.5178540000000  0.4846680000000 1.0
C      1  0.4835620000000  0.5044150000000  0.4888430000000 1.0
C      1  0.4181330000000  0.5471270000000  0.5091650000000 1.0
C      1  0.4959560000000  0.4000000000000  0.5239290000000 1.0
C      1  0.5924210000000  0.5541470000000  0.5208870000000 1.0
C      1  0.4139540000000  0.5552060000000  0.4800890000000 1.0
C      1  0.4995960000000  0.4021140000000  0.4918520000000 1.0
C      1  0.5895110000000  0.5510980000000  0.4901450000000 1.0
C      1  0.4130200000000  0.5237590000000  0.4554680000000 1.0
C      1  0.5246870000000  0.4067390000000  0.4512430000000 1.0
C      1  0.5615410000000  0.5692710000000  0.4478910000000 1.0
C      1  0.4096900000000  0.5213220000000  0.5466380000000 1.0
C      1  0.5276050000000  0.4116280000000  0.5450930000000 1.0
C      1  0.5620980000000  0.5695270000000  0.5456550000000 1.0
C      1  0.4018300000000  0.4418280000000  0.5243430000000 1.0
C      1  0.5989570000000  0.4492240000000  0.5251530000000 1.0
C      1  0.4980120000000  0.6123850000000  0.5252580000000 1.0
C      1  0.4028040000000  0.4433220000000  0.4722700000000 1.0
C      1  0.5963260000000  0.4437310000000  0.4733730000000 1.0
C      1  0.4986110000000  0.6151200000000  0.4734240000000 1.0
C      1  0.5867340000000  0.5117690000000  0.4836280000000 1.0
C      1  0.4477060000000  0.5737560000000  0.4902940000000 1.0
C      1  0.4622280000000  0.4130640000000  0.4832720000000 1.0
C      1  0.5896880000000  0.5152930000000  0.5112890000000 1.0
C      1  0.4481750000000  0.5719310000000  0.5179430000000 1.0
C      1  0.4621690000000  0.4166570000000  0.5110760000000 1.0
C      1  0.4548550000000  0.4965320000000  0.5527610000000 1.0
C      1  0.5253140000000  0.4628560000000  0.5541860000000 1.0
C      1  0.5204210000000  0.5410910000000  0.5537140000000 1.0
C      1  0.4546990000000  0.4976120000000  0.4426750000000 1.0
C      1  0.5231040000000  0.4587620000000  0.4435930000000 1.0
C      1  0.5227630000000  0.5394900000000  0.4517470000000 1.0
C      1  0.4936790000000  0.6193040000000  0.4996170000000 1.0
C      1  0.6046500000000  0.4478510000000  0.4987200000000 1.0
C      1  0.3996740000000  0.4357730000000  0.4980520000000 1.0
C      1  0.4995420000000  0.4957110000000  0.4033360000000 1.0
C      1  0.4991970000000  0.5015050000000  0.5818510000000 1.0
END
