TITL C-2782233-7966-138 4.84784989919484e-08 125000 -64.5114695751825 0 0 11 (C2v) n - 1
REM
REM in /home/nfs/bkarasulu/CARBON/AIRSS/Generating-Clusters/REBO/Higher-Symm/SD-CG/HFTN-CG
REM
REM
REM
REM
REM
REM ./C.cell (12c818d87b63d06a65506943cc24bca4)
REM
REM compiler GCC version 9.2.1 20190827 (Red Hat 9.2.1-1)
REM options -cpp -mtune=generic -march=x86-64 -g -O0 -fpre-include=/usr/include/finclude/math-vector-fortran.h
REM seed -526756451 241927118 16235788 1070560633 1838590521 2040005550 841881525 -1442850353 -2116905314 412953288 -89967795 -1232925408 1043135719 -1753214462 -401493564 -1239203546 -301623587 -1234466754 -1362721529 -829246104 2097042970 357320060 2055798851 -2061578341 582033079 1086289394 1553673715 519777511 1816898031 1560040069 1537521537 213353919 748813497
REM
CELL 1.54180   50.00000   50.00000   50.00000   90.00000   90.00000   90.00000
LATT -1
SFAC C  
C      1  0.5023480000000  0.4521910000000  0.5000000000000 1.0
C      1  0.4761280000000  0.4585120000000  0.5000000000000 1.0
C      1  0.4574870000000  0.4780040000000  0.5000000000000 1.0
C      1  0.4523440000000  0.5044800000000  0.5000000000000 1.0
C      1  0.4623310000000  0.5295340000000  0.5000000000000 1.0
C      1  0.4842780000000  0.5452100000000  0.5000000000000 1.0
C      1  0.5112160000000  0.5465330000000  0.5000000000000 1.0
C      1  0.5345940000000  0.5330820000000  0.5000000000000 1.0
C      1  0.5469880000000  0.5091280000000  0.5000000000000 1.0
C      1  0.5444640000000  0.4822750000000  0.5000000000000 1.0
C      1  0.5278220000000  0.4610500000000  0.5000000000000 1.0
END
