TITL C-2782239-8622-1278 -0.168548125928236 125000 -886.835470500533 0 0 149 (C1) n - 1
REM
REM in /home/nfs/bkarasulu/CARBON/AIRSS/Generating-Clusters/REBO/Higher-Symm/SD-CG/HFTN-CG
REM
REM
REM
REM
REM
REM ./C.cell (12c818d87b63d06a65506943cc24bca4)
REM
REM compiler GCC version 9.2.1 20190827 (Red Hat 9.2.1-1)
REM options -cpp -mtune=generic -march=x86-64 -g -O0 -fpre-include=/usr/include/finclude/math-vector-fortran.h
REM seed 1689215747 -512636332 -539163484 213073604 1998927400 -1777297732 -1431109245 -644058941 771529423 842960793 -1510010940 844711890 -861042956 -112777063 -1193659175 596266900 -566611141 437206839 -1785922544 873321654 1887562196 1532555820 -627193161 -966415106 749028471 1780717050 -663277809 -106357575 1766682940 -628604895 -1877552512 -1929329816 -754149505
REM
CELL 1.54180   50.00000   50.00000   50.00000   90.00000   90.00000   90.00000
LATT -1
SFAC C  
C      1  0.5308880000000  0.4861170000000  0.3940490000000 1.0
C      1  0.5330400000000  0.5146940000000  0.3937880000000 1.0
C      1  0.5117180000000  0.5338620000000  0.3944850000000 1.0
C      1  0.4835660000000  0.5290590000000  0.3938600000000 1.0
C      1  0.4694770000000  0.5043890000000  0.3906610000000 1.0
C      1  0.4800590000000  0.4777970000000  0.3913110000000 1.0
C      1  0.5074700000000  0.4696700000000  0.3931470000000 1.0
C      1  0.4121790000000  0.5337760000000  0.4717900000000 1.0
C      1  0.4154600000000  0.4489900000000  0.4767410000000 1.0
C      1  0.4808680000000  0.4006630000000  0.4718960000000 1.0
C      1  0.5640370000000  0.4254780000000  0.4752630000000 1.0
C      1  0.5953360000000  0.5058940000000  0.4780560000000 1.0
C      1  0.5576030000000  0.5790460000000  0.4802250000000 1.0
C      1  0.4546190000000  0.5929650000000  0.4813780000000 1.0
C      1  0.4659840000000  0.4379620000000  0.4883890000000 1.0
C      1  0.5220600000000  0.4358110000000  0.4894620000000 1.0
C      1  0.5612960000000  0.4775730000000  0.4916100000000 1.0
C      1  0.5461140000000  0.5376560000000  0.4906350000000 1.0
C      1  0.5059140000000  0.5622650000000  0.4914320000000 1.0
C      1  0.4506220000000  0.5422230000000  0.4908760000000 1.0
C      1  0.4348860000000  0.4865740000000  0.4913170000000 1.0
C      1  0.5665660000000  0.5002910000000  0.4453140000000 1.0
C      1  0.5391020000000  0.5474360000000  0.4422630000000 1.0
C      1  0.4860970000000  0.5696970000000  0.4441340000000 1.0
C      1  0.4371760000000  0.5306920000000  0.4407880000000 1.0
C      1  0.4420890000000  0.4782390000000  0.4400210000000 1.0
C      1  0.4854140000000  0.4426690000000  0.4400470000000 1.0
C      1  0.5403510000000  0.4491790000000  0.4444880000000 1.0
C      1  0.4492310000000  0.4513710000000  0.5341790000000 1.0
C      1  0.5006430000000  0.4355800000000  0.5270600000000 1.0
C      1  0.5462170000000  0.4651430000000  0.5283990000000 1.0
C      1  0.5579990000000  0.5215890000000  0.5252050000000 1.0
C      1  0.5215660000000  0.5611630000000  0.5300140000000 1.0
C      1  0.4651250000000  0.5602350000000  0.5364960000000 1.0
C      1  0.4312740000000  0.5101620000000  0.5336570000000 1.0
C      1  0.4641730000000  0.4274100000000  0.4589240000000 1.0
C      1  0.5328440000000  0.4226170000000  0.4623930000000 1.0
C      1  0.5802260000000  0.4783000000000  0.4650610000000 1.0
C      1  0.5620760000000  0.5493110000000  0.4648310000000 1.0
C      1  0.5060120000000  0.5816300000000  0.4648070000000 1.0
C      1  0.4375510000000  0.5541270000000  0.4632880000000 1.0
C      1  0.4203310000000  0.4795960000000  0.4640770000000 1.0
C      1  0.4689680000000  0.5133890000000  0.5911650000000 1.0
C      1  0.4740190000000  0.4835260000000  0.5842020000000 1.0
C      1  0.4983990000000  0.4684610000000  0.5828730000000 1.0
C      1  0.5291550000000  0.4792900000000  0.5880610000000 1.0
C      1  0.5363980000000  0.5124020000000  0.5827060000000 1.0
C      1  0.5157080000000  0.5354190000000  0.5728410000000 1.0
C      1  0.4908950000000  0.5389030000000  0.5910080000000 1.0
C      1  0.5147700000000  0.5750030000000  0.4269240000000 1.0
C      1  0.4527680000000  0.5562580000000  0.4267370000000 1.0
C      1  0.4278090000000  0.4984520000000  0.4190760000000 1.0
C      1  0.4582070000000  0.4454200000000  0.4238930000000 1.0
C      1  0.5207690000000  0.4311880000000  0.4257550000000 1.0
C      1  0.5680420000000  0.4726750000000  0.4277910000000 1.0
C      1  0.5642310000000  0.5357250000000  0.4273190000000 1.0
C      1  0.5119220000000  0.5866960000000  0.5374360000000 1.0
C      1  0.4373170000000  0.5656570000000  0.5260570000000 1.0
C      1  0.4084780000000  0.4892900000000  0.5347550000000 1.0
C      1  0.4516130000000  0.4206140000000  0.5325180000000 1.0
C      1  0.5269200000000  0.4191740000000  0.5367440000000 1.0
C      1  0.5713570000000  0.4695900000000  0.5381940000000 1.0
C      1  0.5684620000000  0.5373230000000  0.5491210000000 1.0
C      1  0.5171800000000  0.5279510000000  0.4509620000000 1.0
C      1  0.4876880000000  0.5379660000000  0.4445780000000 1.0
C      1  0.4674440000000  0.5210810000000  0.4426070000000 1.0
C      1  0.4690530000000  0.4905760000000  0.4459920000000 1.0
C      1  0.4944070000000  0.4693580000000  0.4479500000000 1.0
C      1  0.5244970000000  0.4737190000000  0.4536620000000 1.0
C      1  0.5355330000000  0.5026690000000  0.4484480000000 1.0
C      1  0.4640580000000  0.4978570000000  0.4923370000000 1.0
C      1  0.4766600000000  0.4668080000000  0.4915180000000 1.0
C      1  0.5094220000000  0.4641820000000  0.4914420000000 1.0
C      1  0.5321900000000  0.4850770000000  0.4841690000000 1.0
C      1  0.5266710000000  0.5131230000000  0.4946700000000 1.0
C      1  0.5051330000000  0.5324930000000  0.4819620000000 1.0
C      1  0.4778950000000  0.5276510000000  0.4964850000000 1.0
C      1  0.5425290000000  0.4446090000000  0.5096590000000 1.0
C      1  0.5725920000000  0.4974210000000  0.5096880000000 1.0
C      1  0.5411880000000  0.5588990000000  0.5105940000000 1.0
C      1  0.4850120000000  0.5672470000000  0.5113080000000 1.0
C      1  0.4322940000000  0.5238720000000  0.5050890000000 1.0
C      1  0.4350980000000  0.4638800000000  0.5082430000000 1.0
C      1  0.4868330000000  0.4240660000000  0.5036600000000 1.0
C      1  0.5363950000000  0.5086060000000  0.6141820000000 1.0
C      1  0.5256930000000  0.5303560000000  0.6289050000000 1.0
C      1  0.4993220000000  0.5382380000000  0.6226510000000 1.0
C      1  0.4781060000000  0.5170290000000  0.6217830000000 1.0
C      1  0.4829830000000  0.4936790000000  0.6371020000000 1.0
C      1  0.5053230000000  0.4775590000000  0.6373650000000 1.0
C      1  0.5282020000000  0.4807870000000  0.6213000000000 1.0
C      1  0.4805750000000  0.5323570000000  0.5300920000000 1.0
C      1  0.4617400000000  0.5057950000000  0.5256730000000 1.0
C      1  0.4700780000000  0.4747130000000  0.5242040000000 1.0
C      1  0.5006380000000  0.4659970000000  0.5232050000000 1.0
C      1  0.5223230000000  0.4826120000000  0.5357200000000 1.0
C      1  0.5272510000000  0.5128950000000  0.5266120000000 1.0
C      1  0.5097180000000  0.5341230000000  0.5406240000000 1.0
C      1  0.4422070000000  0.5251310000000  0.5787720000000 1.0
C      1  0.4496190000000  0.4692970000000  0.5793690000000 1.0
C      1  0.4956310000000  0.4405870000000  0.5762110000000 1.0
C      1  0.5555120000000  0.4648620000000  0.5745020000000 1.0
C      1  0.5644920000000  0.5151310000000  0.5700840000000 1.0
C      1  0.5329250000000  0.5623150000000  0.5750510000000 1.0
C      1  0.4767420000000  0.5657900000000  0.5839510000000 1.0
C      1  0.4014730000000  0.5369460000000  0.5045760000000 1.0
C      1  0.4074430000000  0.4449960000000  0.5101120000000 1.0
C      1  0.4824750000000  0.3913910000000  0.5052890000000 1.0
C      1  0.5678410000000  0.4229640000000  0.5095430000000 1.0
C      1  0.6056740000000  0.4980320000000  0.5097450000000 1.0
C      1  0.5658450000000  0.5758430000000  0.5131360000000 1.0
C      1  0.4715080000000  0.5958540000000  0.5081530000000 1.0
C      1  0.4367480000000  0.4323450000000  0.4973520000000 1.0
C      1  0.5099060000000  0.4044220000000  0.4891850000000 1.0
C      1  0.5778840000000  0.4504360000000  0.4928270000000 1.0
C      1  0.5756610000000  0.5270960000000  0.4960090000000 1.0
C      1  0.5273670000000  0.5887040000000  0.4889100000000 1.0
C      1  0.4405240000000  0.5727860000000  0.4982390000000 1.0
C      1  0.4076780000000  0.5060110000000  0.4908990000000 1.0
C      1  0.4711830000000  0.5783840000000  0.5609550000000 1.0
C      1  0.4271430000000  0.5301470000000  0.5569380000000 1.0
C      1  0.4332680000000  0.4581120000000  0.5596260000000 1.0
C      1  0.4920330000000  0.4219890000000  0.5552050000000 1.0
C      1  0.5593440000000  0.4403310000000  0.5626160000000 1.0
C      1  0.5771540000000  0.4884430000000  0.5648340000000 1.0
C      1  0.5564120000000  0.5649740000000  0.5624630000000 1.0
C      1  0.5375160000000  0.5782750000000  0.4523470000000 1.0
C      1  0.4565870000000  0.5787920000000  0.4520340000000 1.0
C      1  0.4153470000000  0.5081640000000  0.4492610000000 1.0
C      1  0.4369240000000  0.4460760000000  0.4504220000000 1.0
C      1  0.5023390000000  0.4153580000000  0.4498040000000 1.0
C      1  0.5723060000000  0.4494610000000  0.4523350000000 1.0
C      1  0.5830870000000  0.5271510000000  0.4543350000000 1.0
C      1  0.4742160000000  0.4044660000000  0.5357840000000 1.0
C      1  0.5540480000000  0.4227170000000  0.5406790000000 1.0
C      1  0.5984210000000  0.4868760000000  0.5380040000000 1.0
C      1  0.5766580000000  0.5688180000000  0.5383180000000 1.0
C      1  0.4842730000000  0.5955810000000  0.5390230000000 1.0
C      1  0.4168630000000  0.5474430000000  0.5332030000000 1.0
C      1  0.4104940000000  0.4621780000000  0.5394180000000 1.0
C      1  0.5119060000000  0.4431350000000  0.4030850000000 1.0
C      1  0.5540790000000  0.4729990000000  0.4046710000000 1.0
C      1  0.5582920000000  0.5248360000000  0.4032020000000 1.0
C      1  0.5185100000000  0.5596970000000  0.4048200000000 1.0
C      1  0.4677450000000  0.5501010000000  0.4051390000000 1.0
C      1  0.4416000000000  0.5055070000000  0.3972180000000 1.0
C      1  0.4611010000000  0.4579800000000  0.4000770000000 1.0
C      1  0.4942080000000  0.4946900000000  0.4691720000000 1.0
C      1  0.5094040000000  0.4987090000000  0.5594220000000 1.0
END
