TITL C-2782226-7400-385 -0.247505608199913 125000 -667.482512438525 0 0 111 (C1) n - 1
REM
REM in /home/nfs/bkarasulu/CARBON/AIRSS/Generating-Clusters/REBO/Higher-Symm/SD-CG/HFTN-CG
REM
REM
REM
REM
REM
REM ./C.cell (12c818d87b63d06a65506943cc24bca4)
REM
REM compiler GCC version 9.2.1 20190827 (Red Hat 9.2.1-1)
REM options -cpp -mtune=generic -march=x86-64 -g -O0 -fpre-include=/usr/include/finclude/math-vector-fortran.h
REM seed -1229101402 1864331855 1943709499 1814915122 364695221 -1191212020 -1139616803 -1050621312 1741349605 -680412687 358913156 -809566716 319080322 -1213970994 1630255151 709779682 2073678999 -1074546041 -625245540 909382035 2069141845 191100794 -909430279 -2015962613 219530915 1810613044 355163097 1743105253 2023478559 865255270 -908047593 720557529 1242004169
REM
CELL 1.54180   50.00000   50.00000   50.00000   90.00000   90.00000   90.00000
LATT -1
SFAC C  
C      1  0.5476070000000  0.4450760000000  0.5339820000000 1.0
C      1  0.4697290000000  0.4356340000000  0.5433490000000 1.0
C      1  0.4227540000000  0.5108610000000  0.5174470000000 1.0
C      1  0.4873290000000  0.5833340000000  0.5158560000000 1.0
C      1  0.5668780000000  0.5235040000000  0.5340730000000 1.0
C      1  0.4951620000000  0.4771580000000  0.3954900000000 1.0
C      1  0.4742270000000  0.4974090000000  0.3941680000000 1.0
C      1  0.4871400000000  0.5236540000000  0.3948370000000 1.0
C      1  0.5160840000000  0.5195680000000  0.3957120000000 1.0
C      1  0.5210050000000  0.4907590000000  0.3967510000000 1.0
C      1  0.5651460000000  0.4836780000000  0.5667200000000 1.0
C      1  0.5107820000000  0.4342390000000  0.5690890000000 1.0
C      1  0.4416440000000  0.4732820000000  0.5597170000000 1.0
C      1  0.4544720000000  0.5448570000000  0.5554030000000 1.0
C      1  0.5343710000000  0.5648390000000  0.5562820000000 1.0
C      1  0.4867870000000  0.4796770000000  0.5477860000000 1.0
C      1  0.4689410000000  0.5077300000000  0.5418270000000 1.0
C      1  0.4906840000000  0.5291380000000  0.5499860000000 1.0
C      1  0.5188320000000  0.5142440000000  0.5549160000000 1.0
C      1  0.5186950000000  0.4843740000000  0.5453930000000 1.0
C      1  0.4386510000000  0.4977780000000  0.5446570000000 1.0
C      1  0.4810200000000  0.5607510000000  0.5410620000000 1.0
C      1  0.5451550000000  0.5342030000000  0.5535790000000 1.0
C      1  0.5450380000000  0.4693850000000  0.5526000000000 1.0
C      1  0.4813850000000  0.4342040000000  0.5683920000000 1.0
C      1  0.4778420000000  0.4553140000000  0.4929200000000 1.0
C      1  0.4524970000000  0.5089530000000  0.4850830000000 1.0
C      1  0.4968470000000  0.5434910000000  0.4903290000000 1.0
C      1  0.5470170000000  0.5174350000000  0.4870610000000 1.0
C      1  0.5283890000000  0.4629250000000  0.4901890000000 1.0
C      1  0.4421970000000  0.5370970000000  0.4485890000000 1.0
C      1  0.5228140000000  0.5704930000000  0.4483370000000 1.0
C      1  0.5664430000000  0.5064210000000  0.4498810000000 1.0
C      1  0.5212080000000  0.4347420000000  0.4447020000000 1.0
C      1  0.4460280000000  0.4579890000000  0.4483860000000 1.0
C      1  0.5353670000000  0.4739380000000  0.6017550000000 1.0
C      1  0.4865170000000  0.4646140000000  0.5782870000000 1.0
C      1  0.4589520000000  0.5068750000000  0.5895800000000 1.0
C      1  0.4944560000000  0.5412030000000  0.5813650000000 1.0
C      1  0.5386490000000  0.5191430000000  0.5828710000000 1.0
C      1  0.4737460000000  0.4165810000000  0.4671910000000 1.0
C      1  0.4127300000000  0.5079420000000  0.4844020000000 1.0
C      1  0.4758650000000  0.5912030000000  0.4850670000000 1.0
C      1  0.5734440000000  0.5497110000000  0.4789460000000 1.0
C      1  0.5695160000000  0.4483370000000  0.4553860000000 1.0
C      1  0.5216810000000  0.4839460000000  0.4672320000000 1.0
C      1  0.4901320000000  0.4711550000000  0.4671220000000 1.0
C      1  0.4714420000000  0.4988860000000  0.4621370000000 1.0
C      1  0.4911040000000  0.5259720000000  0.4632060000000 1.0
C      1  0.5237680000000  0.5179510000000  0.4637260000000 1.0
C      1  0.5496230000000  0.4700760000000  0.5131440000000 1.0
C      1  0.4895460000000  0.4404000000000  0.5205250000000 1.0
C      1  0.4442540000000  0.4863070000000  0.5072520000000 1.0
C      1  0.4705140000000  0.5483220000000  0.5065510000000 1.0
C      1  0.5457620000000  0.5373140000000  0.5138310000000 1.0
C      1  0.5146420000000  0.5270810000000  0.5080660000000 1.0
C      1  0.5315560000000  0.4973710000000  0.5099260000000 1.0
C      1  0.5106490000000  0.4644080000000  0.5189820000000 1.0
C      1  0.4728440000000  0.4769240000000  0.5168160000000 1.0
C      1  0.4690680000000  0.5174390000000  0.5108560000000 1.0
C      1  0.4308430000000  0.4600380000000  0.4724930000000 1.0
C      1  0.4360150000000  0.5604580000000  0.4661260000000 1.0
C      1  0.5382380000000  0.5787540000000  0.4752010000000 1.0
C      1  0.5871420000000  0.4922410000000  0.4662510000000 1.0
C      1  0.5206220000000  0.4196740000000  0.4688480000000 1.0
C      1  0.4555200000000  0.4835710000000  0.4392790000000 1.0
C      1  0.4699310000000  0.5358310000000  0.4411440000000 1.0
C      1  0.5266620000000  0.5425200000000  0.4414740000000 1.0
C      1  0.5436520000000  0.4898600000000  0.4435390000000 1.0
C      1  0.4987230000000  0.4523670000000  0.4412160000000 1.0
C      1  0.5210020000000  0.5855160000000  0.5106250000000 1.0
C      1  0.5868280000000  0.5016010000000  0.5173120000000 1.0
C      1  0.5397520000000  0.4192410000000  0.5148580000000 1.0
C      1  0.4326200000000  0.4497220000000  0.5183720000000 1.0
C      1  0.4310900000000  0.5497200000000  0.5131370000000 1.0
C      1  0.5219340000000  0.4252560000000  0.5427530000000 1.0
C      1  0.4452770000000  0.4493850000000  0.5431710000000 1.0
C      1  0.4338490000000  0.5360030000000  0.5382730000000 1.0
C      1  0.5102640000000  0.5773130000000  0.5408790000000 1.0
C      1  0.5820410000000  0.4990140000000  0.5502130000000 1.0
C      1  0.4471720000000  0.5832110000000  0.4802850000000 1.0
C      1  0.5578960000000  0.5688630000000  0.4925000000000 1.0
C      1  0.5827760000000  0.4642960000000  0.4745000000000 1.0
C      1  0.4969260000000  0.4106750000000  0.4823820000000 1.0
C      1  0.4117410000000  0.4775780000000  0.4853940000000 1.0
C      1  0.5778860000000  0.4735890000000  0.5028040000000 1.0
C      1  0.5059780000000  0.4143110000000  0.5137770000000 1.0
C      1  0.4131550000000  0.4718300000000  0.5147850000000 1.0
C      1  0.4501400000000  0.5717010000000  0.5084690000000 1.0
C      1  0.5452030000000  0.5676330000000  0.5240620000000 1.0
C      1  0.5521270000000  0.4939200000000  0.5902910000000 1.0
C      1  0.5176660000000  0.4568350000000  0.5887650000000 1.0
C      1  0.4593520000000  0.4795430000000  0.5816700000000 1.0
C      1  0.4648680000000  0.5331690000000  0.5801140000000 1.0
C      1  0.5223660000000  0.5478310000000  0.5830770000000 1.0
C      1  0.4308740000000  0.5352440000000  0.4868310000000 1.0
C      1  0.5090950000000  0.5694470000000  0.4854820000000 1.0
C      1  0.5779260000000  0.5105770000000  0.4879170000000 1.0
C      1  0.5372070000000  0.4328920000000  0.4872600000000 1.0
C      1  0.4465650000000  0.4473270000000  0.4933720000000 1.0
C      1  0.5677520000000  0.5339380000000  0.4571010000000 1.0
C      1  0.5481390000000  0.4427270000000  0.4391740000000 1.0
C      1  0.4615530000000  0.4337490000000  0.4494380000000 1.0
C      1  0.4235240000000  0.5155390000000  0.4530370000000 1.0
C      1  0.4953590000000  0.5861230000000  0.4610700000000 1.0
C      1  0.4908860000000  0.4570680000000  0.4147930000000 1.0
C      1  0.4534290000000  0.4929140000000  0.4129100000000 1.0
C      1  0.4768950000000  0.5412020000000  0.4144780000000 1.0
C      1  0.5299570000000  0.5354910000000  0.4144410000000 1.0
C      1  0.5389130000000  0.4824190000000  0.4169240000000 1.0
C      1  0.4977870000000  0.5001510000000  0.5152480000000 1.0
END
