TITL C-2782232-2968-407 0.0465661798183142 125000 -878.174810380762 0 0 148 (C1) n - 1
REM
REM in /home/nfs/bkarasulu/CARBON/AIRSS/Generating-Clusters/REBO/Higher-Symm/SD-CG/HFTN-CG
REM
REM
REM
REM
REM
REM ./C.cell (12c818d87b63d06a65506943cc24bca4)
REM
REM compiler GCC version 9.2.1 20190827 (Red Hat 9.2.1-1)
REM options -cpp -mtune=generic -march=x86-64 -g -O0 -fpre-include=/usr/include/finclude/math-vector-fortran.h
REM seed 1230846140 896561372 -1937239575 -1630175240 -714808273 1274139171 1704319272 1335306972 717886619 -1872276971 873517831 644259557 -1295910102 -1898816089 -197401541 -629962849 859079239 -691511049 1590312360 1643331734 1826671016 1328866899 -1170720742 -485497663 -964651494 501921679 -329196333 -431937996 -498083731 738664226 -2066932307 -410429812 -122538349
REM
CELL 1.54180   50.00000   50.00000   50.00000   90.00000   90.00000   90.00000
LATT -1
SFAC C  
C      1  0.5168960000000  0.5188460000000  0.5744740000000 1.0
C      1  0.5164850000000  0.4828370000000  0.4270240000000 1.0
C      1  0.4850230000000  0.5122910000000  0.5734160000000 1.0
C      1  0.4848000000000  0.4916020000000  0.4280080000000 1.0
C      1  0.5152440000000  0.4865650000000  0.5778310000000 1.0
C      1  0.5165500000000  0.5147120000000  0.4211100000000 1.0
C      1  0.4829180000000  0.4805520000000  0.5774930000000 1.0
C      1  0.4844210000000  0.5229430000000  0.4208990000000 1.0
C      1  0.4407200000000  0.5894410000000  0.4829210000000 1.0
C      1  0.4422920000000  0.4064410000000  0.5198630000000 1.0
C      1  0.5541400000000  0.5889170000000  0.4846400000000 1.0
C      1  0.5554970000000  0.4087400000000  0.5147900000000 1.0
C      1  0.4452210000000  0.4077810000000  0.4859140000000 1.0
C      1  0.4451130000000  0.5893500000000  0.5169800000000 1.0
C      1  0.5581520000000  0.4070420000000  0.4808200000000 1.0
C      1  0.5577160000000  0.5926750000000  0.5183630000000 1.0
C      1  0.4336300000000  0.4782240000000  0.4413790000000 1.0
C      1  0.4380130000000  0.5064270000000  0.5568710000000 1.0
C      1  0.5645910000000  0.4742450000000  0.4424460000000 1.0
C      1  0.5653530000000  0.5256790000000  0.5573630000000 1.0
C      1  0.4371090000000  0.5089000000000  0.4425110000000 1.0
C      1  0.4338550000000  0.4753350000000  0.5565820000000 1.0
C      1  0.5639250000000  0.5052210000000  0.4427440000000 1.0
C      1  0.5633570000000  0.4946930000000  0.5574070000000 1.0
C      1  0.4394430000000  0.4812480000000  0.5875840000000 1.0
C      1  0.4418350000000  0.5187850000000  0.4139570000000 1.0
C      1  0.5567060000000  0.4851750000000  0.5855670000000 1.0
C      1  0.5583120000000  0.5154600000000  0.4147720000000 1.0
C      1  0.4435280000000  0.5142180000000  0.5857200000000 1.0
C      1  0.4401840000000  0.4856060000000  0.4104990000000 1.0
C      1  0.5620090000000  0.5181200000000  0.5892610000000 1.0
C      1  0.5612590000000  0.4823500000000  0.4105520000000 1.0
C      1  0.5266110000000  0.4802740000000  0.4573570000000 1.0
C      1  0.5273850000000  0.5201520000000  0.5435580000000 1.0
C      1  0.4737560000000  0.4897310000000  0.4579250000000 1.0
C      1  0.4754960000000  0.5177790000000  0.5426810000000 1.0
C      1  0.5259910000000  0.5112190000000  0.4534600000000 1.0
C      1  0.5254920000000  0.4892710000000  0.5461810000000 1.0
C      1  0.4737490000000  0.5209040000000  0.4528740000000 1.0
C      1  0.4715910000000  0.4868650000000  0.5458070000000 1.0
C      1  0.4878030000000  0.3791130000000  0.4496990000000 1.0
C      1  0.4879590000000  0.6194010000000  0.5506490000000 1.0
C      1  0.5130320000000  0.3798370000000  0.4497990000000 1.0
C      1  0.5131830000000  0.6195700000000  0.5500230000000 1.0
C      1  0.4850540000000  0.6186000000000  0.4499700000000 1.0
C      1  0.4879280000000  0.3801550000000  0.5504680000000 1.0
C      1  0.5104280000000  0.6192540000000  0.4490180000000 1.0
C      1  0.5131590000000  0.3796500000000  0.5506300000000 1.0
C      1  0.5341880000000  0.5293750000000  0.5123000000000 1.0
C      1  0.5338360000000  0.4708100000000  0.4877660000000 1.0
C      1  0.4674850000000  0.5285170000000  0.5136160000000 1.0
C      1  0.4671350000000  0.4711730000000  0.4849310000000 1.0
C      1  0.5320570000000  0.4717880000000  0.5175550000000 1.0
C      1  0.5325060000000  0.5285440000000  0.4821550000000 1.0
C      1  0.4663370000000  0.4709320000000  0.5158110000000 1.0
C      1  0.4665540000000  0.5294010000000  0.4846180000000 1.0
C      1  0.4706580000000  0.3889450000000  0.5268420000000 1.0
C      1  0.4697080000000  0.6097250000000  0.4739770000000 1.0
C      1  0.5302490000000  0.3892390000000  0.5271220000000 1.0
C      1  0.5274900000000  0.6102490000000  0.4719060000000 1.0
C      1  0.4706000000000  0.6095130000000  0.5275000000000 1.0
C      1  0.4706860000000  0.3888090000000  0.4731430000000 1.0
C      1  0.5300230000000  0.6109200000000  0.5260140000000 1.0
C      1  0.5302140000000  0.3890880000000  0.4733160000000 1.0
C      1  0.4818990000000  0.5547940000000  0.4723380000000 1.0
C      1  0.4825210000000  0.4440660000000  0.5255560000000 1.0
C      1  0.5120550000000  0.5541580000000  0.4727550000000 1.0
C      1  0.5123760000000  0.4453410000000  0.5265960000000 1.0
C      1  0.4874120000000  0.4461170000000  0.4736810000000 1.0
C      1  0.4872130000000  0.5527400000000  0.5272620000000 1.0
C      1  0.5179050000000  0.4450650000000  0.4736950000000 1.0
C      1  0.5180870000000  0.5547700000000  0.5264500000000 1.0
C      1  0.3903370000000  0.5168730000000  0.4730530000000 1.0
C      1  0.3887900000000  0.4881660000000  0.5258120000000 1.0
C      1  0.6102360000000  0.5119330000000  0.4717360000000 1.0
C      1  0.6099520000000  0.4870020000000  0.5283850000000 1.0
C      1  0.3887900000000  0.4890090000000  0.4727550000000 1.0
C      1  0.3903610000000  0.5160270000000  0.5262460000000 1.0
C      1  0.6109960000000  0.4842670000000  0.4755340000000 1.0
C      1  0.6112230000000  0.5146450000000  0.5245720000000 1.0
C      1  0.5506310000000  0.4535950000000  0.4111530000000 1.0
C      1  0.5526150000000  0.5473160000000  0.5884590000000 1.0
C      1  0.4532900000000  0.4574970000000  0.4138770000000 1.0
C      1  0.4539580000000  0.5405500000000  0.5883170000000 1.0
C      1  0.5487430000000  0.5423020000000  0.4144240000000 1.0
C      1  0.5457380000000  0.4588060000000  0.5861380000000 1.0
C      1  0.4490360000000  0.5462770000000  0.4115420000000 1.0
C      1  0.4475430000000  0.4512530000000  0.5852080000000 1.0
C      1  0.5606720000000  0.4844570000000  0.5279210000000 1.0
C      1  0.5610390000000  0.5153480000000  0.4721540000000 1.0
C      1  0.4375740000000  0.4818770000000  0.5256410000000 1.0
C      1  0.4394760000000  0.5170650000000  0.4730430000000 1.0
C      1  0.5626230000000  0.5184450000000  0.5253790000000 1.0
C      1  0.5623390000000  0.4813150000000  0.4746210000000 1.0
C      1  0.4394290000000  0.5159570000000  0.5259430000000 1.0
C      1  0.4376000000000  0.4829710000000  0.4728480000000 1.0
C      1  0.4825050000000  0.5536170000000  0.4106790000000 1.0
C      1  0.4797170000000  0.4484990000000  0.5838060000000 1.0
C      1  0.5149780000000  0.5474730000000  0.4137360000000 1.0
C      1  0.5117820000000  0.4540630000000  0.5850490000000 1.0
C      1  0.4860050000000  0.4600140000000  0.4154500000000 1.0
C      1  0.4880690000000  0.5427360000000  0.5882940000000 1.0
C      1  0.5169800000000  0.4532140000000  0.4126340000000 1.0
C      1  0.5194670000000  0.5483870000000  0.5885600000000 1.0
C      1  0.4743290000000  0.4583390000000  0.4475070000000 1.0
C      1  0.4769190000000  0.5477390000000  0.5570070000000 1.0
C      1  0.5290640000000  0.4490160000000  0.4439870000000 1.0
C      1  0.5299410000000  0.5517380000000  0.5562850000000 1.0
C      1  0.4717370000000  0.5535950000000  0.4429460000000 1.0
C      1  0.4693030000000  0.4539840000000  0.5518890000000 1.0
C      1  0.5252560000000  0.5443240000000  0.4462280000000 1.0
C      1  0.5238720000000  0.4563350000000  0.5533010000000 1.0
C      1  0.5597920000000  0.5641780000000  0.5622750000000 1.0
C      1  0.5584240000000  0.4359730000000  0.4368840000000 1.0
C      1  0.4469540000000  0.5598670000000  0.5630920000000 1.0
C      1  0.4464920000000  0.4411860000000  0.4406990000000 1.0
C      1  0.5530360000000  0.4417770000000  0.5597540000000 1.0
C      1  0.5551540000000  0.5586340000000  0.4411880000000 1.0
C      1  0.4334790000000  0.4338730000000  0.5674990000000 1.0
C      1  0.4411180000000  0.5643290000000  0.4374510000000 1.0
C      1  0.5279830000000  0.4202870000000  0.4865390000000 1.0
C      1  0.5272440000000  0.5796860000000  0.5131540000000 1.0
C      1  0.4765460000000  0.4205310000000  0.4825450000000 1.0
C      1  0.4771480000000  0.5784460000000  0.5167490000000 1.0
C      1  0.5223200000000  0.5793370000000  0.4829270000000 1.0
C      1  0.5237580000000  0.4205420000000  0.5169240000000 1.0
C      1  0.4718450000000  0.5788980000000  0.4866430000000 1.0
C      1  0.4720040000000  0.4199780000000  0.5130000000000 1.0
C      1  0.5879690000000  0.4729910000000  0.4884770000000 1.0
C      1  0.5884300000000  0.5263160000000  0.5115720000000 1.0
C      1  0.4107470000000  0.4753680000000  0.4852080000000 1.0
C      1  0.4137850000000  0.5271260000000  0.5139270000000 1.0
C      1  0.5876860000000  0.5252380000000  0.4835940000000 1.0
C      1  0.5871830000000  0.4741050000000  0.5164930000000 1.0
C      1  0.4137540000000  0.5276670000000  0.4856690000000 1.0
C      1  0.4107190000000  0.4748580000000  0.5129560000000 1.0
C      1  0.5662380000000  0.5736770000000  0.4608190000000 1.0
C      1  0.5646800000000  0.4271090000000  0.5402380000000 1.0
C      1  0.4290970000000  0.5777480000000  0.4577730000000 1.0
C      1  0.4296120000000  0.4192900000000  0.5450030000000 1.0
C      1  0.5703490000000  0.4205230000000  0.4556540000000 1.0
C      1  0.5709370000000  0.5795980000000  0.5430710000000 1.0
C      1  0.4357510000000  0.4257700000000  0.4601610000000 1.0
C      1  0.4347510000000  0.5737830000000  0.5432160000000 1.0
C      1  0.5137900000000  0.3854900000000  0.5001470000000 1.0
C      1  0.4871690000000  0.3853300000000  0.5000990000000 1.0
C      1  0.5129540000000  0.6144530000000  0.4995410000000 1.0
C      1  0.4860810000000  0.6137340000000  0.5001710000000 1.0
END
