TITL C-2782236-320-947 -0.00337520392221538 125000 -844.87315082641 0 0 145 (C1) n - 1
REM
REM in /home/nfs/bkarasulu/CARBON/AIRSS/Generating-Clusters/REBO/Higher-Symm/SD-CG/HFTN-CG
REM
REM
REM
REM
REM
REM ./C.cell (12c818d87b63d06a65506943cc24bca4)
REM
REM compiler GCC version 9.2.1 20190827 (Red Hat 9.2.1-1)
REM options -cpp -mtune=generic -march=x86-64 -g -O0 -fpre-include=/usr/include/finclude/math-vector-fortran.h
REM seed -879973740 61748139 -262102325 1799771733 1175043172 7517649 1171987073 236000911 -786704726 1067691116 222191959 -1270861328 870467172 -1427962144 627864498 1538412793 1062018968 896719363 518169654 -380003560 1245292183 -490393641 -386558527 1316813440 1417072871 1406577453 1117428753 429411183 -8291083 1894733709 1036491551 1553369132 874818808
REM
CELL 1.54180   50.00000   50.00000   50.00000   90.00000   90.00000   90.00000
LATT -1
SFAC C  
C      1  0.4804850000000  0.4089240000000  0.5177840000000 1.0
C      1  0.4820520000000  0.4168150000000  0.4896210000000 1.0
C      1  0.5158970000000  0.4187710000000  0.4860670000000 1.0
C      1  0.5284430000000  0.4131130000000  0.5151680000000 1.0
C      1  0.5042870000000  0.4202080000000  0.5295870000000 1.0
C      1  0.5145640000000  0.5764200000000  0.5230640000000 1.0
C      1  0.5157560000000  0.5956240000000  0.4978150000000 1.0
C      1  0.4887340000000  0.6039840000000  0.4915120000000 1.0
C      1  0.4703520000000  0.5858000000000  0.5021440000000 1.0
C      1  0.4825080000000  0.5731470000000  0.5288140000000 1.0
C      1  0.4165500000000  0.5525680000000  0.5008910000000 1.0
C      1  0.4853550000000  0.5503540000000  0.3940260000000 1.0
C      1  0.5894110000000  0.5529370000000  0.4476140000000 1.0
C      1  0.5716270000000  0.5486980000000  0.5630180000000 1.0
C      1  0.4628210000000  0.5462090000000  0.5887890000000 1.0
C      1  0.6058320000000  0.4531600000000  0.4882640000000 1.0
C      1  0.5120840000000  0.4397150000000  0.3898230000000 1.0
C      1  0.4229480000000  0.4476550000000  0.4529750000000 1.0
C      1  0.4203620000000  0.4420150000000  0.5598330000000 1.0
C      1  0.5240610000000  0.4452560000000  0.5686360000000 1.0
C      1  0.4659430000000  0.5546450000000  0.5498810000000 1.0
C      1  0.4634650000000  0.5745540000000  0.4645080000000 1.0
C      1  0.5068810000000  0.5674530000000  0.4419930000000 1.0
C      1  0.5463230000000  0.5563320000000  0.4719400000000 1.0
C      1  0.5261100000000  0.5631410000000  0.5623380000000 1.0
C      1  0.5512140000000  0.4204370000000  0.5289750000000 1.0
C      1  0.5402220000000  0.4399420000000  0.4755400000000 1.0
C      1  0.5039280000000  0.4547760000000  0.4509450000000 1.0
C      1  0.4347420000000  0.4387960000000  0.5067310000000 1.0
C      1  0.4564420000000  0.4195620000000  0.5315080000000 1.0
C      1  0.5704940000000  0.5765990000000  0.4734450000000 1.0
C      1  0.5511760000000  0.5828330000000  0.5650950000000 1.0
C      1  0.4575550000000  0.5878840000000  0.5561650000000 1.0
C      1  0.4375480000000  0.5881040000000  0.4805720000000 1.0
C      1  0.5100010000000  0.5769320000000  0.4107910000000 1.0
C      1  0.4294220000000  0.4140190000000  0.4845680000000 1.0
C      1  0.4489630000000  0.4141010000000  0.5583080000000 1.0
C      1  0.5511010000000  0.4179260000000  0.5577120000000 1.0
C      1  0.5692830000000  0.4251880000000  0.4765470000000 1.0
C      1  0.5120540000000  0.4268340000000  0.4333850000000 1.0
C      1  0.4714330000000  0.4477550000000  0.5195790000000 1.0
C      1  0.4709260000000  0.4491460000000  0.4865470000000 1.0
C      1  0.5017250000000  0.4490860000000  0.4792080000000 1.0
C      1  0.5250960000000  0.4535670000000  0.5031590000000 1.0
C      1  0.5027510000000  0.4528190000000  0.5285800000000 1.0
C      1  0.5246380000000  0.5457190000000  0.5122870000000 1.0
C      1  0.5221670000000  0.5653710000000  0.4858840000000 1.0
C      1  0.4939860000000  0.5639980000000  0.4704530000000 1.0
C      1  0.4742780000000  0.5523640000000  0.4958710000000 1.0
C      1  0.4942440000000  0.5422250000000  0.5216450000000 1.0
C      1  0.4362720000000  0.4858390000000  0.5640540000000 1.0
C      1  0.4173160000000  0.4906520000000  0.4669900000000 1.0
C      1  0.5150210000000  0.4855090000000  0.4093360000000 1.0
C      1  0.5901770000000  0.4996590000000  0.4880750000000 1.0
C      1  0.5336940000000  0.4904660000000  0.5729620000000 1.0
C      1  0.5562150000000  0.5068550000000  0.5654200000000 1.0
C      1  0.5795480000000  0.5074860000000  0.4576510000000 1.0
C      1  0.4902110000000  0.5040880000000  0.4092270000000 1.0
C      1  0.4083920000000  0.5080770000000  0.4882890000000 1.0
C      1  0.4562340000000  0.5027240000000  0.5764150000000 1.0
C      1  0.4413680000000  0.4716950000000  0.5010330000000 1.0
C      1  0.5061210000000  0.4830860000000  0.4482040000000 1.0
C      1  0.5508710000000  0.4933930000000  0.4878790000000 1.0
C      1  0.5364270000000  0.4935990000000  0.5333350000000 1.0
C      1  0.4728970000000  0.4925540000000  0.5415230000000 1.0
C      1  0.5494670000000  0.5256140000000  0.4762390000000 1.0
C      1  0.5062060000000  0.5165950000000  0.4436000000000 1.0
C      1  0.4477660000000  0.5030410000000  0.4894860000000 1.0
C      1  0.4627530000000  0.5249320000000  0.5391130000000 1.0
C      1  0.5230980000000  0.5380230000000  0.5511130000000 1.0
C      1  0.4222490000000  0.4573240000000  0.5328430000000 1.0
C      1  0.4493690000000  0.4402680000000  0.4341180000000 1.0
C      1  0.5483000000000  0.4647330000000  0.4536840000000 1.0
C      1  0.5672970000000  0.4456980000000  0.5199040000000 1.0
C      1  0.4966700000000  0.4332620000000  0.5803570000000 1.0
C      1  0.5728220000000  0.5438130000000  0.5295560000000 1.0
C      1  0.5365840000000  0.5534930000000  0.4330880000000 1.0
C      1  0.4625040000000  0.5508690000000  0.4410500000000 1.0
C      1  0.4314070000000  0.5476030000000  0.5296070000000 1.0
C      1  0.4946010000000  0.5416530000000  0.5788280000000 1.0
C      1  0.5842410000000  0.5075060000000  0.5175340000000 1.0
C      1  0.5101640000000  0.5043650000000  0.5845000000000 1.0
C      1  0.4192220000000  0.5009900000000  0.5432590000000 1.0
C      1  0.4450210000000  0.4988940000000  0.4487500000000 1.0
C      1  0.5415080000000  0.5006910000000  0.4154760000000 1.0
C      1  0.4083670000000  0.4941730000000  0.5161150000000 1.0
C      1  0.4833650000000  0.4906120000000  0.5830370000000 1.0
C      1  0.5750620000000  0.4964720000000  0.5421300000000 1.0
C      1  0.5655180000000  0.4949640000000  0.4315070000000 1.0
C      1  0.4657880000000  0.4926010000000  0.4225560000000 1.0
C      1  0.4789140000000  0.5721150000000  0.5767430000000 1.0
C      1  0.4282660000000  0.5798610000000  0.5063100000000 1.0
C      1  0.4786050000000  0.5687350000000  0.4183290000000 1.0
C      1  0.5624220000000  0.5691650000000  0.4412140000000 1.0
C      1  0.5725000000000  0.5747390000000  0.5444660000000 1.0
C      1  0.5232560000000  0.4137530000000  0.5712140000000 1.0
C      1  0.5851040000000  0.4362840000000  0.4972980000000 1.0
C      1  0.5219050000000  0.4219950000000  0.4086230000000 1.0
C      1  0.4357980000000  0.4200340000000  0.4580160000000 1.0
C      1  0.4196010000000  0.4127600000000  0.5640570000000 1.0
C      1  0.5054280000000  0.4815460000000  0.5416990000000 1.0
C      1  0.4535520000000  0.4707080000000  0.5314840000000 1.0
C      1  0.4545840000000  0.4747660000000  0.4710540000000 1.0
C      1  0.5354850000000  0.4932770000000  0.4574750000000 1.0
C      1  0.5491620000000  0.4733840000000  0.5119610000000 1.0
C      1  0.4936800000000  0.5260130000000  0.5503470000000 1.0
C      1  0.5455340000000  0.5266350000000  0.5311340000000 1.0
C      1  0.5365920000000  0.5254230000000  0.4464100000000 1.0
C      1  0.4862910000000  0.5337660000000  0.4356820000000 1.0
C      1  0.4522690000000  0.5312480000000  0.5079910000000 1.0
C      1  0.5881100000000  0.5376150000000  0.5018490000000 1.0
C      1  0.5232950000000  0.5354350000000  0.5909440000000 1.0
C      1  0.4255800000000  0.5292680000000  0.5527030000000 1.0
C      1  0.4374160000000  0.5316740000000  0.4537120000000 1.0
C      1  0.5330060000000  0.5312390000000  0.4072300000000 1.0
C      1  0.4028360000000  0.4624580000000  0.5051390000000 1.0
C      1  0.4734210000000  0.4581130000000  0.5820040000000 1.0
C      1  0.5679230000000  0.4655990000000  0.5464100000000 1.0
C      1  0.5814080000000  0.4691720000000  0.4472920000000 1.0
C      1  0.4675230000000  0.4620020000000  0.4150640000000 1.0
C      1  0.5011250000000  0.5286890000000  0.3989270000000 1.0
C      1  0.5883850000000  0.5341250000000  0.4679700000000 1.0
C      1  0.5539340000000  0.5324260000000  0.5763090000000 1.0
C      1  0.4452080000000  0.5291950000000  0.5752180000000 1.0
C      1  0.4172450000000  0.5340420000000  0.4809940000000 1.0
C      1  0.4984110000000  0.4620650000000  0.4008220000000 1.0
C      1  0.4122610000000  0.4639150000000  0.4723940000000 1.0
C      1  0.4414590000000  0.4588850000000  0.5706830000000 1.0
C      1  0.5393460000000  0.4654350000000  0.5624570000000 1.0
C      1  0.5982580000000  0.4753740000000  0.4723500000000 1.0
C      1  0.5389080000000  0.5658640000000  0.5919660000000 1.0
C      1  0.4390710000000  0.5799020000000  0.5344580000000 1.0
C      1  0.4310080000000  0.5647040000000  0.4590000000000 1.0
C      1  0.5267140000000  0.5617410000000  0.3952980000000 1.0
C      1  0.5909350000000  0.5678540000000  0.4892640000000 1.0
C      1  0.4653290000000  0.4252340000000  0.5776780000000 1.0
C      1  0.5687530000000  0.4389590000000  0.5675490000000 1.0
C      1  0.5695200000000  0.4383900000000  0.4487170000000 1.0
C      1  0.4815890000000  0.4390130000000  0.4339680000000 1.0
C      1  0.4031030000000  0.4293180000000  0.4972220000000 1.0
C      1  0.5008430000000  0.5063660000000  0.4725880000000 1.0
C      1  0.4856950000000  0.5033030000000  0.5149390000000 1.0
C      1  0.4775980000000  0.5061130000000  0.4899640000000 1.0
C      1  0.5237930000000  0.5121500000000  0.4906110000000 1.0
C      1  0.5136860000000  0.5075760000000  0.5173440000000 1.0
END
