TITL C-2782236-320-514 -0.00201502944110305 125000 -528.484541303495 0 0 95 (C1) n - 1
REM
REM in /home/nfs/bkarasulu/CARBON/AIRSS/Generating-Clusters/REBO/Higher-Symm/SD-CG/HFTN-CG
REM
REM
REM
REM
REM
REM ./C.cell (12c818d87b63d06a65506943cc24bca4)
REM
REM compiler GCC version 9.2.1 20190827 (Red Hat 9.2.1-1)
REM options -cpp -mtune=generic -march=x86-64 -g -O0 -fpre-include=/usr/include/finclude/math-vector-fortran.h
REM seed -12643543 -278209462 1222820924 1128128812 672351217 -1031477806 1761637721 -575118280 -1941447735 620139632 -628248850 -522384433 2061709478 1758103977 626106582 -1962754707 527191736 -217430412 -1488438514 -1818659263 -162398167 2000102899 -841100877 -1778291504 -1140374893 -2122549291 1217578343 -1373271536 -1755257704 1123850861 -1493070719 1367500066 1411191189
REM
CELL 1.54180   50.00000   50.00000   50.00000   90.00000   90.00000   90.00000
LATT -1
SFAC C  
C      1  0.5209850000000  0.4793840000000  0.4319060000000 1.0
C      1  0.4272630000000  0.5215100000000  0.4810450000000 1.0
C      1  0.4796320000000  0.4203810000000  0.5128950000000 1.0
C      1  0.4824480000000  0.4812590000000  0.5696410000000 1.0
C      1  0.5203220000000  0.5220210000000  0.5679150000000 1.0
C      1  0.4844580000000  0.5196930000000  0.4284740000000 1.0
C      1  0.5733120000000  0.5179740000000  0.5207430000000 1.0
C      1  0.4288680000000  0.4845960000000  0.5205400000000 1.0
C      1  0.5729850000000  0.4830710000000  0.4788190000000 1.0
C      1  0.5179510000000  0.4282370000000  0.4790890000000 1.0
C      1  0.4792470000000  0.5664890000000  0.4799070000000 1.0
C      1  0.5179090000000  0.5706530000000  0.5187710000000 1.0
C      1  0.5118280000000  0.4686700000000  0.5714720000000 1.0
C      1  0.5730440000000  0.5127390000000  0.4672570000000 1.0
C      1  0.4654080000000  0.5739130000000  0.5102730000000 1.0
C      1  0.4896290000000  0.4667550000000  0.4268650000000 1.0
C      1  0.5133910000000  0.5331710000000  0.4275870000000 1.0
C      1  0.4887240000000  0.5338110000000  0.5729810000000 1.0
C      1  0.4278330000000  0.5135480000000  0.5337160000000 1.0
C      1  0.5722950000000  0.4879930000000  0.5323260000000 1.0
C      1  0.4298270000000  0.4917450000000  0.4680420000000 1.0
C      1  0.5316830000000  0.5687130000000  0.4901100000000 1.0
C      1  0.4648270000000  0.4298840000000  0.4891470000000 1.0
C      1  0.5299920000000  0.4341780000000  0.5083570000000 1.0
C      1  0.4961510000000  0.4667460000000  0.5348870000000 1.0
C      1  0.5405730000000  0.4922250000000  0.4567410000000 1.0
C      1  0.4534600000000  0.5395220000000  0.4938620000000 1.0
C      1  0.5060770000000  0.4552600000000  0.4614070000000 1.0
C      1  0.4930880000000  0.5411610000000  0.4610880000000 1.0
C      1  0.5059840000000  0.5454310000000  0.5388590000000 1.0
C      1  0.4616020000000  0.4902630000000  0.5439500000000 1.0
C      1  0.5417980000000  0.5107500000000  0.5440040000000 1.0
C      1  0.4630320000000  0.5115240000000  0.4539240000000 1.0
C      1  0.5464240000000  0.5373120000000  0.5123980000000 1.0
C      1  0.4543950000000  0.4638120000000  0.5108660000000 1.0
C      1  0.5459230000000  0.4642320000000  0.4874410000000 1.0
C      1  0.4441140000000  0.5552490000000  0.4678040000000 1.0
C      1  0.4727790000000  0.4519390000000  0.5443130000000 1.0
C      1  0.5545360000000  0.4653690000000  0.4484630000000 1.0
C      1  0.5538900000000  0.5637310000000  0.5314040000000 1.0
C      1  0.4482270000000  0.4361650000000  0.5294110000000 1.0
C      1  0.5534620000000  0.4385470000000  0.4676010000000 1.0
C      1  0.5311110000000  0.4440400000000  0.4449140000000 1.0
C      1  0.4667600000000  0.5504030000000  0.4456960000000 1.0
C      1  0.5314930000000  0.5573730000000  0.5538620000000 1.0
C      1  0.4425260000000  0.4631870000000  0.5490520000000 1.0
C      1  0.5561730000000  0.5374190000000  0.5511500000000 1.0
C      1  0.4388970000000  0.5325650000000  0.4457440000000 1.0
C      1  0.5106130000000  0.5688740000000  0.4678970000000 1.0
C      1  0.4645710000000  0.5104150000000  0.5702240000000 1.0
C      1  0.5709580000000  0.4678010000000  0.5092170000000 1.0
C      1  0.4877860000000  0.5728240000000  0.5352060000000 1.0
C      1  0.5053260000000  0.4354530000000  0.5281890000000 1.0
C      1  0.4862380000000  0.4291470000000  0.4666300000000 1.0
C      1  0.5348800000000  0.5105330000000  0.4290480000000 1.0
C      1  0.4661390000000  0.4906590000000  0.4285790000000 1.0
C      1  0.5337450000000  0.4907260000000  0.5701700000000 1.0
C      1  0.4291780000000  0.4700820000000  0.4900950000000 1.0
C      1  0.5711780000000  0.5328140000000  0.4902690000000 1.0
C      1  0.4266310000000  0.5354580000000  0.5123020000000 1.0
C      1  0.4822800000000  0.4691420000000  0.4975040000000 1.0
C      1  0.4953430000000  0.4836970000000  0.4666430000000 1.0
C      1  0.4662750000000  0.4986680000000  0.4829910000000 1.0
C      1  0.5166050000000  0.4726530000000  0.4986410000000 1.0
C      1  0.4818320000000  0.5361030000000  0.5071960000000 1.0
C      1  0.5151970000000  0.5293150000000  0.5031410000000 1.0
C      1  0.5084490000000  0.4914130000000  0.5357570000000 1.0
C      1  0.4916630000000  0.5174350000000  0.5342740000000 1.0
C      1  0.5084610000000  0.5148940000000  0.4624210000000 1.0
C      1  0.5351470000000  0.4968730000000  0.5152330000000 1.0
C      1  0.4641660000000  0.5075740000000  0.5160190000000 1.0
C      1  0.5351850000000  0.5091370000000  0.4832540000000 1.0
C      1  0.5603600000000  0.5244000000000  0.4439270000000 1.0
C      1  0.4412920000000  0.5610870000000  0.5251090000000 1.0
C      1  0.5214010000000  0.4450410000000  0.5566430000000 1.0
C      1  0.4403830000000  0.5248700000000  0.5568980000000 1.0
C      1  0.5586130000000  0.4763640000000  0.5552390000000 1.0
C      1  0.4415130000000  0.4791570000000  0.4447230000000 1.0
C      1  0.5555800000000  0.5577140000000  0.4785400000000 1.0
C      1  0.4429100000000  0.4441950000000  0.4779770000000 1.0
C      1  0.5536890000000  0.4436200000000  0.5207940000000 1.0
C      1  0.4742040000000  0.4435620000000  0.4405910000000 1.0
C      1  0.5241970000000  0.5565150000000  0.4413450000000 1.0
C      1  0.4748050000000  0.5582180000000  0.5602000000000 1.0
C      1  0.5029090000000  0.4065820000000  0.5004200000000 1.0
C      1  0.5000950000000  0.4956270000000  0.4117500000000 1.0
C      1  0.4083580000000  0.5021590000000  0.5007030000000 1.0
C      1  0.4954840000000  0.5870490000000  0.5005680000000 1.0
C      1  0.4992680000000  0.5041830000000  0.5865370000000 1.0
C      1  0.5921340000000  0.5002700000000  0.4999360000000 1.0
C      1  0.5493510000000  0.4492590000000  0.5488820000000 1.0
C      1  0.5518470000000  0.5517470000000  0.4499670000000 1.0
C      1  0.4475750000000  0.5526130000000  0.5524670000000 1.0
C      1  0.4475740000000  0.4512710000000  0.4498100000000 1.0
C      1  0.4993110000000  0.5014890000000  0.4984640000000 1.0
END
