TITL C-2782237-5345-1071 0.00140646730495352 125000 -329.006757398582 0 0 62 (C1) n - 1
REM
REM in /home/nfs/bkarasulu/CARBON/AIRSS/Generating-Clusters/REBO/Higher-Symm/SD-CG/HFTN-CG
REM
REM
REM
REM
REM
REM ./C.cell (12c818d87b63d06a65506943cc24bca4)
REM
REM compiler GCC version 9.2.1 20190827 (Red Hat 9.2.1-1)
REM options -cpp -mtune=generic -march=x86-64 -g -O0 -fpre-include=/usr/include/finclude/math-vector-fortran.h
REM seed 1289415558 303431691 1405354943 -1195651041 625001084 14226954 -1757561185 58793063 -421580691 133825758 -1723577006 -1314378146 -1104232465 -1507106895 379490393 611634961 -1393397312 -1776394089 1799406783 985154420 -167967043 895991803 205873836 -243789213 -620191448 2136578227 -1062660344 2054515610 1840056768 1919960227 1846799476 -239233579 183634260
REM
CELL 1.54180   50.00000   50.00000   50.00000   90.00000   90.00000   90.00000
LATT -1
SFAC C  
C      1  0.5013720000000  0.4278470000000  0.4736400000000 1.0
C      1  0.4310720000000  0.4710240000000  0.4557400000000 1.0
C      1  0.4773780000000  0.5447550000000  0.4510780000000 1.0
C      1  0.5328980000000  0.5559060000000  0.4782410000000 1.0
C      1  0.5568520000000  0.4949810000000  0.4526060000000 1.0
C      1  0.5088780000000  0.5606010000000  0.5594360000000 1.0
C      1  0.4421180000000  0.5219620000000  0.5293660000000 1.0
C      1  0.4604750000000  0.4471930000000  0.5400720000000 1.0
C      1  0.5297040000000  0.4452930000000  0.5575740000000 1.0
C      1  0.5840120000000  0.5126720000000  0.5365430000000 1.0
C      1  0.4530680000000  0.5525960000000  0.4740070000000 1.0
C      1  0.5350080000000  0.5791810000000  0.5033150000000 1.0
C      1  0.5658060000000  0.4939030000000  0.4855110000000 1.0
C      1  0.5188810000000  0.4224520000000  0.5027550000000 1.0
C      1  0.4322660000000  0.4561510000000  0.4866590000000 1.0
C      1  0.4398610000000  0.4438120000000  0.5127100000000 1.0
C      1  0.5379180000000  0.4316430000000  0.5272380000000 1.0
C      1  0.5814180000000  0.5161410000000  0.5023920000000 1.0
C      1  0.5178580000000  0.5722700000000  0.5286060000000 1.0
C      1  0.4402530000000  0.5407970000000  0.5006020000000 1.0
C      1  0.4638620000000  0.4217510000000  0.5099670000000 1.0
C      1  0.4266760000000  0.5116320000000  0.4948730000000 1.0
C      1  0.4904420000000  0.5725160000000  0.5114290000000 1.0
C      1  0.5767930000000  0.5454530000000  0.4966120000000 1.0
C      1  0.5609130000000  0.4465740000000  0.5121600000000 1.0
C      1  0.4724120000000  0.5677190000000  0.4957130000000 1.0
C      1  0.4244030000000  0.4877250000000  0.4906710000000 1.0
C      1  0.4877140000000  0.4163050000000  0.5091110000000 1.0
C      1  0.5672140000000  0.4647860000000  0.4969670000000 1.0
C      1  0.5644280000000  0.5663170000000  0.5002510000000 1.0
C      1  0.5018640000000  0.5504080000000  0.4686860000000 1.0
C      1  0.5260260000000  0.4900760000000  0.4466430000000 1.0
C      1  0.5057840000000  0.4593530000000  0.4618670000000 1.0
C      1  0.4619320000000  0.4747050000000  0.4416980000000 1.0
C      1  0.4763960000000  0.5130590000000  0.4384300000000 1.0
C      1  0.5099330000000  0.4721390000000  0.5570990000000 1.0
C      1  0.5603950000000  0.4915870000000  0.5258120000000 1.0
C      1  0.5087270000000  0.5265960000000  0.5600060000000 1.0
C      1  0.4721060000000  0.5259680000000  0.5446560000000 1.0
C      1  0.4683830000000  0.4794460000000  0.5433110000000 1.0
C      1  0.4922790000000  0.4793960000000  0.4815730000000 1.0
C      1  0.4664480000000  0.4863270000000  0.4726430000000 1.0
C      1  0.4635370000000  0.5142580000000  0.4761120000000 1.0
C      1  0.4894550000000  0.5251470000000  0.4836570000000 1.0
C      1  0.5068890000000  0.5030530000000  0.4878500000000 1.0
C      1  0.5211360000000  0.5199730000000  0.5225940000000 1.0
C      1  0.4930970000000  0.5171270000000  0.5226120000000 1.0
C      1  0.4870240000000  0.4896380000000  0.5198710000000 1.0
C      1  0.5111450000000  0.4757060000000  0.5166290000000 1.0
C      1  0.5333790000000  0.4941380000000  0.5191600000000 1.0
C      1  0.5103030000000  0.4494400000000  0.5309810000000 1.0
C      1  0.4373670000000  0.4699310000000  0.5344350000000 1.0
C      1  0.4564190000000  0.5515810000000  0.5286110000000 1.0
C      1  0.5305060000000  0.5434480000000  0.5396520000000 1.0
C      1  0.5930830000000  0.4868640000000  0.5175010000000 1.0
C      1  0.5116600000000  0.5813190000000  0.4786840000000 1.0
C      1  0.4480030000000  0.5284340000000  0.4503120000000 1.0
C      1  0.4544700000000  0.4485630000000  0.4622840000000 1.0
C      1  0.5303990000000  0.4425410000000  0.4777020000000 1.0
C      1  0.5345030000000  0.5019360000000  0.4773700000000 1.0
C      1  0.4904280000000  0.4999630000000  0.5584750000000 1.0
C      1  0.4943630000000  0.4850160000000  0.4420730000000 1.0
END
