TITL C-2782225-7408-982 0.000146452630414583 125000 -347.472423796007 0 0 62 (C2) n - 1
REM
REM in /home/nfs/bkarasulu/CARBON/AIRSS/Generating-Clusters/REBO/Higher-Symm/SD-CG/HFTN-CG
REM
REM
REM
REM
REM
REM ./C.cell (12c818d87b63d06a65506943cc24bca4)
REM
REM compiler GCC version 9.2.1 20190827 (Red Hat 9.2.1-1)
REM options -cpp -mtune=generic -march=x86-64 -g -O0 -fpre-include=/usr/include/finclude/math-vector-fortran.h
REM seed -1269763631 1354299155 980367528 -1707132347 -1563799392 326881070 -1057353555 964491944 54339416 2059596606 -42820992 -1362009549 292911689 1616069825 -1079431812 -1161863327 -639929246 1111627766 -657166336 -192540388 1589908906 -202277174 252051008 1325438816 1222961788 -1486987760 -680490762 1875829694 340874017 915923180 1761093508 207975093 910242044
REM
CELL 1.54180   50.00000   50.00000   50.00000   90.00000   90.00000   90.00000
LATT -1
SFAC C  
C      1  0.4616930000000  0.5162020000000  0.4594570000000 1.0
C      1  0.4616420000000  0.4838300000000  0.5405100000000 1.0
C      1  0.4581520000000  0.5166060000000  0.5320540000000 1.0
C      1  0.4581670000000  0.4834290000000  0.4679100000000 1.0
C      1  0.4870100000000  0.5168710000000  0.4377490000000 1.0
C      1  0.4869380000000  0.4831390000000  0.5622410000000 1.0
C      1  0.4806260000000  0.5150960000000  0.5560340000000 1.0
C      1  0.4806640000000  0.4849190000000  0.4439500000000 1.0
C      1  0.5114150000000  0.4857030000000  0.5180970000000 1.0
C      1  0.5114440000000  0.5142850000000  0.4819150000000 1.0
C      1  0.5117940000000  0.4846790000000  0.4872950000000 1.0
C      1  0.5117960000000  0.5153090000000  0.5127170000000 1.0
C      1  0.5509950000000  0.4720240000000  0.5506100000000 1.0
C      1  0.5510660000000  0.5279300000000  0.4494380000000 1.0
C      1  0.5449920000000  0.4804480000000  0.4571570000000 1.0
C      1  0.5449700000000  0.5195110000000  0.5428850000000 1.0
C      1  0.5448970000000  0.4424310000000  0.4922180000000 1.0
C      1  0.5449400000000  0.5575290000000  0.5078240000000 1.0
C      1  0.5644400000000  0.4316130000000  0.5045590000000 1.0
C      1  0.5645040000000  0.5683290000000  0.4955010000000 1.0
C      1  0.4275790000000  0.5492830000000  0.5129390000000 1.0
C      1  0.4275470000000  0.4507800000000  0.4869960000000 1.0
C      1  0.4299030000000  0.5453790000000  0.4832690000000 1.0
C      1  0.4298480000000  0.4546810000000  0.5166690000000 1.0
C      1  0.4953580000000  0.5494030000000  0.4350890000000 1.0
C      1  0.4952560000000  0.4506000000000  0.5649080000000 1.0
C      1  0.4927040000000  0.5454350000000  0.5603320000000 1.0
C      1  0.4927190000000  0.4545700000000  0.4396620000000 1.0
C      1  0.5203650000000  0.4813310000000  0.5626730000000 1.0
C      1  0.5204390000000  0.5186490000000  0.4373480000000 1.0
C      1  0.5140310000000  0.4880830000000  0.4439290000000 1.0
C      1  0.5139910000000  0.5119030000000  0.5560850000000 1.0
C      1  0.4743820000000  0.5472560000000  0.4604330000000 1.0
C      1  0.4743050000000  0.4527660000000  0.5395460000000 1.0
C      1  0.4727290000000  0.5472930000000  0.5338280000000 1.0
C      1  0.4727190000000  0.4527290000000  0.4661490000000 1.0
C      1  0.4938910000000  0.5500230000000  0.4840040000000 1.0
C      1  0.4938330000000  0.4499810000000  0.5159910000000 1.0
C      1  0.4928450000000  0.5502790000000  0.5107800000000 1.0
C      1  0.4928100000000  0.4497260000000  0.4892150000000 1.0
C      1  0.4349560000000  0.4856760000000  0.5225460000000 1.0
C      1  0.4349900000000  0.5143790000000  0.4773960000000 1.0
C      1  0.4331490000000  0.4832810000000  0.4890510000000 1.0
C      1  0.4331540000000  0.5167760000000  0.5108890000000 1.0
C      1  0.4464510000000  0.4392240000000  0.5325490000000 1.0
C      1  0.4465340000000  0.5608220000000  0.4674030000000 1.0
C      1  0.4451900000000  0.4377400000000  0.4705720000000 1.0
C      1  0.4452180000000  0.5623060000000  0.5293800000000 1.0
C      1  0.5498670000000  0.4756450000000  0.5167290000000 1.0
C      1  0.5499040000000  0.5243100000000  0.4833180000000 1.0
C      1  0.5512050000000  0.4901780000000  0.4859150000000 1.0
C      1  0.5512010000000  0.5097760000000  0.5141340000000 1.0
C      1  0.5244350000000  0.4556840000000  0.4459210000000 1.0
C      1  0.5244240000000  0.5442930000000  0.5541020000000 1.0
C      1  0.5275970000000  0.4483160000000  0.5584670000000 1.0
C      1  0.5276950000000  0.5516580000000  0.4415600000000 1.0
C      1  0.5217430000000  0.5447220000000  0.5224360000000 1.0
C      1  0.5217240000000  0.4552570000000  0.4775850000000 1.0
C      1  0.5234440000000  0.5435060000000  0.4732270000000 1.0
C      1  0.5233810000000  0.4564720000000  0.5267960000000 1.0
C      1  0.5596220000000  0.4995490000000  0.5595760000000 1.0
C      1  0.5596760000000  0.5003970000000  0.4404800000000 1.0
END
