TITL C-2782230-7391-350 -1.88822414125904e-05 125000 -872.203586437576 0 0 152 (C1) n - 1
REM
REM in /home/nfs/bkarasulu/CARBON/AIRSS/Generating-Clusters/REBO/Higher-Symm/SD-CG/HFTN-CG
REM
REM
REM
REM
REM
REM ./C.cell (12c818d87b63d06a65506943cc24bca4)
REM
REM compiler GCC version 9.2.1 20190827 (Red Hat 9.2.1-1)
REM options -cpp -mtune=generic -march=x86-64 -g -O0 -fpre-include=/usr/include/finclude/math-vector-fortran.h
REM seed -1275621326 -224480662 524722226 1742851921 -1428737078 -1250905179 1162256781 -1656493447 -1897171481 -361740034 1636932242 -1806067487 1127274208 -1734505490 -247212234 -805182314 1543325290 1365694011 1906729364 -1455907597 -1865748455 1849531102 -392211666 444738 -2017054909 -452206109 1269598421 1083542902 -994864875 2018320055 -2021084263 -1981740302 -1356462269
REM
CELL 1.54180   50.00000   50.00000   50.00000   90.00000   90.00000   90.00000
LATT -1
SFAC C  
C      1  0.3913260000000  0.5477450000000  0.4849850000000 1.0
C      1  0.3932470000000  0.5516550000000  0.5135210000000 1.0
C      1  0.4107950000000  0.4897430000000  0.5423300000000 1.0
C      1  0.4087640000000  0.4523590000000  0.5099010000000 1.0
C      1  0.4077580000000  0.4636010000000  0.4628770000000 1.0
C      1  0.4030010000000  0.5108360000000  0.4582190000000 1.0
C      1  0.6013170000000  0.5373980000000  0.4836600000000 1.0
C      1  0.5947530000000  0.5290690000000  0.5231560000000 1.0
C      1  0.5997980000000  0.4956840000000  0.5299400000000 1.0
C      1  0.5892170000000  0.4483680000000  0.5183970000000 1.0
C      1  0.5917340000000  0.4638540000000  0.4725670000000 1.0
C      1  0.6065760000000  0.5007540000000  0.4688540000000 1.0
C      1  0.5326170000000  0.5415770000000  0.4076420000000 1.0
C      1  0.5140570000000  0.5939660000000  0.4798600000000 1.0
C      1  0.5280830000000  0.5599870000000  0.5778410000000 1.0
C      1  0.5185830000000  0.4638850000000  0.5802110000000 1.0
C      1  0.5221320000000  0.4122250000000  0.5122660000000 1.0
C      1  0.5322720000000  0.4609930000000  0.4049690000000 1.0
C      1  0.4805150000000  0.5248730000000  0.4219110000000 1.0
C      1  0.4825770000000  0.5980930000000  0.4866750000000 1.0
C      1  0.4810240000000  0.5594930000000  0.5812220000000 1.0
C      1  0.4700060000000  0.4564340000000  0.5968170000000 1.0
C      1  0.4797830000000  0.4077020000000  0.5123740000000 1.0
C      1  0.4781950000000  0.4455820000000  0.4217480000000 1.0
C      1  0.4760220000000  0.4942490000000  0.4325130000000 1.0
C      1  0.4740260000000  0.5523740000000  0.4557000000000 1.0
C      1  0.4809010000000  0.5599790000000  0.5300730000000 1.0
C      1  0.4901950000000  0.5066120000000  0.5825560000000 1.0
C      1  0.4823240000000  0.4345290000000  0.5531340000000 1.0
C      1  0.4804330000000  0.4408220000000  0.4677260000000 1.0
C      1  0.5194880000000  0.4947790000000  0.4207090000000 1.0
C      1  0.5151040000000  0.5626100000000  0.4661890000000 1.0
C      1  0.5191370000000  0.5710050000000  0.5300660000000 1.0
C      1  0.5353930000000  0.5022220000000  0.5556020000000 1.0
C      1  0.5212990000000  0.4400040000000  0.5483720000000 1.0
C      1  0.5200320000000  0.4411690000000  0.4676510000000 1.0
C      1  0.5458980000000  0.4363350000000  0.5704780000000 1.0
C      1  0.5466870000000  0.4117990000000  0.4710660000000 1.0
C      1  0.5521730000000  0.4858900000000  0.4170960000000 1.0
C      1  0.5437090000000  0.5645550000000  0.4383180000000 1.0
C      1  0.5443540000000  0.5898470000000  0.5222210000000 1.0
C      1  0.5482630000000  0.5202810000000  0.5907210000000 1.0
C      1  0.4520640000000  0.4334100000000  0.5655950000000 1.0
C      1  0.4585690000000  0.4089100000000  0.4765990000000 1.0
C      1  0.4510230000000  0.4785930000000  0.4056120000000 1.0
C      1  0.4545580000000  0.5666420000000  0.4337690000000 1.0
C      1  0.4549160000000  0.5895890000000  0.5258440000000 1.0
C      1  0.4610060000000  0.5213520000000  0.5888800000000 1.0
C      1  0.5631140000000  0.5791880000000  0.5435830000000 1.0
C      1  0.5524200000000  0.4944090000000  0.6002680000000 1.0
C      1  0.5585800000000  0.4261330000000  0.5442390000000 1.0
C      1  0.5472120000000  0.4223070000000  0.4453160000000 1.0
C      1  0.5677080000000  0.5102890000000  0.4071350000000 1.0
C      1  0.5515070000000  0.5857920000000  0.4535310000000 1.0
C      1  0.4405980000000  0.5704650000000  0.5455490000000 1.0
C      1  0.4404870000000  0.4991570000000  0.5915800000000 1.0
C      1  0.4385450000000  0.4211730000000  0.5410310000000 1.0
C      1  0.4471100000000  0.4196220000000  0.4521660000000 1.0
C      1  0.4369160000000  0.5037800000000  0.4082850000000 1.0
C      1  0.4495640000000  0.5860380000000  0.4600040000000 1.0
C      1  0.5165360000000  0.5633790000000  0.4229250000000 1.0
C      1  0.5120910000000  0.5983630000000  0.5133540000000 1.0
C      1  0.5252900000000  0.5372260000000  0.5959790000000 1.0
C      1  0.5133270000000  0.4317540000000  0.5806530000000 1.0
C      1  0.5197410000000  0.4046330000000  0.4838460000000 1.0
C      1  0.5039950000000  0.4755850000000  0.3981340000000 1.0
C      1  0.4867930000000  0.5579580000000  0.4256090000000 1.0
C      1  0.4781740000000  0.6020650000000  0.5163930000000 1.0
C      1  0.4915230000000  0.5347520000000  0.5991700000000 1.0
C      1  0.4798470000000  0.4283040000000  0.5855450000000 1.0
C      1  0.4887530000000  0.4030770000000  0.4843190000000 1.0
C      1  0.4772250000000  0.4666500000000  0.4028520000000 1.0
C      1  0.4414330000000  0.5646130000000  0.5065020000000 1.0
C      1  0.4440660000000  0.5219520000000  0.5590390000000 1.0
C      1  0.4352990000000  0.4595630000000  0.5516720000000 1.0
C      1  0.4347570000000  0.4309040000000  0.4884180000000 1.0
C      1  0.4345060000000  0.4744160000000  0.4352800000000 1.0
C      1  0.4334560000000  0.5440900000000  0.4491570000000 1.0
C      1  0.5625240000000  0.5656450000000  0.5059650000000 1.0
C      1  0.5660790000000  0.5262350000000  0.5636140000000 1.0
C      1  0.5658130000000  0.4622290000000  0.5597260000000 1.0
C      1  0.5645030000000  0.4291810000000  0.4906980000000 1.0
C      1  0.5662580000000  0.4761850000000  0.4440040000000 1.0
C      1  0.5584780000000  0.5367060000000  0.4499800000000 1.0
C      1  0.5909150000000  0.4398660000000  0.4793630000000 1.0
C      1  0.5929770000000  0.4956400000000  0.4487230000000 1.0
C      1  0.5865800000000  0.5447070000000  0.4652540000000 1.0
C      1  0.5909100000000  0.5562580000000  0.5173490000000 1.0
C      1  0.5943870000000  0.5096080000000  0.5579930000000 1.0
C      1  0.5909510000000  0.4495300000000  0.5436040000000 1.0
C      1  0.4097360000000  0.4402220000000  0.4718030000000 1.0
C      1  0.4078840000000  0.4939480000000  0.4372590000000 1.0
C      1  0.4122060000000  0.5592520000000  0.4693280000000 1.0
C      1  0.4159560000000  0.5600180000000  0.5284780000000 1.0
C      1  0.4153860000000  0.5085660000000  0.5583470000000 1.0
C      1  0.4098320000000  0.4504860000000  0.5348970000000 1.0
C      1  0.5155550000000  0.4720600000000  0.4996490000000 1.0
C      1  0.5146160000000  0.4866380000000  0.4714240000000 1.0
C      1  0.5143300000000  0.5173590000000  0.4741030000000 1.0
C      1  0.5210520000000  0.5303790000000  0.4998340000000 1.0
C      1  0.5147110000000  0.5179780000000  0.5253790000000 1.0
C      1  0.5124760000000  0.4862030000000  0.5270140000000 1.0
C      1  0.4833790000000  0.4668420000000  0.5078580000000 1.0
C      1  0.4826520000000  0.4792770000000  0.4782840000000 1.0
C      1  0.4832300000000  0.5103130000000  0.4783140000000 1.0
C      1  0.4771920000000  0.5234830000000  0.5041660000000 1.0
C      1  0.4825050000000  0.5118890000000  0.5314870000000 1.0
C      1  0.4790900000000  0.4814090000000  0.5342400000000 1.0
C      1  0.4722170000000  0.4423100000000  0.4944000000000 1.0
C      1  0.4712210000000  0.4721340000000  0.4505130000000 1.0
C      1  0.4658990000000  0.5230870000000  0.4582710000000 1.0
C      1  0.4789910000000  0.5511060000000  0.5049370000000 1.0
C      1  0.4834310000000  0.5279700000000  0.5569260000000 1.0
C      1  0.4742350000000  0.4657840000000  0.5582930000000 1.0
C      1  0.5288910000000  0.4466100000000  0.4933590000000 1.0
C      1  0.5210520000000  0.4738870000000  0.4447910000000 1.0
C      1  0.5203380000000  0.5357270000000  0.4514560000000 1.0
C      1  0.5236440000000  0.5606360000000  0.4994040000000 1.0
C      1  0.5291000000000  0.5316550000000  0.5497690000000 1.0
C      1  0.5282590000000  0.4731930000000  0.5499400000000 1.0
C      1  0.4573960000000  0.5506170000000  0.5608880000000 1.0
C      1  0.4476670000000  0.4721170000000  0.5789340000000 1.0
C      1  0.4523430000000  0.4221990000000  0.5137320000000 1.0
C      1  0.4519830000000  0.4463350000000  0.4391490000000 1.0
C      1  0.4482760000000  0.5225930000000  0.4290760000000 1.0
C      1  0.4336410000000  0.5757530000000  0.4797030000000 1.0
C      1  0.5527870000000  0.5548470000000  0.5584340000000 1.0
C      1  0.5484040000000  0.4731240000000  0.5843910000000 1.0
C      1  0.5471370000000  0.4299070000000  0.5168160000000 1.0
C      1  0.5446940000000  0.4513230000000  0.4352800000000 1.0
C      1  0.5584170000000  0.5340050000000  0.4172310000000 1.0
C      1  0.5452100000000  0.5821950000000  0.4833560000000 1.0
C      1  0.5692270000000  0.4805710000000  0.5310550000000 1.0
C      1  0.5647570000000  0.4632460000000  0.5019190000000 1.0
C      1  0.5659880000000  0.4860130000000  0.4765570000000 1.0
C      1  0.5601680000000  0.5178870000000  0.4785010000000 1.0
C      1  0.5608330000000  0.5317390000000  0.5024970000000 1.0
C      1  0.5649290000000  0.5144150000000  0.5315750000000 1.0
C      1  0.4354650000000  0.4789100000000  0.5233240000000 1.0
C      1  0.4340710000000  0.4650440000000  0.4928580000000 1.0
C      1  0.4328260000000  0.4861320000000  0.4674590000000 1.0
C      1  0.4314170000000  0.5196180000000  0.4737970000000 1.0
C      1  0.4378930000000  0.5306160000000  0.5053440000000 1.0
C      1  0.4395140000000  0.5126420000000  0.5265350000000 1.0
C      1  0.4997270000000  0.4207550000000  0.5322070000000 1.0
C      1  0.5034770000000  0.5565850000000  0.5553400000000 1.0
C      1  0.4917300000000  0.4778150000000  0.5835370000000 1.0
C      1  0.5117200000000  0.5234400000000  0.4237980000000 1.0
C      1  0.4846880000000  0.5668560000000  0.4799660000000 1.0
C      1  0.5011740000000  0.4472250000000  0.4416530000000 1.0
C      1  0.3818750000000  0.5241180000000  0.4719420000000 1.0
C      1  0.6098240000000  0.5092510000000  0.5003290000000 1.0
END
