TITL C-2782231-7322-1230 -0.00394367078652046 125000 -801.252439128141 0 0 139 (C1) n - 1
REM
REM in /home/nfs/bkarasulu/CARBON/AIRSS/Generating-Clusters/REBO/Higher-Symm/SD-CG/HFTN-CG
REM
REM
REM
REM
REM
REM ./C.cell (12c818d87b63d06a65506943cc24bca4)
REM
REM compiler GCC version 9.2.1 20190827 (Red Hat 9.2.1-1)
REM options -cpp -mtune=generic -march=x86-64 -g -O0 -fpre-include=/usr/include/finclude/math-vector-fortran.h
REM seed -1346535350 -346353064 1247929775 -1867977874 2040219487 -1400431216 -102034292 1164619203 -411329001 -2145431797 1215513262 -1093869563 -829515949 -1554702473 -952198598 -1326047489 -666339058 606251133 -316043202 141809121 1717266324 1940484370 -37026572 235510492 1937058353 -427918521 618531367 1446557490 -865113519 -1057616567 -290721387 -975823257 -596070385
REM
CELL 1.54180   50.00000   50.00000   50.00000   90.00000   90.00000   90.00000
LATT -1
SFAC C  
C      1  0.4692830000000  0.4701590000000  0.5170960000000 1.0
C      1  0.5283370000000  0.5117040000000  0.5242130000000 1.0
C      1  0.4676800000000  0.5242330000000  0.4783770000000 1.0
C      1  0.5332050000000  0.4765750000000  0.4845710000000 1.0
C      1  0.4589100000000  0.5509430000000  0.5285860000000 1.0
C      1  0.5401450000000  0.5429960000000  0.4411860000000 1.0
C      1  0.4506430000000  0.4526500000000  0.4643720000000 1.0
C      1  0.5458480000000  0.4661100000000  0.5546010000000 1.0
C      1  0.5945060000000  0.4671700000000  0.5277390000000 1.0
C      1  0.4077810000000  0.5278450000000  0.5415450000000 1.0
C      1  0.5929600000000  0.5294100000000  0.4734330000000 1.0
C      1  0.4009880000000  0.4720570000000  0.4557860000000 1.0
C      1  0.5134170000000  0.5882460000000  0.5376740000000 1.0
C      1  0.4877730000000  0.5420120000000  0.4103420000000 1.0
C      1  0.5094700000000  0.4144260000000  0.4696560000000 1.0
C      1  0.4930150000000  0.4569440000000  0.5829060000000 1.0
C      1  0.4975270000000  0.4492940000000  0.5537270000000 1.0
C      1  0.5113850000000  0.5592470000000  0.5489180000000 1.0
C      1  0.4863120000000  0.5547460000000  0.4397160000000 1.0
C      1  0.5019490000000  0.4436090000000  0.4544370000000 1.0
C      1  0.4883970000000  0.4164870000000  0.4917220000000 1.0
C      1  0.5283070000000  0.5051230000000  0.5899610000000 1.0
C      1  0.4612080000000  0.5978210000000  0.4982040000000 1.0
C      1  0.5231650000000  0.4974150000000  0.4164100000000 1.0
C      1  0.4743900000000  0.5056590000000  0.5795550000000 1.0
C      1  0.5384030000000  0.5804330000000  0.4890100000000 1.0
C      1  0.4652800000000  0.4944710000000  0.4168600000000 1.0
C      1  0.5435100000000  0.4102560000000  0.5125490000000 1.0
C      1  0.3956400000000  0.5047560000000  0.4539970000000 1.0
C      1  0.5994560000000  0.4520190000000  0.5050250000000 1.0
C      1  0.3998240000000  0.5056770000000  0.5586700000000 1.0
C      1  0.6105890000000  0.5419600000000  0.4997730000000 1.0
C      1  0.5095910000000  0.4532660000000  0.4848220000000 1.0
C      1  0.4905570000000  0.4742280000000  0.5374960000000 1.0
C      1  0.5284200000000  0.5440880000000  0.5254810000000 1.0
C      1  0.4682800000000  0.5282280000000  0.4450350000000 1.0
C      1  0.4863190000000  0.5395850000000  0.5017740000000 1.0
C      1  0.4972690000000  0.5158440000000  0.4528770000000 1.0
C      1  0.4796290000000  0.4554520000000  0.4917870000000 1.0
C      1  0.5071950000000  0.4980140000000  0.5452330000000 1.0
C      1  0.5544110000000  0.4845210000000  0.5302920000000 1.0
C      1  0.4475690000000  0.5257490000000  0.5123320000000 1.0
C      1  0.5732680000000  0.5066140000000  0.4583480000000 1.0
C      1  0.4416360000000  0.4782010000000  0.4812200000000 1.0
C      1  0.4589610000000  0.4434830000000  0.3974080000000 1.0
C      1  0.5060900000000  0.4009150000000  0.5434320000000 1.0
C      1  0.4577340000000  0.5556160000000  0.5959130000000 1.0
C      1  0.5222900000000  0.6014040000000  0.4468170000000 1.0
C      1  0.5588510000000  0.5575540000000  0.4853840000000 1.0
C      1  0.4475400000000  0.4942850000000  0.4451140000000 1.0
C      1  0.5608380000000  0.4385550000000  0.5044350000000 1.0
C      1  0.4485070000000  0.5079320000000  0.5603710000000 1.0
C      1  0.6047370000000  0.5515050000000  0.5318140000000 1.0
C      1  0.4079580000000  0.5294880000000  0.4339120000000 1.0
C      1  0.6015260000000  0.4520500000000  0.4720740000000 1.0
C      1  0.4037180000000  0.4738350000000  0.5528210000000 1.0
C      1  0.4722990000000  0.4761220000000  0.5867810000000 1.0
C      1  0.5351860000000  0.5892030000000  0.5158880000000 1.0
C      1  0.4672620000000  0.5229580000000  0.4055380000000 1.0
C      1  0.5384630000000  0.4117650000000  0.4826280000000 1.0
C      1  0.5001500000000  0.3717050000000  0.4342670000000 1.0
C      1  0.5229680000000  0.4354480000000  0.6221640000000 1.0
C      1  0.4827200000000  0.6295830000000  0.5531540000000 1.0
C      1  0.5373790000000  0.5466210000000  0.4094400000000 1.0
C      1  0.5043780000000  0.3910860000000  0.4503220000000 1.0
C      1  0.5083920000000  0.4459080000000  0.6030600000000 1.0
C      1  0.4976820000000  0.6094340000000  0.5456090000000 1.0
C      1  0.5127290000000  0.5449640000000  0.3977700000000 1.0
C      1  0.5161470000000  0.5809200000000  0.4690350000000 1.0
C      1  0.4704280000000  0.4620360000000  0.4135840000000 1.0
C      1  0.5302220000000  0.4131230000000  0.5370410000000 1.0
C      1  0.4754070000000  0.5388180000000  0.5785310000000 1.0
C      1  0.4910760000000  0.5244980000000  0.5308880000000 1.0
C      1  0.5073890000000  0.5281360000000  0.4800270000000 1.0
C      1  0.4788080000000  0.4905780000000  0.4541110000000 1.0
C      1  0.5286570000000  0.4471030000000  0.5114240000000 1.0
C      1  0.5514700000000  0.5251520000000  0.5904200000000 1.0
C      1  0.4488790000000  0.5896490000000  0.4711240000000 1.0
C      1  0.5472990000000  0.4807550000000  0.4246590000000 1.0
C      1  0.4628880000000  0.4186060000000  0.5151350000000 1.0
C      1  0.5276580000000  0.4879200000000  0.5672920000000 1.0
C      1  0.4757710000000  0.5690420000000  0.5071370000000 1.0
C      1  0.5187640000000  0.5197550000000  0.4324920000000 1.0
C      1  0.4595400000000  0.4301280000000  0.4832650000000 1.0
C      1  0.4876450000000  0.5861700000000  0.4802200000000 1.0
C      1  0.4988370000000  0.4779690000000  0.4137280000000 1.0
C      1  0.5007680000000  0.4307450000000  0.5166640000000 1.0
C      1  0.5022730000000  0.5230520000000  0.5884070000000 1.0
C      1  0.5909790000000  0.5438820000000  0.5553250000000 1.0
C      1  0.4070390000000  0.5605880000000  0.4473790000000 1.0
C      1  0.5841080000000  0.4596850000000  0.4500530000000 1.0
C      1  0.4169560000000  0.4489150000000  0.5417710000000 1.0
C      1  0.5264480000000  0.5399700000000  0.5711160000000 1.0
C      1  0.4712190000000  0.5784840000000  0.4525650000000 1.0
C      1  0.5193290000000  0.4611100000000  0.4320120000000 1.0
C      1  0.4816070000000  0.4226650000000  0.5425470000000 1.0
C      1  0.5712980000000  0.4840750000000  0.4391650000000 1.0
C      1  0.4313170000000  0.4248470000000  0.5223100000000 1.0
C      1  0.5752440000000  0.5195330000000  0.5710950000000 1.0
C      1  0.4227340000000  0.5727060000000  0.4738530000000 1.0
C      1  0.5377100000000  0.4602480000000  0.4574180000000 1.0
C      1  0.4489970000000  0.4530800000000  0.5298680000000 1.0
C      1  0.5464830000000  0.5202110000000  0.5516010000000 1.0
C      1  0.4480950000000  0.5498200000000  0.4717320000000 1.0
C      1  0.5483940000000  0.5693780000000  0.5345010000000 1.0
C      1  0.4411110000000  0.5279360000000  0.4245090000000 1.0
C      1  0.5618260000000  0.4201490000000  0.4691020000000 1.0
C      1  0.4460880000000  0.4671810000000  0.5813340000000 1.0
C      1  0.5599260000000  0.4433330000000  0.4529130000000 1.0
C      1  0.4435690000000  0.4457350000000  0.5626680000000 1.0
C      1  0.5610850000000  0.5504250000000  0.5514040000000 1.0
C      1  0.4379400000000  0.5537730000000  0.4428940000000 1.0
C      1  0.5790280000000  0.4946320000000  0.4872400000000 1.0
C      1  0.4301780000000  0.4828510000000  0.5114720000000 1.0
C      1  0.5671980000000  0.5103550000000  0.5150290000000 1.0
C      1  0.4250720000000  0.5259000000000  0.4936390000000 1.0
C      1  0.5778980000000  0.4589470000000  0.5497050000000 1.0
C      1  0.4355230000000  0.5361310000000  0.5485630000000 1.0
C      1  0.5631070000000  0.5390730000000  0.4597000000000 1.0
C      1  0.4196180000000  0.4559280000000  0.4564280000000 1.0
C      1  0.5271920000000  0.4442080000000  0.5448410000000 1.0
C      1  0.4820620000000  0.5479370000000  0.5510570000000 1.0
C      1  0.5134020000000  0.5521440000000  0.4567020000000 1.0
C      1  0.4751580000000  0.4592880000000  0.4463220000000 1.0
C      1  0.4255890000000  0.4895710000000  0.5735950000000 1.0
C      1  0.5830070000000  0.5583530000000  0.5073630000000 1.0
C      1  0.4191330000000  0.4974340000000  0.4309030000000 1.0
C      1  0.5871250000000  0.4257990000000  0.4882340000000 1.0
C      1  0.5588740000000  0.4711850000000  0.5012270000000 1.0
C      1  0.4467280000000  0.5014770000000  0.5275740000000 1.0
C      1  0.5572980000000  0.5376830000000  0.5118380000000 1.0
C      1  0.4260550000000  0.5053640000000  0.4693090000000 1.0
C      1  0.5959930000000  0.4948920000000  0.5233190000000 1.0
C      1  0.4020620000000  0.5212370000000  0.5130320000000 1.0
C      1  0.6078970000000  0.5096790000000  0.4971100000000 1.0
C      1  0.4024690000000  0.4914680000000  0.5109350000000 1.0
C      1  0.4663430000000  0.4946720000000  0.4931150000000 1.0
C      1  0.5222070000000  0.5027650000000  0.4938490000000 1.0
C      1  0.4933980000000  0.5009340000000  0.5080120000000 1.0
END
