TITL C-2782230-7391-1387 -0.00233429106325871 125000 -710.549782234219 0 0 122 (C1) n - 1
REM
REM in /home/nfs/bkarasulu/CARBON/AIRSS/Generating-Clusters/REBO/Higher-Symm/SD-CG/HFTN-CG
REM
REM
REM
REM
REM
REM ./C.cell (12c818d87b63d06a65506943cc24bca4)
REM
REM compiler GCC version 9.2.1 20190827 (Red Hat 9.2.1-1)
REM options -cpp -mtune=generic -march=x86-64 -g -O0 -fpre-include=/usr/include/finclude/math-vector-fortran.h
REM seed 111350963 -157161546 -157935178 -1413809352 -400384448 564659764 -1162870081 -704762778 -1244851882 -588707600 1831343234 56673855 -101796896 -1692684888 1368927902 105821465 1687168756 338706792 1444877373 355586605 1056808081 -845988876 1703720305 808751434 1490387128 1723309185 1718610777 -1019217494 -1108412283 2034763520 897008731 327369569 -1337586518
REM
CELL 1.54180   50.00000   50.00000   50.00000   90.00000   90.00000   90.00000
LATT -1
SFAC C  
C      1  0.4353260000000  0.4460420000000  0.5284640000000 1.0
C      1  0.3678240000000  0.5385770000000  0.5600000000000 1.0
C      1  0.4514590000000  0.5173870000000  0.4153690000000 1.0
C      1  0.5028350000000  0.5163540000000  0.4164700000000 1.0
C      1  0.4944980000000  0.4408660000000  0.4835530000000 1.0
C      1  0.4399040000000  0.5378290000000  0.5426720000000 1.0
C      1  0.4890200000000  0.4828950000000  0.3996480000000 1.0
C      1  0.4310600000000  0.5195240000000  0.4362430000000 1.0
C      1  0.4162340000000  0.4414490000000  0.4787200000000 1.0
C      1  0.4556940000000  0.3990140000000  0.4896330000000 1.0
C      1  0.5016580000000  0.5441030000000  0.4149530000000 1.0
C      1  0.5407530000000  0.4618650000000  0.4284640000000 1.0
C      1  0.6047420000000  0.5103240000000  0.5466440000000 1.0
C      1  0.5716520000000  0.5540230000000  0.5098760000000 1.0
C      1  0.4945080000000  0.4025090000000  0.5279300000000 1.0
C      1  0.4924570000000  0.5972380000000  0.4681350000000 1.0
C      1  0.4823730000000  0.4067910000000  0.4997090000000 1.0
C      1  0.5521220000000  0.5835740000000  0.4493760000000 1.0
C      1  0.5604730000000  0.4652440000000  0.5585530000000 1.0
C      1  0.5419200000000  0.5068150000000  0.4804020000000 1.0
C      1  0.4801580000000  0.4723470000000  0.5228680000000 1.0
C      1  0.4227160000000  0.4747970000000  0.4801520000000 1.0
C      1  0.5008460000000  0.4875260000000  0.5016370000000 1.0
C      1  0.5710110000000  0.4898420000000  0.4496550000000 1.0
C      1  0.5957300000000  0.5346780000000  0.5536230000000 1.0
C      1  0.5470350000000  0.5021640000000  0.5261980000000 1.0
C      1  0.4807930000000  0.5149850000000  0.4787760000000 1.0
C      1  0.4483530000000  0.4950230000000  0.5143490000000 1.0
C      1  0.4648450000000  0.4377500000000  0.4932490000000 1.0
C      1  0.5136580000000  0.5987380000000  0.4886700000000 1.0
C      1  0.5624590000000  0.5429740000000  0.4557100000000 1.0
C      1  0.5639770000000  0.4682630000000  0.5083440000000 1.0
C      1  0.5424110000000  0.5648620000000  0.4292070000000 1.0
C      1  0.5313870000000  0.5273470000000  0.5241220000000 1.0
C      1  0.5252430000000  0.4064150000000  0.5210670000000 1.0
C      1  0.4918750000000  0.4883050000000  0.5890100000000 1.0
C      1  0.4729640000000  0.4610470000000  0.4566880000000 1.0
C      1  0.4496510000000  0.4753480000000  0.4386170000000 1.0
C      1  0.5016700000000  0.5803890000000  0.5458240000000 1.0
C      1  0.4679650000000  0.5820750000000  0.4809020000000 1.0
C      1  0.5257190000000  0.5661260000000  0.5637980000000 1.0
C      1  0.5121090000000  0.5151070000000  0.4673780000000 1.0
C      1  0.4444750000000  0.4242060000000  0.5474510000000 1.0
C      1  0.4190620000000  0.4997740000000  0.5235870000000 1.0
C      1  0.5464400000000  0.4332930000000  0.4735980000000 1.0
C      1  0.4583170000000  0.5204950000000  0.4992940000000 1.0
C      1  0.5788260000000  0.5544550000000  0.5603210000000 1.0
C      1  0.4783840000000  0.5469920000000  0.5723840000000 1.0
C      1  0.5852580000000  0.5324070000000  0.4693300000000 1.0
C      1  0.4066640000000  0.5184030000000  0.4588300000000 1.0
C      1  0.5534730000000  0.5119660000000  0.5743140000000 1.0
C      1  0.4042330000000  0.4814810000000  0.5079630000000 1.0
C      1  0.5271610000000  0.5613290000000  0.4865390000000 1.0
C      1  0.5558660000000  0.5673500000000  0.5649380000000 1.0
C      1  0.5171480000000  0.4949000000000  0.4004150000000 1.0
C      1  0.4506940000000  0.5692410000000  0.5434800000000 1.0
C      1  0.5921090000000  0.5468640000000  0.4929650000000 1.0
C      1  0.5732400000000  0.4470100000000  0.4851700000000 1.0
C      1  0.4240520000000  0.5473080000000  0.4545630000000 1.0
C      1  0.5010470000000  0.4185640000000  0.4508830000000 1.0
C      1  0.5393790000000  0.5880640000000  0.4744810000000 1.0
C      1  0.4936210000000  0.4170040000000  0.5587640000000 1.0
C      1  0.5008600000000  0.5191950000000  0.5145310000000 1.0
C      1  0.4911060000000  0.4401550000000  0.4437330000000 1.0
C      1  0.5533580000000  0.5291760000000  0.5940780000000 1.0
C      1  0.4145840000000  0.5219430000000  0.5392370000000 1.0
C      1  0.4470420000000  0.4647270000000  0.5020780000000 1.0
C      1  0.5662230000000  0.4984470000000  0.4992950000000 1.0
C      1  0.5005480000000  0.5869410000000  0.4423440000000 1.0
C      1  0.4591250000000  0.5206320000000  0.5627020000000 1.0
C      1  0.4501760000000  0.5445460000000  0.5122250000000 1.0
C      1  0.4955320000000  0.5623530000000  0.4869430000000 1.0
C      1  0.5127020000000  0.5419520000000  0.5451510000000 1.0
C      1  0.4455540000000  0.5702640000000  0.5005740000000 1.0
C      1  0.5322760000000  0.4788630000000  0.5070000000000 1.0
C      1  0.4543030000000  0.5327700000000  0.3942960000000 1.0
C      1  0.5217760000000  0.4438340000000  0.4914910000000 1.0
C      1  0.4761080000000  0.5708490000000  0.5543350000000 1.0
C      1  0.5337150000000  0.4059790000000  0.4896560000000 1.0
C      1  0.5535900000000  0.4944320000000  0.5541780000000 1.0
C      1  0.5571850000000  0.5342750000000  0.4274000000000 1.0
C      1  0.5283230000000  0.4361070000000  0.5183070000000 1.0
C      1  0.5224330000000  0.4635550000000  0.4521350000000 1.0
C      1  0.5052770000000  0.4060740000000  0.4781690000000 1.0
C      1  0.4409190000000  0.4205140000000  0.4763350000000 1.0
C      1  0.5083000000000  0.5867130000000  0.5157320000000 1.0
C      1  0.5449690000000  0.5494780000000  0.5092410000000 1.0
C      1  0.5100110000000  0.5394630000000  0.5781020000000 1.0
C      1  0.5809560000000  0.5041860000000  0.4721790000000 1.0
C      1  0.5618330000000  0.4208830000000  0.5339080000000 1.0
C      1  0.5475950000000  0.4338820000000  0.5544920000000 1.0
C      1  0.5801420000000  0.4406970000000  0.5177510000000 1.0
C      1  0.4669900000000  0.4348620000000  0.5659660000000 1.0
C      1  0.4691630000000  0.4938000000000  0.4224260000000 1.0
C      1  0.4565040000000  0.4877880000000  0.5631870000000 1.0
C      1  0.4076370000000  0.5691260000000  0.4703010000000 1.0
C      1  0.4266940000000  0.4913290000000  0.4555320000000 1.0
C      1  0.5367960000000  0.5373330000000  0.4709370000000 1.0
C      1  0.4660690000000  0.4014700000000  0.5457830000000 1.0
C      1  0.6027030000000  0.4839170000000  0.5414120000000 1.0
C      1  0.4742890000000  0.4620300000000  0.5766080000000 1.0
C      1  0.3906030000000  0.5304740000000  0.5498860000000 1.0
C      1  0.4878670000000  0.4836110000000  0.4707930000000 1.0
C      1  0.5417840000000  0.4857970000000  0.4123360000000 1.0
C      1  0.4102980000000  0.4510240000000  0.5092900000000 1.0
C      1  0.4190020000000  0.5780160000000  0.4937750000000 1.0
C      1  0.4515540000000  0.5579330000000  0.4630330000000 1.0
C      1  0.4936520000000  0.5028510000000  0.4432040000000 1.0
C      1  0.4865560000000  0.5156050000000  0.5825380000000 1.0
C      1  0.5136770000000  0.5669900000000  0.4260750000000 1.0
C      1  0.5273390000000  0.4787600000000  0.4733000000000 1.0
C      1  0.5594390000000  0.5044940000000  0.4260590000000 1.0
C      1  0.4577160000000  0.4664820000000  0.5405570000000 1.0
C      1  0.4423750000000  0.4482810000000  0.4577490000000 1.0
C      1  0.5017180000000  0.5530450000000  0.5167580000000 1.0
C      1  0.5073620000000  0.4598130000000  0.5842510000000 1.0
C      1  0.5618220000000  0.4575080000000  0.4548650000000 1.0
C      1  0.5393660000000  0.4534300000000  0.5810960000000 1.0
C      1  0.4776890000000  0.5037990000000  0.5293660000000 1.0
C      1  0.5862700000000  0.4625880000000  0.5409420000000 1.0
C      1  0.4752600000000  0.5441360000000  0.4720190000000 1.0
C      1  0.5167460000000  0.4311860000000  0.5684250000000 1.0
END
