TITL C-2782228-2999-742 0.00278924979450584 125000 -1017.05565689829 0 0 178 (C1) n - 1
REM
REM in /home/nfs/bkarasulu/CARBON/AIRSS/Generating-Clusters/REBO/Higher-Symm/SD-CG/HFTN-CG
REM
REM
REM
REM
REM
REM ./C.cell (12c818d87b63d06a65506943cc24bca4)
REM
REM compiler GCC version 9.2.1 20190827 (Red Hat 9.2.1-1)
REM options -cpp -mtune=generic -march=x86-64 -g -O0 -fpre-include=/usr/include/finclude/math-vector-fortran.h
REM seed 684513271 1067717917 898094637 1783277760 -1402750507 -231697342 331536223 -2003788339 -1819844796 -839293878 1699608695 665466987 99381263 -56473414 2055935514 381327618 -1100976157 194065761 240398053 1860039902 1765356672 88606929 832476983 283068566 651364688 -1924077099 -2002575586 548746998 -1194807933 -498030894 -695273865 -1672008780 1470302291
REM
CELL 1.54180   50.00000   50.00000   50.00000   90.00000   90.00000   90.00000
LATT -1
SFAC C  
C      1  0.4879640000000  0.5781280000000  0.4241510000000 1.0
C      1  0.5722560000000  0.4392940000000  0.4879320000000 1.0
C      1  0.4347370000000  0.4863850000000  0.5768300000000 1.0
C      1  0.5182920000000  0.5761840000000  0.5666340000000 1.0
C      1  0.5121340000000  0.4277250000000  0.4334400000000 1.0
C      1  0.4871830000000  0.4203120000000  0.5701230000000 1.0
C      1  0.4225020000000  0.4239690000000  0.5098380000000 1.0
C      1  0.4282690000000  0.5622790000000  0.4856230000000 1.0
C      1  0.5748950000000  0.5730250000000  0.5146420000000 1.0
C      1  0.5671910000000  0.4896200000000  0.4241480000000 1.0
C      1  0.5744860000000  0.5120610000000  0.5820200000000 1.0
C      1  0.4331660000000  0.5107050000000  0.4203130000000 1.0
C      1  0.5950270000000  0.4493840000000  0.5295140000000 1.0
C      1  0.4473880000000  0.5305480000000  0.5951400000000 1.0
C      1  0.5407190000000  0.6032650000000  0.4373440000000 1.0
C      1  0.4008770000000  0.4338970000000  0.4670400000000 1.0
C      1  0.4071040000000  0.5542990000000  0.5272190000000 1.0
C      1  0.5970420000000  0.5570240000000  0.4589940000000 1.0
C      1  0.5566500000000  0.5406690000000  0.3932170000000 1.0
C      1  0.5641580000000  0.4671460000000  0.6005010000000 1.0
C      1  0.4393140000000  0.4678280000000  0.3992280000000 1.0
C      1  0.4747710000000  0.5963310000000  0.5559180000000 1.0
C      1  0.4713470000000  0.4024640000000  0.4423080000000 1.0
C      1  0.5292320000000  0.4031870000000  0.5540140000000 1.0
C      1  0.4452100000000  0.5222980000000  0.5062480000000 1.0
C      1  0.5309250000000  0.5130810000000  0.4433300000000 1.0
C      1  0.4945370000000  0.4569550000000  0.5214530000000 1.0
C      1  0.5485780000000  0.5213320000000  0.5074340000000 1.0
C      1  0.5529930000000  0.4723880000000  0.5075930000000 1.0
C      1  0.4282360000000  0.4810420000000  0.4965850000000 1.0
C      1  0.4713080000000  0.5069190000000  0.5591390000000 1.0
C      1  0.4760030000000  0.5027560000000  0.4518480000000 1.0
C      1  0.5234570000000  0.4965080000000  0.5752990000000 1.0
C      1  0.4927210000000  0.4420560000000  0.4682820000000 1.0
C      1  0.4984460000000  0.5619750000000  0.5263140000000 1.0
C      1  0.5046840000000  0.5649120000000  0.4779110000000 1.0
C      1  0.5763500000000  0.5239760000000  0.5500190000000 1.0
C      1  0.5284820000000  0.5470990000000  0.5838750000000 1.0
C      1  0.5465870000000  0.5655460000000  0.5321330000000 1.0
C      1  0.4220080000000  0.5198760000000  0.4512160000000 1.0
C      1  0.4245510000000  0.4803930000000  0.5447090000000 1.0
C      1  0.5832950000000  0.4804040000000  0.4515410000000 1.0
C      1  0.4804520000000  0.5451920000000  0.4285110000000 1.0
C      1  0.4767320000000  0.4504430000000  0.5818300000000 1.0
C      1  0.5226500000000  0.4543420000000  0.4147810000000 1.0
C      1  0.4588110000000  0.5835330000000  0.4732390000000 1.0
C      1  0.4547640000000  0.4318100000000  0.5136290000000 1.0
C      1  0.5501390000000  0.4155270000000  0.4773750000000 1.0
C      1  0.4724790000000  0.4983140000000  0.3597480000000 1.0
C      1  0.5346310000000  0.3794600000000  0.4709320000000 1.0
C      1  0.3843690000000  0.4608630000000  0.5327900000000 1.0
C      1  0.5439550000000  0.5192960000000  0.6451050000000 1.0
C      1  0.5353650000000  0.4725460000000  0.3756300000000 1.0
C      1  0.4723920000000  0.4654050000000  0.6223380000000 1.0
C      1  0.4614570000000  0.3870660000000  0.5319790000000 1.0
C      1  0.4945130000000  0.6397960000000  0.4588580000000 1.0
C      1  0.5393610000000  0.6167150000000  0.5302970000000 1.0
C      1  0.6195420000000  0.4755800000000  0.4674170000000 1.0
C      1  0.6149740000000  0.5526120000000  0.5225970000000 1.0
C      1  0.3841510000000  0.5265110000000  0.4622920000000 1.0
C      1  0.5004250000000  0.6136100000000  0.4653450000000 1.0
C      1  0.6007250000000  0.4827020000000  0.4872520000000 1.0
C      1  0.4791550000000  0.4866830000000  0.6050120000000 1.0
C      1  0.5143540000000  0.6061110000000  0.5256800000000 1.0
C      1  0.5138320000000  0.3975980000000  0.4761440000000 1.0
C      1  0.4878260000000  0.3934660000000  0.5285310000000 1.0
C      1  0.3918840000000  0.4644170000000  0.5065670000000 1.0
C      1  0.3998850000000  0.5188630000000  0.4845890000000 1.0
C      1  0.5952970000000  0.5395320000000  0.5070650000000 1.0
C      1  0.5300890000000  0.4932820000000  0.3971070000000 1.0
C      1  0.5376190000000  0.5094720000000  0.6202750000000 1.0
C      1  0.4728910000000  0.4994860000000  0.3871150000000 1.0
C      1  0.4625560000000  0.4993300000000  0.4789100000000 1.0
C      1  0.5160670000000  0.4620680000000  0.4534710000000 1.0
C      1  0.4639160000000  0.4693030000000  0.4833580000000 1.0
C      1  0.5198960000000  0.4925250000000  0.5445660000000 1.0
C      1  0.5385390000000  0.4862800000000  0.4630010000000 1.0
C      1  0.4659560000000  0.4963680000000  0.5299510000000 1.0
C      1  0.4927590000000  0.4788640000000  0.5413190000000 1.0
C      1  0.4923270000000  0.5388040000000  0.4762500000000 1.0
C      1  0.4901570000000  0.5299220000000  0.5247640000000 1.0
C      1  0.5345110000000  0.4585080000000  0.4826100000000 1.0
C      1  0.5215520000000  0.5168390000000  0.5272790000000 1.0
C      1  0.4770030000000  0.5229950000000  0.4989250000000 1.0
C      1  0.5179750000000  0.4443170000000  0.5156390000000 1.0
C      1  0.4268420000000  0.5196090000000  0.5268300000000 1.0
C      1  0.5108830000000  0.5217820000000  0.4174990000000 1.0
C      1  0.4725720000000  0.4275890000000  0.4774390000000 1.0
C      1  0.4787210000000  0.5796110000000  0.5198360000000 1.0
C      1  0.5322240000000  0.5730490000000  0.4834480000000 1.0
C      1  0.5548670000000  0.5179520000000  0.4806350000000 1.0
C      1  0.5664270000000  0.4809930000000  0.5284710000000 1.0
C      1  0.4190720000000  0.4797420000000  0.4719370000000 1.0
C      1  0.4813950000000  0.5274770000000  0.5743320000000 1.0
C      1  0.4823330000000  0.4799860000000  0.4381810000000 1.0
C      1  0.5189690000000  0.4723680000000  0.5892280000000 1.0
C      1  0.4601480000000  0.4557880000000  0.4311240000000 1.0
C      1  0.4433940000000  0.4236010000000  0.4615500000000 1.0
C      1  0.4210750000000  0.4600920000000  0.4448510000000 1.0
C      1  0.5369900000000  0.4468410000000  0.5793080000000 1.0
C      1  0.5264170000000  0.5679130000000  0.4253410000000 1.0
C      1  0.4673630000000  0.5569660000000  0.5727150000000 1.0
C      1  0.5418710000000  0.4376410000000  0.5382090000000 1.0
C      1  0.5555820000000  0.5633570000000  0.4662900000000 1.0
C      1  0.4501350000000  0.5732770000000  0.5345690000000 1.0
C      1  0.5695230000000  0.4648530000000  0.5573110000000 1.0
C      1  0.5654120000000  0.5285150000000  0.4302090000000 1.0
C      1  0.4356270000000  0.5371960000000  0.5528160000000 1.0
C      1  0.4378900000000  0.4399650000000  0.4147110000000 1.0
C      1  0.4411310000000  0.4112110000000  0.4323040000000 1.0
C      1  0.4131460000000  0.4303590000000  0.4363140000000 1.0
C      1  0.5663680000000  0.4373720000000  0.5860590000000 1.0
C      1  0.5572090000000  0.5627860000000  0.4116650000000 1.0
C      1  0.4383460000000  0.5612700000000  0.5845450000000 1.0
C      1  0.5567370000000  0.4187610000000  0.5589680000000 1.0
C      1  0.5604390000000  0.5831960000000  0.4389350000000 1.0
C      1  0.4431610000000  0.5870310000000  0.5625180000000 1.0
C      1  0.5853480000000  0.4368240000000  0.5577870000000 1.0
C      1  0.5808190000000  0.5574110000000  0.4358240000000 1.0
C      1  0.4183810000000  0.5641350000000  0.5569570000000 1.0
C      1  0.5054480000000  0.5520620000000  0.4095470000000 1.0
C      1  0.5464730000000  0.4293960000000  0.5072830000000 1.0
C      1  0.4192010000000  0.5101070000000  0.5587900000000 1.0
C      1  0.4978980000000  0.5556060000000  0.5823780000000 1.0
C      1  0.4910460000000  0.4520520000000  0.4224780000000 1.0
C      1  0.5067280000000  0.4404340000000  0.5893900000000 1.0
C      1  0.4462590000000  0.4093970000000  0.4899710000000 1.0
C      1  0.4492860000000  0.5801710000000  0.5029760000000 1.0
C      1  0.5440150000000  0.5850050000000  0.5065270000000 1.0
C      1  0.5692380000000  0.5102200000000  0.4543880000000 1.0
C      1  0.5837290000000  0.4929680000000  0.5554580000000 1.0
C      1  0.4135920000000  0.4908710000000  0.4399150000000 1.0
C      1  0.5758590000000  0.5453890000000  0.5748770000000 1.0
C      1  0.5508590000000  0.5677160000000  0.5717700000000 1.0
C      1  0.5754560000000  0.5665690000000  0.5481660000000 1.0
C      1  0.4331210000000  0.5429880000000  0.4314740000000 1.0
C      1  0.4321010000000  0.4550280000000  0.5634320000000 1.0
C      1  0.5709600000000  0.4568890000000  0.4328400000000 1.0
C      1  0.4559780000000  0.5666130000000  0.4265980000000 1.0
C      1  0.4548500000000  0.4307250000000  0.5675980000000 1.0
C      1  0.5449470000000  0.4365410000000  0.4300770000000 1.0
C      1  0.4384440000000  0.5674500000000  0.4543350000000 1.0
C      1  0.4359000000000  0.4302690000000  0.5405950000000 1.0
C      1  0.5666350000000  0.4325210000000  0.4549480000000 1.0
C      1  0.5674940000000  0.4800970000000  0.4802740000000 1.0
C      1  0.4781320000000  0.4788810000000  0.5722280000000 1.0
C      1  0.4869640000000  0.5855960000000  0.4705320000000 1.0
C      1  0.4420980000000  0.4832720000000  0.5208430000000 1.0
C      1  0.4329430000000  0.5165500000000  0.4788920000000 1.0
C      1  0.5708030000000  0.5305080000000  0.5227380000000 1.0
C      1  0.5203640000000  0.4844400000000  0.4279380000000 1.0
C      1  0.5316900000000  0.5187940000000  0.5899670000000 1.0
C      1  0.4861580000000  0.5283670000000  0.4510210000000 1.0
C      1  0.5237530000000  0.5486760000000  0.5340840000000 1.0
C      1  0.5206950000000  0.4299900000000  0.4767660000000 1.0
C      1  0.4711880000000  0.4547720000000  0.5065730000000 1.0
C      1  0.5014280000000  0.5946510000000  0.5491300000000 1.0
C      1  0.5828220000000  0.5589810000000  0.4851480000000 1.0
C      1  0.5608900000000  0.4947400000000  0.6026650000000 1.0
C      1  0.5115830000000  0.5949050000000  0.4404370000000 1.0
C      1  0.5022880000000  0.4036520000000  0.5507990000000 1.0
C      1  0.4977810000000  0.4071210000000  0.4495250000000 1.0
C      1  0.4108950000000  0.5458180000000  0.5011810000000 1.0
C      1  0.4029150000000  0.4408950000000  0.4934230000000 1.0
C      1  0.5905000000000  0.4568630000000  0.5033070000000 1.0
C      1  0.4482300000000  0.4937070000000  0.4009640000000 1.0
C      1  0.4531880000000  0.5031220000000  0.5945540000000 1.0
C      1  0.5549030000000  0.5116570000000  0.4034440000000 1.0
C      1  0.5056270000000  0.5007410000000  0.6139680000000 1.0
C      1  0.5052060000000  0.6075360000000  0.4984730000000 1.0
C      1  0.6049620000000  0.5116660000000  0.4967800000000 1.0
C      1  0.4978110000000  0.5016800000000  0.3998380000000 1.0
C      1  0.4988190000000  0.3918980000000  0.5026710000000 1.0
C      1  0.3896760000000  0.4912580000000  0.4964910000000 1.0
C      1  0.4661170000000  0.5441780000000  0.5415470000000 1.0
C      1  0.5417770000000  0.5454880000000  0.4441780000000 1.0
C      1  0.5372400000000  0.4671090000000  0.5520000000000 1.0
C      1  0.4491930000000  0.4556460000000  0.4614460000000 1.0
END
