TITL C-2782237-5345-255 0.00275771446998593 125000 -1078.33664364551 0 0 186 (C1) n - 1
REM
REM in /home/nfs/bkarasulu/CARBON/AIRSS/Generating-Clusters/REBO/Higher-Symm/SD-CG/HFTN-CG
REM
REM
REM
REM
REM
REM ./C.cell (12c818d87b63d06a65506943cc24bca4)
REM
REM compiler GCC version 9.2.1 20190827 (Red Hat 9.2.1-1)
REM options -cpp -mtune=generic -march=x86-64 -g -O0 -fpre-include=/usr/include/finclude/math-vector-fortran.h
REM seed -1141163288 -891471691 -919659558 411447236 -1214590035 406571253 -2041650522 -30568089 -783586063 -989602327 1681210069 415488900 1948167880 -403274058 1672153839 -2079970807 828002368 1794421678 -1588258321 1776976136 -15487173 413552851 -1106615271 150149793 -639956343 -1027857721 -291228003 -2007067516 -2126080802 610932652 -589418627 1631266981 -199702449
REM
CELL 1.54180   50.00000   50.00000   50.00000   90.00000   90.00000   90.00000
LATT -1
SFAC C  
C      1  0.5544280000000  0.4912280000000  0.4651590000000 1.0
C      1  0.5472100000000  0.5670640000000  0.5731230000000 1.0
C      1  0.5076770000000  0.5607500000000  0.5008600000000 1.0
C      1  0.4876410000000  0.5718990000000  0.5508380000000 1.0
C      1  0.5913930000000  0.4783020000000  0.5434990000000 1.0
C      1  0.4392990000000  0.5145600000000  0.5148170000000 1.0
C      1  0.5435720000000  0.4187460000000  0.4285770000000 1.0
C      1  0.4952530000000  0.4092710000000  0.4471820000000 1.0
C      1  0.5469030000000  0.5909020000000  0.5217830000000 1.0
C      1  0.5874980000000  0.4944480000000  0.5688070000000 1.0
C      1  0.4515460000000  0.5008030000000  0.5501930000000 1.0
C      1  0.5081280000000  0.4259070000000  0.5729710000000 1.0
C      1  0.4537470000000  0.5945570000000  0.4539770000000 1.0
C      1  0.4286820000000  0.5351980000000  0.4823260000000 1.0
C      1  0.5326170000000  0.5440920000000  0.4259060000000 1.0
C      1  0.4576830000000  0.4875350000000  0.4794980000000 1.0
C      1  0.5166460000000  0.6039540000000  0.5305620000000 1.0
C      1  0.4938050000000  0.4302140000000  0.4999680000000 1.0
C      1  0.4810740000000  0.4994940000000  0.4217940000000 1.0
C      1  0.4218540000000  0.5661410000000  0.5371150000000 1.0
C      1  0.4774920000000  0.5562590000000  0.4856520000000 1.0
C      1  0.4694070000000  0.5266100000000  0.5256460000000 1.0
C      1  0.5738110000000  0.5156370000000  0.5378630000000 1.0
C      1  0.5723520000000  0.4760770000000  0.5920180000000 1.0
C      1  0.5210120000000  0.3992290000000  0.5258470000000 1.0
C      1  0.4966190000000  0.4458150000000  0.5953370000000 1.0
C      1  0.5426780000000  0.5462930000000  0.5929950000000 1.0
C      1  0.5346430000000  0.5186480000000  0.5303950000000 1.0
C      1  0.5565130000000  0.5003840000000  0.6105790000000 1.0
C      1  0.5086910000000  0.4985680000000  0.5398320000000 1.0
C      1  0.4954890000000  0.3905430000000  0.4987570000000 1.0
C      1  0.4170220000000  0.4320760000000  0.5217510000000 1.0
C      1  0.4896060000000  0.5737050000000  0.4312650000000 1.0
C      1  0.5389750000000  0.5776490000000  0.4306190000000 1.0
C      1  0.5292380000000  0.5252480000000  0.3969670000000 1.0
C      1  0.4477540000000  0.4573360000000  0.5258510000000 1.0
C      1  0.4378450000000  0.4651110000000  0.4152520000000 1.0
C      1  0.4208630000000  0.4460070000000  0.4744650000000 1.0
C      1  0.4365910000000  0.5975450000000  0.5007530000000 1.0
C      1  0.5388090000000  0.4705440000000  0.5945760000000 1.0
C      1  0.4636910000000  0.6052830000000  0.5304340000000 1.0
C      1  0.4397600000000  0.4884300000000  0.5922020000000 1.0
C      1  0.4883930000000  0.4020120000000  0.5300110000000 1.0
C      1  0.5449170000000  0.4471880000000  0.5040320000000 1.0
C      1  0.5266670000000  0.4012910000000  0.4526550000000 1.0
C      1  0.4648020000000  0.4707380000000  0.4440210000000 1.0
C      1  0.4249910000000  0.5753870000000  0.4887100000000 1.0
C      1  0.5930150000000  0.5190190000000  0.5027190000000 1.0
C      1  0.5107870000000  0.4698260000000  0.6070520000000 1.0
C      1  0.4372230000000  0.4278250000000  0.4593060000000 1.0
C      1  0.4622230000000  0.4551960000000  0.4741860000000 1.0
C      1  0.5377560000000  0.4474800000000  0.4741570000000 1.0
C      1  0.5113860000000  0.4638670000000  0.4770820000000 1.0
C      1  0.5392520000000  0.4183550000000  0.4769390000000 1.0
C      1  0.5695230000000  0.5585130000000  0.5188190000000 1.0
C      1  0.4603580000000  0.4383310000000  0.5022620000000 1.0
C      1  0.4762100000000  0.5932200000000  0.4704690000000 1.0
C      1  0.5204840000000  0.5406020000000  0.5603820000000 1.0
C      1  0.5254640000000  0.4763870000000  0.5232010000000 1.0
C      1  0.4531140000000  0.4213070000000  0.5609640000000 1.0
C      1  0.5173550000000  0.4903130000000  0.4075470000000 1.0
C      1  0.4328400000000  0.4229450000000  0.5415790000000 1.0
C      1  0.3979370000000  0.4751030000000  0.5038180000000 1.0
C      1  0.4992020000000  0.4630930000000  0.5091200000000 1.0
C      1  0.4988780000000  0.5917600000000  0.5071890000000 1.0
C      1  0.5129210000000  0.5757910000000  0.4131960000000 1.0
C      1  0.5620890000000  0.5303060000000  0.4920100000000 1.0
C      1  0.5578710000000  0.5529330000000  0.4547690000000 1.0
C      1  0.4393890000000  0.4990930000000  0.4093550000000 1.0
C      1  0.5402790000000  0.4295440000000  0.5620140000000 1.0
C      1  0.5238060000000  0.4622800000000  0.3915150000000 1.0
C      1  0.5532570000000  0.4737030000000  0.4049520000000 1.0
C      1  0.4482390000000  0.5215390000000  0.5718170000000 1.0
C      1  0.4919290000000  0.4754280000000  0.3924150000000 1.0
C      1  0.4828730000000  0.4232960000000  0.5505690000000 1.0
C      1  0.4993560000000  0.5094860000000  0.3885750000000 1.0
C      1  0.5688640000000  0.5311410000000  0.4309160000000 1.0
C      1  0.4846730000000  0.5285110000000  0.4280810000000 1.0
C      1  0.4160910000000  0.4798750000000  0.4354440000000 1.0
C      1  0.5219270000000  0.4320170000000  0.5191100000000 1.0
C      1  0.4902790000000  0.4603660000000  0.5646190000000 1.0
C      1  0.4706940000000  0.5340460000000  0.4510620000000 1.0
C      1  0.5980370000000  0.5434850000000  0.5234470000000 1.0
C      1  0.5558960000000  0.5075620000000  0.4093750000000 1.0
C      1  0.4274780000000  0.4771680000000  0.5445660000000 1.0
C      1  0.4405020000000  0.5237000000000  0.4543020000000 1.0
C      1  0.6057320000000  0.5162970000000  0.5404800000000 1.0
C      1  0.4465190000000  0.4371220000000  0.4329910000000 1.0
C      1  0.5274470000000  0.5777180000000  0.5475570000000 1.0
C      1  0.5916100000000  0.4841080000000  0.4526430000000 1.0
C      1  0.4870300000000  0.5286430000000  0.5825000000000 1.0
C      1  0.4403480000000  0.5945710000000  0.5404610000000 1.0
C      1  0.4328000000000  0.5452520000000  0.5136880000000 1.0
C      1  0.5854360000000  0.4496740000000  0.5483970000000 1.0
C      1  0.5393300000000  0.4870140000000  0.4938850000000 1.0
C      1  0.4713100000000  0.4369020000000  0.6081640000000 1.0
C      1  0.5159990000000  0.5324150000000  0.6002750000000 1.0
C      1  0.4875770000000  0.5996150000000  0.5447400000000 1.0
C      1  0.4023660000000  0.5328850000000  0.4622770000000 1.0
C      1  0.5280170000000  0.5653250000000  0.4668280000000 1.0
C      1  0.4786520000000  0.4529730000000  0.5346230000000 1.0
C      1  0.4975680000000  0.5783230000000  0.4590270000000 1.0
C      1  0.4950360000000  0.4773380000000  0.4377770000000 1.0
C      1  0.5512320000000  0.4109480000000  0.5362900000000 1.0
C      1  0.5429970000000  0.4995990000000  0.5791740000000 1.0
C      1  0.3956370000000  0.5530730000000  0.5251020000000 1.0
C      1  0.5770780000000  0.4404860000000  0.4762790000000 1.0
C      1  0.4565170000000  0.5643650000000  0.5106170000000 1.0
C      1  0.5742410000000  0.5167820000000  0.4675110000000 1.0
C      1  0.4840350000000  0.5569120000000  0.5250210000000 1.0
C      1  0.6033350000000  0.4889790000000  0.4789850000000 1.0
C      1  0.4085820000000  0.4484390000000  0.5004330000000 1.0
C      1  0.3966880000000  0.5023830000000  0.4483870000000 1.0
C      1  0.5506550000000  0.4682400000000  0.5431830000000 1.0
C      1  0.5093820000000  0.4538170000000  0.4211580000000 1.0
C      1  0.5521460000000  0.4973170000000  0.5504380000000 1.0
C      1  0.4641100000000  0.4046310000000  0.5071080000000 1.0
C      1  0.5700900000000  0.5733460000000  0.4938330000000 1.0
C      1  0.3915740000000  0.5281910000000  0.4948230000000 1.0
C      1  0.5561980000000  0.5067250000000  0.5117730000000 1.0
C      1  0.5325700000000  0.4533230000000  0.4449770000000 1.0
C      1  0.4462180000000  0.4936750000000  0.4417580000000 1.0
C      1  0.4662470000000  0.5147780000000  0.3954810000000 1.0
C      1  0.4289560000000  0.4958850000000  0.4896500000000 1.0
C      1  0.4806130000000  0.4875300000000  0.5023580000000 1.0
C      1  0.4030100000000  0.4885220000000  0.5284240000000 1.0
C      1  0.5699250000000  0.4622140000000  0.4555720000000 1.0
C      1  0.4001250000000  0.5121320000000  0.5605010000000 1.0
C      1  0.4901040000000  0.4483060000000  0.4646710000000 1.0
C      1  0.5992250000000  0.5240110000000  0.4602540000000 1.0
C      1  0.5037620000000  0.5429320000000  0.4102260000000 1.0
C      1  0.4421900000000  0.5664820000000  0.4414240000000 1.0
C      1  0.4484030000000  0.4275330000000  0.5876030000000 1.0
C      1  0.4011180000000  0.5610140000000  0.4951180000000 1.0
C      1  0.5642940000000  0.4640610000000  0.5150830000000 1.0
C      1  0.5156890000000  0.4457860000000  0.5467730000000 1.0
C      1  0.5455580000000  0.5901880000000  0.4871970000000 1.0
C      1  0.5810910000000  0.4258320000000  0.5349280000000 1.0
C      1  0.5323790000000  0.5434170000000  0.4894040000000 1.0
C      1  0.4225540000000  0.4728660000000  0.4659130000000 1.0
C      1  0.4218410000000  0.5859390000000  0.5645770000000 1.0
C      1  0.4467030000000  0.4580960000000  0.6008320000000 1.0
C      1  0.5900080000000  0.4858350000000  0.5102910000000 1.0
C      1  0.5518000000000  0.4020980000000  0.5034620000000 1.0
C      1  0.4901000000000  0.4963590000000  0.6060160000000 1.0
C      1  0.4571350000000  0.4880440000000  0.5205570000000 1.0
C      1  0.5597780000000  0.4487230000000  0.4271220000000 1.0
C      1  0.5821440000000  0.5456470000000  0.5538290000000 1.0
C      1  0.4741010000000  0.5142970000000  0.4735480000000 1.0
C      1  0.5251410000000  0.3900090000000  0.4853640000000 1.0
C      1  0.4871640000000  0.5267140000000  0.4991480000000 1.0
C      1  0.4525180000000  0.4101030000000  0.4753130000000 1.0
C      1  0.5401680000000  0.5492260000000  0.5338230000000 1.0
C      1  0.5475870000000  0.5958010000000  0.4533730000000 1.0
C      1  0.5239480000000  0.5176250000000  0.4735380000000 1.0
C      1  0.5825520000000  0.5011380000000  0.4306160000000 1.0
C      1  0.5618050000000  0.4519610000000  0.5704360000000 1.0
C      1  0.4693830000000  0.6017190000000  0.4993080000000 1.0
C      1  0.5667260000000  0.5758590000000  0.5464580000000 1.0
C      1  0.3938010000000  0.5206170000000  0.5281620000000 1.0
C      1  0.5191660000000  0.5125440000000  0.5664120000000 1.0
C      1  0.4651490000000  0.5627790000000  0.4215230000000 1.0
C      1  0.4166050000000  0.5507700000000  0.4370980000000 1.0
C      1  0.5085430000000  0.5013240000000  0.4969630000000 1.0
C      1  0.4710880000000  0.4594330000000  0.4115660000000 1.0
C      1  0.4718100000000  0.4763970000000  0.5866760000000 1.0
C      1  0.5410000000000  0.5180000000000  0.4464270000000 1.0
C      1  0.5226250000000  0.5017360000000  0.6133890000000 1.0
C      1  0.4988500000000  0.5566830000000  0.5705390000000 1.0
C      1  0.4623060000000  0.5131700000000  0.5987840000000 1.0
C      1  0.6198210000000  0.5165200000000  0.4815920000000 1.0
C      1  0.5151290000000  0.4893910000000  0.4594860000000 1.0
C      1  0.4783540000000  0.4290300000000  0.4250500000000 1.0
C      1  0.5340060000000  0.4832450000000  0.4321640000000 1.0
C      1  0.5649910000000  0.5277800000000  0.5970160000000 1.0
C      1  0.5832460000000  0.5229790000000  0.5758110000000 1.0
C      1  0.4188220000000  0.5189050000000  0.4281700000000 1.0
C      1  0.4821060000000  0.5131720000000  0.5524860000000 1.0
C      1  0.5784850000000  0.5604720000000  0.4714920000000 1.0
C      1  0.4619760000000  0.5459240000000  0.4002110000000 1.0
C      1  0.5764040000000  0.4208670000000  0.4911610000000 1.0
C      1  0.5117440000000  0.4221970000000  0.4222040000000 1.0
C      1  0.4185070000000  0.4930460000000  0.5710110000000 1.0
C      1  0.4845830000000  0.4100460000000  0.4739390000000 1.0
C      1  0.4480870000000  0.5594000000000  0.4719860000000 1.0
C      1  0.3961430000000  0.4983950000000  0.4809930000000 1.0
END
