TITL C-2782239-8622-52 0.00220577387700371 125000 -205.199836854749 0 0 39 (C1) n - 1
REM
REM in /home/nfs/bkarasulu/CARBON/AIRSS/Generating-Clusters/REBO/Higher-Symm/SD-CG/HFTN-CG
REM
REM
REM
REM
REM
REM ./C.cell (12c818d87b63d06a65506943cc24bca4)
REM
REM compiler GCC version 9.2.1 20190827 (Red Hat 9.2.1-1)
REM options -cpp -mtune=generic -march=x86-64 -g -O0 -fpre-include=/usr/include/finclude/math-vector-fortran.h
REM seed 1286470091 1546631037 844383371 -1749260803 1691922247 -228293265 -567143161 -1967874170 -75498723 -1492623520 -943391223 802840460 805219285 -1228734055 -1676441282 -433467065 1657731105 868681352 1116334339 -1695933630 -1889651576 -1041228543 1362229731 -716886741 1657790026 -1345609638 1264294456 -503118228 -1935673341 1671215479 1870082315 -370797056 -855263530
REM
CELL 1.54180   50.00000   50.00000   50.00000   90.00000   90.00000   90.00000
LATT -1
SFAC C  
C      1  0.4679870000000  0.4985660000000  0.5125140000000 1.0
C      1  0.4987550000000  0.5371810000000  0.4904670000000 1.0
C      1  0.5452430000000  0.5027390000000  0.4587950000000 1.0
C      1  0.5002840000000  0.5279930000000  0.5396550000000 1.0
C      1  0.5444950000000  0.4743300000000  0.4992750000000 1.0
C      1  0.5174080000000  0.5029420000000  0.4583320000000 1.0
C      1  0.4875740000000  0.4548060000000  0.4960720000000 1.0
C      1  0.4582070000000  0.5027840000000  0.5403690000000 1.0
C      1  0.5758440000000  0.5431180000000  0.4403760000000 1.0
C      1  0.5394350000000  0.5586830000000  0.5576880000000 1.0
C      1  0.4574930000000  0.5396360000000  0.4757210000000 1.0
C      1  0.4884200000000  0.5877770000000  0.5024410000000 1.0
C      1  0.4805220000000  0.4037600000000  0.4795050000000 1.0
C      1  0.4146160000000  0.4803620000000  0.5601960000000 1.0
C      1  0.5757670000000  0.4525080000000  0.5398650000000 1.0
C      1  0.4884130000000  0.4574860000000  0.4561710000000 1.0
C      1  0.4362210000000  0.4914750000000  0.5503690000000 1.0
C      1  0.4839360000000  0.4284750000000  0.4875260000000 1.0
C      1  0.5024940000000  0.4795590000000  0.4573180000000 1.0
C      1  0.5614380000000  0.4625070000000  0.5212660000000 1.0
C      1  0.5200440000000  0.5434820000000  0.5487560000000 1.0
C      1  0.5609680000000  0.5234880000000  0.4493310000000 1.0
C      1  0.4935300000000  0.5627640000000  0.4965210000000 1.0
C      1  0.4622720000000  0.5209360000000  0.4924740000000 1.0
C      1  0.4804610000000  0.5385040000000  0.4386390000000 1.0
C      1  0.5734540000000  0.4553520000000  0.4563260000000 1.0
C      1  0.4786370000000  0.5178190000000  0.5897700000000 1.0
C      1  0.4152800000000  0.4507150000000  0.4964890000000 1.0
C      1  0.5069110000000  0.5530710000000  0.4384720000000 1.0
C      1  0.4394580000000  0.4604330000000  0.4992850000000 1.0
C      1  0.4639540000000  0.5420290000000  0.5792370000000 1.0
C      1  0.5915270000000  0.4750020000000  0.4704500000000 1.0
C      1  0.5032170000000  0.5287540000000  0.4622020000000 1.0
C      1  0.5579410000000  0.4803370000000  0.4737120000000 1.0
C      1  0.4763940000000  0.5205280000000  0.5557990000000 1.0
C      1  0.4651390000000  0.4707540000000  0.5022550000000 1.0
C      1  0.5000560000000  0.5163750000000  0.5117360000000 1.0
C      1  0.5122630000000  0.4659960000000  0.4984540000000 1.0
C      1  0.5197900000000  0.4953600000000  0.5073680000000 1.0
END
