TITL C-2782237-5345-1204 0.000661348515286642 125000 -405.707363193206 0 0 72 (C1) n - 1
REM
REM in /home/nfs/bkarasulu/CARBON/AIRSS/Generating-Clusters/REBO/Higher-Symm/SD-CG/HFTN-CG
REM
REM
REM
REM
REM
REM ./C.cell (12c818d87b63d06a65506943cc24bca4)
REM
REM compiler GCC version 9.2.1 20190827 (Red Hat 9.2.1-1)
REM options -cpp -mtune=generic -march=x86-64 -g -O0 -fpre-include=/usr/include/finclude/math-vector-fortran.h
REM seed -697493348 1950456416 -1150409774 1374731172 1084393066 1867598499 432158 -300723603 -42443817 -774043775 1825412330 233807907 -1071318423 1347325940 -2078567814 230613444 -83934427 1298688570 864079145 2044143616 1213456144 1687178105 -26542558 644884293 -1375700071 744026634 -132552971 1299418517 -640334604 56741724 1879493616 1373436933 -582842417
REM
CELL 1.54180   50.00000   50.00000   50.00000   90.00000   90.00000   90.00000
LATT -1
SFAC C  
C      1  0.4312400000000  0.5038370000000  0.4761610000000 1.0
C      1  0.4743350000000  0.4554010000000  0.5369620000000 1.0
C      1  0.5478720000000  0.5338570000000  0.4412210000000 1.0
C      1  0.5202930000000  0.5520630000000  0.4492880000000 1.0
C      1  0.5556110000000  0.4923350000000  0.5416990000000 1.0
C      1  0.4619340000000  0.5299880000000  0.5608410000000 1.0
C      1  0.4516600000000  0.5428300000000  0.5067140000000 1.0
C      1  0.5033430000000  0.5629450000000  0.5507890000000 1.0
C      1  0.5808800000000  0.4723050000000  0.4805110000000 1.0
C      1  0.4360070000000  0.5282060000000  0.4528700000000 1.0
C      1  0.4724450000000  0.5539260000000  0.4812200000000 1.0
C      1  0.5013460000000  0.4631010000000  0.4402520000000 1.0
C      1  0.5201960000000  0.4708110000000  0.5160600000000 1.0
C      1  0.4731400000000  0.5681090000000  0.5120330000000 1.0
C      1  0.4914910000000  0.4566680000000  0.5124290000000 1.0
C      1  0.5654190000000  0.5223270000000  0.5285380000000 1.0
C      1  0.4910640000000  0.5391810000000  0.5129680000000 1.0
C      1  0.5828060000000  0.5057860000000  0.4741640000000 1.0
C      1  0.5266580000000  0.5465720000000  0.5553280000000 1.0
C      1  0.5144040000000  0.5015820000000  0.5119730000000 1.0
C      1  0.5036010000000  0.5619240000000  0.4760800000000 1.0
C      1  0.5486270000000  0.4664320000000  0.4726520000000 1.0
C      1  0.4751030000000  0.4335190000000  0.5520860000000 1.0
C      1  0.4526610000000  0.4776310000000  0.4393780000000 1.0
C      1  0.5212600000000  0.5273100000000  0.4249300000000 1.0
C      1  0.5587450000000  0.5372850000000  0.4792090000000 1.0
C      1  0.5662320000000  0.4501470000000  0.5297310000000 1.0
C      1  0.5207040000000  0.5246820000000  0.5727310000000 1.0
C      1  0.4506510000000  0.4588600000000  0.4604330000000 1.0
C      1  0.4475880000000  0.5109640000000  0.5452750000000 1.0
C      1  0.4378600000000  0.4617820000000  0.5223650000000 1.0
C      1  0.4904050000000  0.4858270000000  0.5862230000000 1.0
C      1  0.5802130000000  0.4650100000000  0.5110350000000 1.0
C      1  0.4215460000000  0.5049950000000  0.5046380000000 1.0
C      1  0.4773880000000  0.5148970000000  0.5190750000000 1.0
C      1  0.5090810000000  0.5005410000000  0.4710200000000 1.0
C      1  0.4897700000000  0.5413970000000  0.4446840000000 1.0
C      1  0.4565530000000  0.4391170000000  0.5052120000000 1.0
C      1  0.4861200000000  0.5126530000000  0.4536170000000 1.0
C      1  0.5405820000000  0.5399960000000  0.5314300000000 1.0
C      1  0.5510900000000  0.4882560000000  0.4394330000000 1.0
C      1  0.5511830000000  0.4982570000000  0.4835870000000 1.0
C      1  0.4723850000000  0.4468310000000  0.4786410000000 1.0
C      1  0.5668010000000  0.4941160000000  0.5106550000000 1.0
C      1  0.4994170000000  0.5063030000000  0.5686740000000 1.0
C      1  0.4665180000000  0.4683290000000  0.5737740000000 1.0
C      1  0.4631460000000  0.5267320000000  0.4703510000000 1.0
C      1  0.4981200000000  0.4280360000000  0.5025900000000 1.0
C      1  0.4816360000000  0.4872200000000  0.4332120000000 1.0
C      1  0.4380480000000  0.5219780000000  0.5200990000000 1.0
C      1  0.4974750000000  0.4560890000000  0.5763680000000 1.0
C      1  0.5148210000000  0.5738380000000  0.4987040000000 1.0
C      1  0.4530250000000  0.4795100000000  0.5460780000000 1.0
C      1  0.4990090000000  0.4522680000000  0.4707820000000 1.0
C      1  0.4610030000000  0.5030590000000  0.4933640000000 1.0
C      1  0.5207530000000  0.5328860000000  0.5097720000000 1.0
C      1  0.5239080000000  0.4791100000000  0.4544910000000 1.0
C      1  0.5634960000000  0.5115560000000  0.4479620000000 1.0
C      1  0.5028750000000  0.5088820000000  0.4176630000000 1.0
C      1  0.4898410000000  0.4858070000000  0.4948920000000 1.0
C      1  0.5300330000000  0.5217550000000  0.4815780000000 1.0
C      1  0.4333720000000  0.4977440000000  0.4431620000000 1.0
C      1  0.4793680000000  0.5510580000000  0.5614430000000 1.0
C      1  0.5223620000000  0.4561970000000  0.4871510000000 1.0
C      1  0.4353580000000  0.4576990000000  0.4881410000000 1.0
C      1  0.5218310000000  0.4521550000000  0.5630090000000 1.0
C      1  0.5011080000000  0.5756990000000  0.5252760000000 1.0
C      1  0.4869430000000  0.5043280000000  0.5430920000000 1.0
C      1  0.5061280000000  0.4427860000000  0.4185640000000 1.0
C      1  0.4136620000000  0.4810380000000  0.5150320000000 1.0
C      1  0.5384160000000  0.4642980000000  0.5399840000000 1.0
C      1  0.5800330000000  0.5293810000000  0.4986480000000 1.0
END
