TITL C-2782230-7391-275 -0.00083492797914907 125000 -247.782598233101 0 0 45 (Cs) n - 1
REM
REM in /home/nfs/bkarasulu/CARBON/AIRSS/Generating-Clusters/REBO/Higher-Symm/SD-CG/HFTN-CG
REM
REM
REM
REM
REM
REM ./C.cell (12c818d87b63d06a65506943cc24bca4)
REM
REM compiler GCC version 9.2.1 20190827 (Red Hat 9.2.1-1)
REM options -cpp -mtune=generic -march=x86-64 -g -O0 -fpre-include=/usr/include/finclude/math-vector-fortran.h
REM seed -338030757 -1673996546 -1582145923 524793168 -1974084158 142130714 -1084862822 1988339155 -1635064052 322260872 1200664634 -2136991871 -607625477 -1112331852 1778119667 -1256526673 1324836451 -1263517667 2140312535 878714098 -666688042 1499701768 831946272 -254348872 470406908 -407236077 -1960266416 -1446771936 -1862438202 -1592827613 1722333883 -1885460117 -86510742
REM
CELL 1.54180   50.00000   50.00000   50.00000   90.00000   90.00000   90.00000
LATT -1
SFAC C  
C      1  0.5157160000000  0.4576700000000  0.4574690000000 1.0
C      1  0.4596860000000  0.4841430000000  0.4564780000000 1.0
C      1  0.4830430000000  0.5429850000000  0.4570290000000 1.0
C      1  0.5419950000000  0.5152270000000  0.4543550000000 1.0
C      1  0.5157180000000  0.4576680000000  0.5443490000000 1.0
C      1  0.4596870000000  0.4841400000000  0.5453430000000 1.0
C      1  0.4830440000000  0.5429830000000  0.5447940000000 1.0
C      1  0.5419960000000  0.5152240000000  0.5474650000000 1.0
C      1  0.5136740000000  0.5207090000000  0.5322150000000 1.0
C      1  0.5208500000000  0.4865190000000  0.5296830000000 1.0
C      1  0.4870540000000  0.4805870000000  0.5277830000000 1.0
C      1  0.4794710000000  0.5145050000000  0.5288650000000 1.0
C      1  0.5136730000000  0.5207100000000  0.4696060000000 1.0
C      1  0.5208490000000  0.4865200000000  0.4721350000000 1.0
C      1  0.4870530000000  0.4805880000000  0.4740370000000 1.0
C      1  0.4794700000000  0.5145060000000  0.4729560000000 1.0
C      1  0.4830090000000  0.5649480000000  0.4743490000000 1.0
C      1  0.5627390000000  0.5139270000000  0.4737550000000 1.0
C      1  0.5148640000000  0.4358620000000  0.4746270000000 1.0
C      1  0.4374330000000  0.4845900000000  0.4739720000000 1.0
C      1  0.4830100000000  0.5649460000000  0.5274750000000 1.0
C      1  0.5627400000000  0.5139260000000  0.5280640000000 1.0
C      1  0.5148650000000  0.4358600000000  0.5271890000000 1.0
C      1  0.4374340000000  0.4845890000000  0.5278490000000 1.0
C      1  0.4921040000000  0.5232490000000  0.5657930000000 1.0
C      1  0.5196250000000  0.5060120000000  0.5686010000000 1.0
C      1  0.5081660000000  0.4763920000000  0.5664170000000 1.0
C      1  0.4818520000000  0.4935920000000  0.5651280000000 1.0
C      1  0.4921020000000  0.5232520000000  0.4360290000000 1.0
C      1  0.5196230000000  0.5060150000000  0.4332190000000 1.0
C      1  0.5081640000000  0.4763950000000  0.4354020000000 1.0
C      1  0.4818500000000  0.4935950000000  0.4366930000000 1.0
C      1  0.5359060000000  0.4826710000000  0.5009090000000 1.0
C      1  0.4815290000000  0.4651490000000  0.5009090000000 1.0
C      1  0.4644010000000  0.5194550000000  0.5009110000000 1.0
C      1  0.5157280000000  0.5341980000000  0.5009110000000 1.0
C      1  0.4392040000000  0.5277290000000  0.5009120000000 1.0
C      1  0.5224470000000  0.5633730000000  0.5009110000000 1.0
C      1  0.5611800000000  0.4743640000000  0.5009080000000 1.0
C      1  0.4726200000000  0.4402540000000  0.5009090000000 1.0
C      1  0.5145970000000  0.4290080000000  0.5009080000000 1.0
C      1  0.4319310000000  0.4847000000000  0.5009110000000 1.0
C      1  0.4830000000000  0.5711960000000  0.5009120000000 1.0
C      1  0.5673910000000  0.5138720000000  0.5009090000000 1.0
C      1  0.5022940000000  0.5027570000000  0.5009100000000 1.0
END
