TITL C-2782225-7408-1277 -0.00566788517510019 125000 -939.47739556996 0 0 153 (C1) n - 1
REM
REM in /home/nfs/bkarasulu/CARBON/AIRSS/Generating-Clusters/REBO/Higher-Symm/SD-CG/HFTN-CG
REM
REM
REM
REM
REM
REM ./C.cell (12c818d87b63d06a65506943cc24bca4)
REM
REM compiler GCC version 9.2.1 20190827 (Red Hat 9.2.1-1)
REM options -cpp -mtune=generic -march=x86-64 -g -O0 -fpre-include=/usr/include/finclude/math-vector-fortran.h
REM seed 1519791338 -1456317820 -2014152372 1592570842 1925963285 1675458677 1941802135 1652923882 -580124906 -844973908 33846460 -1127023263 -1194118666 -1918574993 2027642610 634901521 -566815541 665830347 1525283257 1120550557 -436327736 292151462 1704875350 824408135 407607734 -881783164 1377254899 359744536 1330000718 -1223191743 -1710998517 -1347837415 -1967315826
REM
CELL 1.54180   50.00000   50.00000   50.00000   90.00000   90.00000   90.00000
LATT -1
SFAC C  
C      1  0.5750050000000  0.5611110000000  0.4962560000000 1.0
C      1  0.5614750000000  0.5657790000000  0.5506040000000 1.0
C      1  0.5116580000000  0.5559940000000  0.5723090000000 1.0
C      1  0.4600000000000  0.5719150000000  0.5543880000000 1.0
C      1  0.4272530000000  0.5807940000000  0.5179180000000 1.0
C      1  0.4279730000000  0.5930320000000  0.4656080000000 1.0
C      1  0.4618330000000  0.5686910000000  0.4343120000000 1.0
C      1  0.5113040000000  0.5854280000000  0.4225190000000 1.0
C      1  0.5547580000000  0.5696380000000  0.4467530000000 1.0
C      1  0.4589170000000  0.4883650000000  0.5853640000000 1.0
C      1  0.3983220000000  0.4650960000000  0.5513900000000 1.0
C      1  0.4011980000000  0.4729420000000  0.4809610000000 1.0
C      1  0.4285100000000  0.4739960000000  0.4232070000000 1.0
C      1  0.4896660000000  0.4832400000000  0.3939760000000 1.0
C      1  0.5582340000000  0.4885190000000  0.4173460000000 1.0
C      1  0.6091430000000  0.4840680000000  0.4813980000000 1.0
C      1  0.5749110000000  0.4926620000000  0.5589720000000 1.0
C      1  0.5342700000000  0.4910590000000  0.5922930000000 1.0
C      1  0.4787000000000  0.4022980000000  0.5372050000000 1.0
C      1  0.4654980000000  0.4068870000000  0.5097340000000 1.0
C      1  0.4633220000000  0.4008030000000  0.4797820000000 1.0
C      1  0.4855130000000  0.4117260000000  0.4624160000000 1.0
C      1  0.5151480000000  0.4079900000000  0.4553460000000 1.0
C      1  0.5380960000000  0.4101400000000  0.4714310000000 1.0
C      1  0.5435780000000  0.4073910000000  0.5027190000000 1.0
C      1  0.5321320000000  0.4070950000000  0.5330000000000 1.0
C      1  0.5059670000000  0.4062430000000  0.5449700000000 1.0
C      1  0.5032680000000  0.5551520000000  0.4476010000000 1.0
C      1  0.5529410000000  0.5404600000000  0.4399370000000 1.0
C      1  0.5841010000000  0.5310340000000  0.4853390000000 1.0
C      1  0.5671900000000  0.5386360000000  0.5204330000000 1.0
C      1  0.5273320000000  0.5404570000000  0.5952470000000 1.0
C      1  0.4846110000000  0.5364600000000  0.5657550000000 1.0
C      1  0.4426060000000  0.5534850000000  0.5313190000000 1.0
C      1  0.4128750000000  0.5740410000000  0.4888830000000 1.0
C      1  0.4599870000000  0.5404200000000  0.4427170000000 1.0
C      1  0.4432160000000  0.5220520000000  0.4271700000000 1.0
C      1  0.5085210000000  0.5456620000000  0.4206030000000 1.0
C      1  0.5802960000000  0.5308510000000  0.4243640000000 1.0
C      1  0.6160670000000  0.5263860000000  0.4943390000000 1.0
C      1  0.5930220000000  0.5342400000000  0.5370110000000 1.0
C      1  0.5113790000000  0.5366360000000  0.6186530000000 1.0
C      1  0.4552530000000  0.5426520000000  0.5804260000000 1.0
C      1  0.4200610000000  0.5364530000000  0.5443030000000 1.0
C      1  0.4061760000000  0.5462800000000  0.4828050000000 1.0
C      1  0.5451810000000  0.5176190000000  0.5894420000000 1.0
C      1  0.4794010000000  0.5116250000000  0.5869770000000 1.0
C      1  0.4070430000000  0.4869660000000  0.5716320000000 1.0
C      1  0.4124020000000  0.4952810000000  0.5041910000000 1.0
C      1  0.4259200000000  0.5009600000000  0.4359080000000 1.0
C      1  0.4665270000000  0.4974470000000  0.3806770000000 1.0
C      1  0.5501100000000  0.5196290000000  0.4130350000000 1.0
C      1  0.6052960000000  0.5126370000000  0.4659760000000 1.0
C      1  0.6018870000000  0.4956240000000  0.5424860000000 1.0
C      1  0.4534680000000  0.4872030000000  0.4104480000000 1.0
C      1  0.5062710000000  0.4981000000000  0.4113510000000 1.0
C      1  0.5787030000000  0.4879440000000  0.4364310000000 1.0
C      1  0.6091190000000  0.4902680000000  0.5099820000000 1.0
C      1  0.5676740000000  0.5191220000000  0.5733190000000 1.0
C      1  0.5053380000000  0.4928830000000  0.5941000000000 1.0
C      1  0.4318720000000  0.5006200000000  0.5835680000000 1.0
C      1  0.3987270000000  0.4916470000000  0.5329700000000 1.0
C      1  0.4177260000000  0.4968300000000  0.4647950000000 1.0
C      1  0.4392080000000  0.5904610000000  0.5457260000000 1.0
C      1  0.4234580000000  0.6056900000000  0.4953220000000 1.0
C      1  0.4532090000000  0.5867810000000  0.4553630000000 1.0
C      1  0.4850180000000  0.5779440000000  0.4202220000000 1.0
C      1  0.5326450000000  0.5864260000000  0.4413410000000 1.0
C      1  0.5687680000000  0.5753850000000  0.4696400000000 1.0
C      1  0.5723370000000  0.5776150000000  0.5258980000000 1.0
C      1  0.5350170000000  0.5727180000000  0.5563770000000 1.0
C      1  0.4868030000000  0.5758570000000  0.5598020000000 1.0
C      1  0.5071500000000  0.5269200000000  0.4639700000000 1.0
C      1  0.5388260000000  0.5256630000000  0.4631810000000 1.0
C      1  0.5540230000000  0.5197280000000  0.4881600000000 1.0
C      1  0.5376660000000  0.5283820000000  0.5171200000000 1.0
C      1  0.5116710000000  0.5206750000000  0.5251520000000 1.0
C      1  0.4850260000000  0.5298880000000  0.5355380000000 1.0
C      1  0.4637740000000  0.5350200000000  0.5173980000000 1.0
C      1  0.4645680000000  0.5227920000000  0.4906220000000 1.0
C      1  0.4756370000000  0.5336550000000  0.4666900000000 1.0
C      1  0.5028020000000  0.4515140000000  0.5388200000000 1.0
C      1  0.4763370000000  0.4548040000000  0.5313450000000 1.0
C      1  0.4650200000000  0.4400230000000  0.5101960000000 1.0
C      1  0.4613140000000  0.4525360000000  0.4846390000000 1.0
C      1  0.4839260000000  0.4450040000000  0.4642400000000 1.0
C      1  0.5121350000000  0.4546290000000  0.4554880000000 1.0
C      1  0.5303980000000  0.4546940000000  0.4768390000000 1.0
C      1  0.5328330000000  0.4383100000000  0.4993140000000 1.0
C      1  0.5250300000000  0.4478610000000  0.5243150000000 1.0
C      1  0.5767870000000  0.4384910000000  0.4807150000000 1.0
C      1  0.5701960000000  0.4371030000000  0.5344230000000 1.0
C      1  0.5323380000000  0.4370690000000  0.5708370000000 1.0
C      1  0.4774990000000  0.4336620000000  0.5728900000000 1.0
C      1  0.4357380000000  0.4237780000000  0.5438310000000 1.0
C      1  0.4217080000000  0.4212030000000  0.4921960000000 1.0
C      1  0.4430340000000  0.4272090000000  0.4446840000000 1.0
C      1  0.4920220000000  0.4311880000000  0.4193450000000 1.0
C      1  0.5432240000000  0.4403550000000  0.4342810000000 1.0
C      1  0.4609400000000  0.4923170000000  0.4858590000000 1.0
C      1  0.4822040000000  0.4796250000000  0.4627170000000 1.0
C      1  0.5130900000000  0.4940570000000  0.4646020000000 1.0
C      1  0.5426410000000  0.4829640000000  0.4776430000000 1.0
C      1  0.5505990000000  0.4919650000000  0.5075750000000 1.0
C      1  0.5307390000000  0.4866850000000  0.5314430000000 1.0
C      1  0.4975240000000  0.4916750000000  0.5374710000000 1.0
C      1  0.4641350000000  0.4829660000000  0.5371410000000 1.0
C      1  0.4442870000000  0.4857260000000  0.5119570000000 1.0
C      1  0.4083000000000  0.4456820000000  0.4928690000000 1.0
C      1  0.4335450000000  0.4544050000000  0.4434820000000 1.0
C      1  0.4861070000000  0.4564910000000  0.4085040000000 1.0
C      1  0.5405940000000  0.4673830000000  0.4240940000000 1.0
C      1  0.5891220000000  0.4640960000000  0.4752410000000 1.0
C      1  0.5782630000000  0.4626780000000  0.5422310000000 1.0
C      1  0.5387660000000  0.4638680000000  0.5785070000000 1.0
C      1  0.4716110000000  0.4611750000000  0.5779920000000 1.0
C      1  0.4224720000000  0.4468810000000  0.5513590000000 1.0
C      1  0.5954640000000  0.5106800000000  0.4381430000000 1.0
C      1  0.6177050000000  0.5198210000000  0.5246390000000 1.0
C      1  0.5754750000000  0.5420720000000  0.5593110000000 1.0
C      1  0.4943360000000  0.5153840000000  0.6162120000000 1.0
C      1  0.4343780000000  0.5299660000000  0.5860150000000 1.0
C      1  0.4041690000000  0.5178110000000  0.5464350000000 1.0
C      1  0.4095140000000  0.5234060000000  0.4762230000000 1.0
C      1  0.4509900000000  0.5192100000000  0.3979410000000 1.0
C      1  0.5199790000000  0.5225040000000  0.4092190000000 1.0
C      1  0.5252860000000  0.5947140000000  0.5414720000000 1.0
C      1  0.4973910000000  0.5969140000000  0.5440200000000 1.0
C      1  0.4824810000000  0.6081070000000  0.5229750000000 1.0
C      1  0.4750970000000  0.6049400000000  0.4972430000000 1.0
C      1  0.4752390000000  0.5916630000000  0.4726040000000 1.0
C      1  0.4997850000000  0.5800000000000  0.4631540000000 1.0
C      1  0.5239300000000  0.5981830000000  0.4676980000000 1.0
C      1  0.5339000000000  0.6074370000000  0.4917410000000 1.0
C      1  0.5368120000000  0.6061110000000  0.5185430000000 1.0
C      1  0.4379490000000  0.4123550000000  0.4696920000000 1.0
C      1  0.4702440000000  0.4209760000000  0.4355260000000 1.0
C      1  0.5183940000000  0.4239600000000  0.4306450000000 1.0
C      1  0.5568570000000  0.4299570000000  0.4598850000000 1.0
C      1  0.5704420000000  0.4273400000000  0.5068530000000 1.0
C      1  0.5486320000000  0.4250860000000  0.5493390000000 1.0
C      1  0.5056180000000  0.4252100000000  0.5687560000000 1.0
C      1  0.4609570000000  0.4169460000000  0.5559470000000 1.0
C      1  0.4349480000000  0.4145770000000  0.5167840000000 1.0
C      1  0.5457070000000  0.4811470000000  0.5552880000000 1.0
C      1  0.4933380000000  0.4798140000000  0.5675900000000 1.0
C      1  0.4358970000000  0.4779430000000  0.5548600000000 1.0
C      1  0.4174620000000  0.4649360000000  0.5163430000000 1.0
C      1  0.4393700000000  0.4709330000000  0.4701810000000 1.0
C      1  0.4750430000000  0.4769750000000  0.4306370000000 1.0
C      1  0.5145400000000  0.4801970000000  0.4343010000000 1.0
C      1  0.5690050000000  0.4789940000000  0.4612560000000 1.0
C      1  0.5776260000000  0.4853970000000  0.5195570000000 1.0
END
