TITL C-2782232-2968-381 0.0048595192999362 125000 -345.122759150257 0 0 63 (C1) n - 1
REM
REM in /home/nfs/bkarasulu/CARBON/AIRSS/Generating-Clusters/REBO/Higher-Symm/SD-CG/HFTN-CG
REM
REM
REM
REM
REM
REM ./C.cell (12c818d87b63d06a65506943cc24bca4)
REM
REM compiler GCC version 9.2.1 20190827 (Red Hat 9.2.1-1)
REM options -cpp -mtune=generic -march=x86-64 -g -O0 -fpre-include=/usr/include/finclude/math-vector-fortran.h
REM seed 1460607599 1354032060 -1480157480 140482278 1314779427 1263731210 -1289589445 502824045 -2144563163 2128798575 1356413980 1104590813 1552709760 -2081627442 1889379653 1950168379 144869382 -1704963973 646846207 -717542134 -2097161831 1002112860 1217097184 -407461231 2080083093 -829149849 1075773249 -1924144264 1873469070 -894384111 844542420 -1063790675 -659709572
REM
CELL 1.54180   50.00000   50.00000   50.00000   90.00000   90.00000   90.00000
LATT -1
SFAC C  
C      1  0.5457910000000  0.4353250000000  0.5013730000000 1.0
C      1  0.4339590000000  0.4433210000000  0.5118490000000 1.0
C      1  0.4381640000000  0.5569340000000  0.5063700000000 1.0
C      1  0.5005000000000  0.5897050000000  0.5067420000000 1.0
C      1  0.5868220000000  0.4972680000000  0.5111220000000 1.0
C      1  0.5162600000000  0.5854810000000  0.4876250000000 1.0
C      1  0.4525840000000  0.5675250000000  0.4892340000000 1.0
C      1  0.4252790000000  0.4630830000000  0.4989560000000 1.0
C      1  0.5319810000000  0.4250270000000  0.4830310000000 1.0
C      1  0.5797300000000  0.4771500000000  0.4975680000000 1.0
C      1  0.5669610000000  0.4695020000000  0.4482200000000 1.0
C      1  0.5121370000000  0.4258750000000  0.4330450000000 1.0
C      1  0.4220180000000  0.4828510000000  0.4519370000000 1.0
C      1  0.4713270000000  0.5683810000000  0.4388350000000 1.0
C      1  0.5353830000000  0.5671320000000  0.4415340000000 1.0
C      1  0.5774470000000  0.5326040000000  0.5528050000000 1.0
C      1  0.4946560000000  0.5795230000000  0.5606520000000 1.0
C      1  0.4224550000000  0.5284710000000  0.5508790000000 1.0
C      1  0.4574260000000  0.4311000000000  0.5582460000000 1.0
C      1  0.5443720000000  0.4427540000000  0.5535550000000 1.0
C      1  0.5581840000000  0.4690650000000  0.4789920000000 1.0
C      1  0.5092300000000  0.4273050000000  0.4653540000000 1.0
C      1  0.4350220000000  0.4840250000000  0.4816300000000 1.0
C      1  0.4764640000000  0.5600420000000  0.4715760000000 1.0
C      1  0.5292260000000  0.5646360000000  0.4729830000000 1.0
C      1  0.5718850000000  0.5200980000000  0.5225880000000 1.0
C      1  0.4898780000000  0.5713240000000  0.5279150000000 1.0
C      1  0.4384290000000  0.5329510000000  0.5228150000000 1.0
C      1  0.4609480000000  0.4409300000000  0.5256970000000 1.0
C      1  0.5472190000000  0.4565370000000  0.5225920000000 1.0
C      1  0.4993780000000  0.5291750000000  0.4609290000000 1.0
C      1  0.5452780000000  0.5176390000000  0.4602490000000 1.0
C      1  0.5160100000000  0.4785480000000  0.4502920000000 1.0
C      1  0.4713740000000  0.4565900000000  0.4525100000000 1.0
C      1  0.4663180000000  0.5074310000000  0.4565610000000 1.0
C      1  0.4926750000000  0.4629340000000  0.5359490000000 1.0
C      1  0.5360410000000  0.4906160000000  0.5402540000000 1.0
C      1  0.5208770000000  0.5270650000000  0.5388640000000 1.0
C      1  0.4823470000000  0.5269000000000  0.5486900000000 1.0
C      1  0.4658370000000  0.4915530000000  0.5423960000000 1.0
C      1  0.5211990000000  0.4633490000000  0.5468030000000 1.0
C      1  0.4641980000000  0.4619760000000  0.5519460000000 1.0
C      1  0.4522330000000  0.5192590000000  0.5540580000000 1.0
C      1  0.5044940000000  0.5506690000000  0.5503440000000 1.0
C      1  0.5500120000000  0.5168210000000  0.5514790000000 1.0
C      1  0.5253680000000  0.5376570000000  0.4476240000000 1.0
C      1  0.4705760000000  0.5372140000000  0.4467950000000 1.0
C      1  0.4535460000000  0.4791230000000  0.4497490000000 1.0
C      1  0.5010100000000  0.4546270000000  0.4413370000000 1.0
C      1  0.5448750000000  0.4907590000000  0.4507510000000 1.0
C      1  0.5405510000000  0.5205850000000  0.5128780000000 1.0
C      1  0.5426580000000  0.4870170000000  0.5088300000000 1.0
C      1  0.4848610000000  0.4512240000000  0.5063370000000 1.0
C      1  0.4635210000000  0.5132860000000  0.5162500000000 1.0
C      1  0.4854900000000  0.5393700000000  0.5171340000000 1.0
C      1  0.5254590000000  0.4774450000000  0.4830660000000 1.0
C      1  0.5317840000000  0.5341760000000  0.4868780000000 1.0
C      1  0.4991680000000  0.5440550000000  0.4896690000000 1.0
C      1  0.4645620000000  0.4977420000000  0.4893720000000 1.0
C      1  0.4847830000000  0.4418450000000  0.4755120000000 1.0
C      1  0.4963480000000  0.4979940000000  0.4652290000000 1.0
C      1  0.5009870000000  0.4975340000000  0.5409430000000 1.0
C      1  0.4922590000000  0.4779850000000  0.4908420000000 1.0
END
