TITL C-2782238-9940-1381 -0.00389869036375091 125000 -1118.0637923401 0 0 191 (C1) n - 1
REM
REM in /home/nfs/bkarasulu/CARBON/AIRSS/Generating-Clusters/REBO/Higher-Symm/SD-CG/HFTN-CG
REM
REM
REM
REM
REM
REM ./C.cell (12c818d87b63d06a65506943cc24bca4)
REM
REM compiler GCC version 9.2.1 20190827 (Red Hat 9.2.1-1)
REM options -cpp -mtune=generic -march=x86-64 -g -O0 -fpre-include=/usr/include/finclude/math-vector-fortran.h
REM seed 879164236 -1677901512 1701774562 1478158206 227796386 1637622981 -954793819 390197198 -1687583043 1496389755 -250695121 -384126379 8933144 494304461 -1694344386 499038920 1686823652 59408928 -1735405044 1439047792 1494136436 1150964304 -267879716 2046626867 -729012980 2029698055 -1365198263 1693830489 -1833156903 -1361146470 -1266984866 607851974 1881933748
REM
CELL 1.54180   50.00000   50.00000   50.00000   90.00000   90.00000   90.00000
LATT -1
SFAC C  
C      1  0.3824790000000  0.4971100000000  0.5092230000000 1.0
C      1  0.5541230000000  0.4095240000000  0.5006950000000 1.0
C      1  0.5597740000000  0.5878570000000  0.4970600000000 1.0
C      1  0.4688890000000  0.4488900000000  0.3940600000000 1.0
C      1  0.5799140000000  0.4965330000000  0.4045110000000 1.0
C      1  0.4807460000000  0.5579450000000  0.4047950000000 1.0
C      1  0.4430010000000  0.5028570000000  0.4903760000000 1.0
C      1  0.5473460000000  0.4337030000000  0.4809980000000 1.0
C      1  0.5255890000000  0.5420750000000  0.4860380000000 1.0
C      1  0.4168360000000  0.4736310000000  0.4393560000000 1.0
C      1  0.5705580000000  0.4312830000000  0.4469990000000 1.0
C      1  0.5113940000000  0.6036450000000  0.4381830000000 1.0
C      1  0.6063580000000  0.4435240000000  0.5020130000000 1.0
C      1  0.4787140000000  0.6198280000000  0.5214010000000 1.0
C      1  0.4006740000000  0.4340770000000  0.5101710000000 1.0
C      1  0.5135940000000  0.6075180000000  0.4713270000000 1.0
C      1  0.4028610000000  0.4546520000000  0.4839730000000 1.0
C      1  0.5927440000000  0.4316400000000  0.4730020000000 1.0
C      1  0.5031820000000  0.4183030000000  0.5182470000000 1.0
C      1  0.5639080000000  0.5501010000000  0.5261020000000 1.0
C      1  0.4184930000000  0.5396800000000  0.5137440000000 1.0
C      1  0.5338500000000  0.5832520000000  0.4469500000000 1.0
C      1  0.4098460000000  0.4999380000000  0.4472200000000 1.0
C      1  0.5393430000000  0.4212170000000  0.4439350000000 1.0
C      1  0.4047480000000  0.5688710000000  0.5037090000000 1.0
C      1  0.4882390000000  0.3877830000000  0.5146210000000 1.0
C      1  0.6078770000000  0.5366210000000  0.5118910000000 1.0
C      1  0.5814060000000  0.4697360000000  0.4092320000000 1.0
C      1  0.4930830000000  0.5803810000000  0.3977440000000 1.0
C      1  0.4419420000000  0.4543250000000  0.3972360000000 1.0
C      1  0.5539660000000  0.5766960000000  0.5430070000000 1.0
C      1  0.4258980000000  0.5000260000000  0.5410650000000 1.0
C      1  0.5476450000000  0.4181650000000  0.5559720000000 1.0
C      1  0.4497760000000  0.5650030000000  0.5337950000000 1.0
C      1  0.4568280000000  0.4219160000000  0.5372990000000 1.0
C      1  0.5816020000000  0.4982150000000  0.5274610000000 1.0
C      1  0.5631370000000  0.4574280000000  0.5222020000000 1.0
C      1  0.5052110000000  0.5713090000000  0.5227680000000 1.0
C      1  0.4363570000000  0.4619310000000  0.5370940000000 1.0
C      1  0.4504170000000  0.5167460000000  0.5676750000000 1.0
C      1  0.5018990000000  0.4428840000000  0.5779350000000 1.0
C      1  0.5477740000000  0.5291600000000  0.5654960000000 1.0
C      1  0.5224420000000  0.4857730000000  0.6001370000000 1.0
C      1  0.5000600000000  0.5305050000000  0.6014320000000 1.0
C      1  0.4702930000000  0.4872570000000  0.6083610000000 1.0
C      1  0.5725960000000  0.4851220000000  0.4716400000000 1.0
C      1  0.4555070000000  0.6179650000000  0.4698750000000 1.0
C      1  0.4447250000000  0.4436540000000  0.4841070000000 1.0
C      1  0.4870220000000  0.4380600000000  0.5072480000000 1.0
C      1  0.5521060000000  0.5391350000000  0.5047300000000 1.0
C      1  0.4377500000000  0.5317890000000  0.4924210000000 1.0
C      1  0.4179840000000  0.5267700000000  0.4324990000000 1.0
C      1  0.5230450000000  0.4237390000000  0.4215550000000 1.0
C      1  0.5516390000000  0.5729840000000  0.4253840000000 1.0
C      1  0.5204430000000  0.5090980000000  0.4674360000000 1.0
C      1  0.4740450000000  0.5134760000000  0.4524210000000 1.0
C      1  0.5013710000000  0.4680940000000  0.4554250000000 1.0
C      1  0.5183820000000  0.5153290000000  0.3789490000000 1.0
C      1  0.4881330000000  0.5048270000000  0.3834580000000 1.0
C      1  0.5129490000000  0.4842120000000  0.3841820000000 1.0
C      1  0.5389880000000  0.5991100000000  0.5218690000000 1.0
C      1  0.4024200000000  0.4823210000000  0.5321450000000 1.0
C      1  0.5683410000000  0.4165760000000  0.5305250000000 1.0
C      1  0.4077020000000  0.4491410000000  0.5374380000000 1.0
C      1  0.5904910000000  0.4415780000000  0.5316870000000 1.0
C      1  0.5060690000000  0.6043670000000  0.5290520000000 1.0
C      1  0.4686300000000  0.4641560000000  0.5318510000000 1.0
C      1  0.5458400000000  0.4814250000000  0.5335050000000 1.0
C      1  0.4838890000000  0.5467460000000  0.5247830000000 1.0
C      1  0.4521040000000  0.5653890000000  0.5762120000000 1.0
C      1  0.4721480000000  0.4282010000000  0.5856890000000 1.0
C      1  0.5715550000000  0.5089650000000  0.5789340000000 1.0
C      1  0.4152860000000  0.4501030000000  0.4556820000000 1.0
C      1  0.5974860000000  0.4525300000000  0.4476670000000 1.0
C      1  0.4849890000000  0.6144720000000  0.4550720000000 1.0
C      1  0.5959030000000  0.5250600000000  0.5345310000000 1.0
C      1  0.4175990000000  0.5651100000000  0.5353150000000 1.0
C      1  0.4784450000000  0.3993210000000  0.5433340000000 1.0
C      1  0.5830470000000  0.5736200000000  0.5000840000000 1.0
C      1  0.3813970000000  0.5247030000000  0.5091980000000 1.0
C      1  0.5305040000000  0.3922060000000  0.5061040000000 1.0
C      1  0.4851690000000  0.6018200000000  0.5562200000000 1.0
C      1  0.4193970000000  0.4406280000000  0.5661630000000 1.0
C      1  0.5953360000000  0.4550490000000  0.5591460000000 1.0
C      1  0.5170920000000  0.4752810000000  0.4151100000000 1.0
C      1  0.5322930000000  0.5253910000000  0.4052330000000 1.0
C      1  0.4760590000000  0.5091510000000  0.4128760000000 1.0
C      1  0.4287780000000  0.5522660000000  0.5651620000000 1.0
C      1  0.4916880000000  0.4054120000000  0.5692300000000 1.0
C      1  0.5869470000000  0.5337350000000  0.5607920000000 1.0
C      1  0.4340910000000  0.5460790000000  0.4635170000000 1.0
C      1  0.4956400000000  0.4408990000000  0.4624930000000 1.0
C      1  0.5471630000000  0.4927990000000  0.4565810000000 1.0
C      1  0.4589570000000  0.5522810000000  0.5040610000000 1.0
C      1  0.4592340000000  0.4332750000000  0.5084400000000 1.0
C      1  0.5849610000000  0.4839490000000  0.5020600000000 1.0
C      1  0.5056780000000  0.3950990000000  0.4858750000000 1.0
C      1  0.5956490000000  0.5480210000000  0.4819450000000 1.0
C      1  0.3891930000000  0.5429190000000  0.4875020000000 1.0
C      1  0.4347740000000  0.5005410000000  0.5934190000000 1.0
C      1  0.5285550000000  0.4354790000000  0.5879640000000 1.0
C      1  0.5373640000000  0.5508590000000  0.5776880000000 1.0
C      1  0.5092130000000  0.5652410000000  0.5842270000000 1.0
C      1  0.4338020000000  0.4735230000000  0.5994380000000 1.0
C      1  0.5540690000000  0.4506910000000  0.5930840000000 1.0
C      1  0.4625070000000  0.5375730000000  0.5495860000000 1.0
C      1  0.4838550000000  0.4389460000000  0.5492600000000 1.0
C      1  0.5533460000000  0.5082260000000  0.5435090000000 1.0
C      1  0.4306250000000  0.5702920000000  0.4145620000000 1.0
C      1  0.4723990000000  0.4148270000000  0.4215190000000 1.0
C      1  0.6260090000000  0.5031780000000  0.4226470000000 1.0
C      1  0.5284340000000  0.4808110000000  0.4830030000000 1.0
C      1  0.4776990000000  0.5568080000000  0.4794680000000 1.0
C      1  0.4633880000000  0.4703300000000  0.4800620000000 1.0
C      1  0.5107440000000  0.5304710000000  0.5156310000000 1.0
C      1  0.4527750000000  0.4926390000000  0.5213800000000 1.0
C      1  0.5188660000000  0.4747670000000  0.5320990000000 1.0
C      1  0.5649660000000  0.4548330000000  0.4246890000000 1.0
C      1  0.5057500000000  0.6015600000000  0.4085780000000 1.0
C      1  0.4366260000000  0.4721280000000  0.4186640000000 1.0
C      1  0.6106570000000  0.5033110000000  0.4451810000000 1.0
C      1  0.4356150000000  0.5872580000000  0.4368140000000 1.0
C      1  0.4597210000000  0.4154420000000  0.4467560000000 1.0
C      1  0.5026770000000  0.5618890000000  0.4925220000000 1.0
C      1  0.4291980000000  0.4732090000000  0.4850980000000 1.0
C      1  0.5632770000000  0.4591540000000  0.4913550000000 1.0
C      1  0.5085570000000  0.4775310000000  0.5054610000000 1.0
C      1  0.5032090000000  0.5089970000000  0.4952770000000 1.0
C      1  0.4781210000000  0.4866140000000  0.5004580000000 1.0
C      1  0.5842450000000  0.4425160000000  0.5823330000000 1.0
C      1  0.5100520000000  0.5925060000000  0.5689820000000 1.0
C      1  0.4131880000000  0.4573830000000  0.5881440000000 1.0
C      1  0.6117760000000  0.5254900000000  0.4632170000000 1.0
C      1  0.4271990000000  0.5754450000000  0.4613690000000 1.0
C      1  0.4805080000000  0.4111220000000  0.4691630000000 1.0
C      1  0.5607200000000  0.4719400000000  0.5692050000000 1.0
C      1  0.4891440000000  0.5470000000000  0.5643730000000 1.0
C      1  0.4698660000000  0.4664530000000  0.5743920000000 1.0
C      1  0.5397700000000  0.4690150000000  0.4336620000000 1.0
C      1  0.4645610000000  0.5427450000000  0.4541690000000 1.0
C      1  0.4642720000000  0.4835870000000  0.4280310000000 1.0
C      1  0.6317550000000  0.4934650000000  0.4963440000000 1.0
C      1  0.4400200000000  0.6092960000000  0.4918230000000 1.0
C      1  0.4402360000000  0.3978330000000  0.4984550000000 1.0
C      1  0.4612100000000  0.4546980000000  0.6042220000000 1.0
C      1  0.5509460000000  0.4871840000000  0.5954130000000 1.0
C      1  0.4782050000000  0.5558920000000  0.5954450000000 1.0
C      1  0.4485790000000  0.4833910000000  0.5602410000000 1.0
C      1  0.5540900000000  0.4471100000000  0.5518820000000 1.0
C      1  0.5236460000000  0.5744550000000  0.5485510000000 1.0
C      1  0.4626700000000  0.5857060000000  0.5561180000000 1.0
C      1  0.4454990000000  0.4293460000000  0.5657210000000 1.0
C      1  0.5858420000000  0.4869410000000  0.5571130000000 1.0
C      1  0.4351830000000  0.5423270000000  0.4179730000000 1.0
C      1  0.4955920000000  0.4306890000000  0.4174330000000 1.0
C      1  0.5507620000000  0.5412010000000  0.4268180000000 1.0
C      1  0.5860590000000  0.4162430000000  0.5012680000000 1.0
C      1  0.5326240000000  0.6021810000000  0.4890100000000 1.0
C      1  0.3847030000000  0.4644310000000  0.5087740000000 1.0
C      1  0.4219040000000  0.5876720000000  0.4862230000000 1.0
C      1  0.4663870000000  0.3951510000000  0.4927430000000 1.0
C      1  0.6226830000000  0.5200850000000  0.4909930000000 1.0
C      1  0.5414380000000  0.5516600000000  0.4574110000000 1.0
C      1  0.4532050000000  0.4919680000000  0.4592720000000 1.0
C      1  0.5324740000000  0.4564020000000  0.4631320000000 1.0
C      1  0.4052770000000  0.5293750000000  0.4641390000000 1.0
C      1  0.5195110000000  0.4193120000000  0.4693540000000 1.0
C      1  0.5645210000000  0.5455540000000  0.4784320000000 1.0
C      1  0.5646330000000  0.5174510000000  0.4087100000000 1.0
C      1  0.4656960000000  0.5364100000000  0.4207470000000 1.0
C      1  0.4887180000000  0.4618910000000  0.4180240000000 1.0
C      1  0.5215160000000  0.3974360000000  0.5341920000000 1.0
C      1  0.5909180000000  0.5701920000000  0.5295880000000 1.0
C      1  0.3913250000000  0.5353670000000  0.5356700000000 1.0
C      1  0.4381800000000  0.4302710000000  0.4562400000000 1.0
C      1  0.5954380000000  0.4804260000000  0.4524820000000 1.0
C      1  0.4550520000000  0.6071140000000  0.4405650000000 1.0
C      1  0.6139970000000  0.4732980000000  0.4996190000000 1.0
C      1  0.4523060000000  0.6166060000000  0.5161780000000 1.0
C      1  0.4167790000000  0.4087800000000  0.5053300000000 1.0
C      1  0.5209650000000  0.4047530000000  0.5635040000000 1.0
C      1  0.5804350000000  0.5625350000000  0.5596700000000 1.0
C      1  0.4156770000000  0.5278060000000  0.5516820000000 1.0
C      1  0.4966710000000  0.4720120000000  0.5510790000000 1.0
C      1  0.5077850000000  0.5251040000000  0.5484180000000 1.0
C      1  0.4863820000000  0.5024050000000  0.5583160000000 1.0
C      1  0.5010540000000  0.4739940000000  0.5865450000000 1.0
C      1  0.5125830000000  0.5199730000000  0.5820600000000 1.0
C      1  0.4740260000000  0.5039200000000  0.5871570000000 1.0
C      1  0.4998230000000  0.5004050000000  0.4463570000000 1.0
C      1  0.5097340000000  0.5068600000000  0.4169510000000 1.0
END
