TITL C-2782230-7391-64 -0.0012887220197639 125000 -1032.69711084256 0 0 179 (C1) n - 1
REM
REM in /home/nfs/bkarasulu/CARBON/AIRSS/Generating-Clusters/REBO/Higher-Symm/SD-CG/HFTN-CG
REM
REM
REM
REM
REM
REM ./C.cell (12c818d87b63d06a65506943cc24bca4)
REM
REM compiler GCC version 9.2.1 20190827 (Red Hat 9.2.1-1)
REM options -cpp -mtune=generic -march=x86-64 -g -O0 -fpre-include=/usr/include/finclude/math-vector-fortran.h
REM seed 1529718080 -1049407811 -622109336 -265813219 -798714133 1266912102 703097334 538377443 1983785454 1899537032 -582563064 1139597857 1668898767 698237073 -1575869777 -412677362 -626824696 -898767600 -1088498397 1133373618 -2103402147 -1103135496 -1451658265 -517965634 -105427792 -404270297 1555210441 213121781 2013681588 1345592675 546489558 1571024656 -1212608657
REM
CELL 1.54180   50.00000   50.00000   50.00000   90.00000   90.00000   90.00000
LATT -1
SFAC C  
C      1  0.4874440000000  0.5502040000000  0.4488480000000 1.0
C      1  0.4840120000000  0.4487080000000  0.5468870000000 1.0
C      1  0.5199710000000  0.5473360000000  0.4495360000000 1.0
C      1  0.5139470000000  0.4588770000000  0.5400900000000 1.0
C      1  0.6012080000000  0.4597180000000  0.4587740000000 1.0
C      1  0.6044140000000  0.5430590000000  0.5378870000000 1.0
C      1  0.3951200000000  0.4612560000000  0.4557630000000 1.0
C      1  0.4025090000000  0.5378350000000  0.5407070000000 1.0
C      1  0.4520420000000  0.5317340000000  0.4086450000000 1.0
C      1  0.4563540000000  0.4697450000000  0.5920310000000 1.0
C      1  0.5442090000000  0.5296960000000  0.4098420000000 1.0
C      1  0.5410830000000  0.4819740000000  0.5965820000000 1.0
C      1  0.5760590000000  0.4227590000000  0.4836820000000 1.0
C      1  0.5707770000000  0.5740510000000  0.5172440000000 1.0
C      1  0.4161180000000  0.4277400000000  0.4802680000000 1.0
C      1  0.4228940000000  0.5752340000000  0.5147740000000 1.0
C      1  0.4784260000000  0.5214330000000  0.4343440000000 1.0
C      1  0.4931830000000  0.4676890000000  0.5725670000000 1.0
C      1  0.5104620000000  0.5233220000000  0.4302400000000 1.0
C      1  0.5261720000000  0.4600920000000  0.5690510000000 1.0
C      1  0.4836330000000  0.5443810000000  0.4094760000000 1.0
C      1  0.4838850000000  0.4527680000000  0.5989710000000 1.0
C      1  0.5179180000000  0.5473710000000  0.4081300000000 1.0
C      1  0.5177610000000  0.4581810000000  0.6022350000000 1.0
C      1  0.4823390000000  0.6180300000000  0.5231630000000 1.0
C      1  0.4864290000000  0.3914720000000  0.4729940000000 1.0
C      1  0.5119710000000  0.6013100000000  0.5214910000000 1.0
C      1  0.5169500000000  0.3906930000000  0.4791430000000 1.0
C      1  0.5240660000000  0.5772890000000  0.4169220000000 1.0
C      1  0.5143280000000  0.4283910000000  0.5902890000000 1.0
C      1  0.4898450000000  0.5742960000000  0.4162810000000 1.0
C      1  0.4807810000000  0.4214970000000  0.5901150000000 1.0
C      1  0.4783930000000  0.4523880000000  0.4804690000000 1.0
C      1  0.4845080000000  0.5371030000000  0.5221480000000 1.0
C      1  0.5089010000000  0.4569780000000  0.4770950000000 1.0
C      1  0.5150080000000  0.5371850000000  0.5219880000000 1.0
C      1  0.5510260000000  0.5337240000000  0.5991320000000 1.0
C      1  0.5407850000000  0.4690950000000  0.4021510000000 1.0
C      1  0.4633930000000  0.5314110000000  0.5969660000000 1.0
C      1  0.4594340000000  0.4666920000000  0.4080980000000 1.0
C      1  0.5370480000000  0.5926160000000  0.4446840000000 1.0
C      1  0.5318690000000  0.4197610000000  0.5622510000000 1.0
C      1  0.4740600000000  0.5884170000000  0.4423680000000 1.0
C      1  0.4703630000000  0.4131520000000  0.5587090000000 1.0
C      1  0.4077870000000  0.5195340000000  0.5189700000000 1.0
C      1  0.4026600000000  0.4769860000000  0.4781920000000 1.0
C      1  0.5960720000000  0.5242380000000  0.5178920000000 1.0
C      1  0.5952410000000  0.4769190000000  0.4807780000000 1.0
C      1  0.4360220000000  0.5187610000000  0.5806020000000 1.0
C      1  0.4278630000000  0.4762250000000  0.4175000000000 1.0
C      1  0.5743710000000  0.5283150000000  0.5831650000000 1.0
C      1  0.5678230000000  0.4762370000000  0.4220630000000 1.0
C      1  0.4171350000000  0.4529980000000  0.4382880000000 1.0
C      1  0.4239640000000  0.5433570000000  0.5602230000000 1.0
C      1  0.5789850000000  0.4519410000000  0.4423040000000 1.0
C      1  0.5832380000000  0.5487400000000  0.5601870000000 1.0
C      1  0.5210950000000  0.3844170000000  0.5115280000000 1.0
C      1  0.5212990000000  0.6100390000000  0.4892440000000 1.0
C      1  0.4877480000000  0.3893080000000  0.5061290000000 1.0
C      1  0.4873050000000  0.6109740000000  0.4918310000000 1.0
C      1  0.4865750000000  0.4489630000000  0.3966350000000 1.0
C      1  0.4906700000000  0.5520380000000  0.5965110000000 1.0
C      1  0.5178310000000  0.4506930000000  0.4008380000000 1.0
C      1  0.5236090000000  0.5498770000000  0.6011400000000 1.0
C      1  0.4515720000000  0.4933720000000  0.4432020000000 1.0
C      1  0.4435210000000  0.5079450000000  0.5429760000000 1.0
C      1  0.5468810000000  0.5018100000000  0.4442180000000 1.0
C      1  0.5473640000000  0.5028070000000  0.5460390000000 1.0
C      1  0.5938820000000  0.4720140000000  0.5145650000000 1.0
C      1  0.5966380000000  0.5293340000000  0.4841900000000 1.0
C      1  0.4005270000000  0.4691260000000  0.5112360000000 1.0
C      1  0.4009260000000  0.5273700000000  0.4864110000000 1.0
C      1  0.5194250000000  0.5602990000000  0.5701890000000 1.0
C      1  0.5189610000000  0.4317900000000  0.4279380000000 1.0
C      1  0.4815490000000  0.5749720000000  0.5729090000000 1.0
C      1  0.4750430000000  0.4284180000000  0.4213050000000 1.0
C      1  0.4089290000000  0.5431770000000  0.4582800000000 1.0
C      1  0.4201830000000  0.4606770000000  0.5384590000000 1.0
C      1  0.5936950000000  0.5387070000000  0.4516040000000 1.0
C      1  0.5826760000000  0.4681270000000  0.5468920000000 1.0
C      1  0.5639790000000  0.4279800000000  0.4566890000000 1.0
C      1  0.5692100000000  0.5738860000000  0.5489030000000 1.0
C      1  0.4292960000000  0.4289950000000  0.4551450000000 1.0
C      1  0.4359120000000  0.5706180000000  0.5437450000000 1.0
C      1  0.5091280000000  0.4937820000000  0.4003150000000 1.0
C      1  0.5049620000000  0.5104200000000  0.6160480000000 1.0
C      1  0.4851330000000  0.4952870000000  0.3979830000000 1.0
C      1  0.4814870000000  0.5041330000000  0.6195880000000 1.0
C      1  0.4364570000000  0.4017600000000  0.5227870000000 1.0
C      1  0.4361300000000  0.5954660000000  0.4753310000000 1.0
C      1  0.5652870000000  0.4094490000000  0.5262920000000 1.0
C      1  0.5681220000000  0.6113210000000  0.4804850000000 1.0
C      1  0.5833660000000  0.5045310000000  0.4693070000000 1.0
C      1  0.5910390000000  0.4983600000000  0.5339360000000 1.0
C      1  0.4140820000000  0.5047210000000  0.4672060000000 1.0
C      1  0.4084170000000  0.4922680000000  0.5322310000000 1.0
C      1  0.4536970000000  0.5887570000000  0.5597650000000 1.0
C      1  0.4516180000000  0.4121190000000  0.4389570000000 1.0
C      1  0.5430990000000  0.5776850000000  0.5566400000000 1.0
C      1  0.5445300000000  0.4133340000000  0.4376150000000 1.0
C      1  0.5149200000000  0.4050480000000  0.4489280000000 1.0
C      1  0.5132820000000  0.5871530000000  0.5501900000000 1.0
C      1  0.4829270000000  0.4038280000000  0.4435660000000 1.0
C      1  0.4834440000000  0.5997240000000  0.5494360000000 1.0
C      1  0.4668820000000  0.4700860000000  0.5280910000000 1.0
C      1  0.4696950000000  0.5321470000000  0.4716740000000 1.0
C      1  0.5334840000000  0.4607900000000  0.5188260000000 1.0
C      1  0.5335890000000  0.5370350000000  0.4755290000000 1.0
C      1  0.4823230000000  0.5770300000000  0.4872270000000 1.0
C      1  0.4849350000000  0.4208000000000  0.5182810000000 1.0
C      1  0.5116190000000  0.5796760000000  0.4963050000000 1.0
C      1  0.5154350000000  0.4174630000000  0.5120580000000 1.0
C      1  0.5257480000000  0.5268970000000  0.5689160000000 1.0
C      1  0.5112560000000  0.4636540000000  0.4378300000000 1.0
C      1  0.4740340000000  0.5428130000000  0.5684660000000 1.0
C      1  0.4806460000000  0.4589910000000  0.4341490000000 1.0
C      1  0.5484250000000  0.4911040000000  0.5150170000000 1.0
C      1  0.5486170000000  0.5063770000000  0.4780820000000 1.0
C      1  0.4495870000000  0.4948080000000  0.5136740000000 1.0
C      1  0.4481040000000  0.5053660000000  0.4751480000000 1.0
C      1  0.5268090000000  0.5548780000000  0.4985860000000 1.0
C      1  0.5271690000000  0.4404830000000  0.4976980000000 1.0
C      1  0.4710310000000  0.5513030000000  0.4947920000000 1.0
C      1  0.4724490000000  0.4453630000000  0.5089350000000 1.0
C      1  0.4522410000000  0.4400550000000  0.5502940000000 1.0
C      1  0.4554280000000  0.5607170000000  0.4437610000000 1.0
C      1  0.5537020000000  0.4444400000000  0.5600690000000 1.0
C      1  0.5478170000000  0.5614500000000  0.4449260000000 1.0
C      1  0.4556730000000  0.4988220000000  0.6005730000000 1.0
C      1  0.4556050000000  0.5007200000000  0.4092840000000 1.0
C      1  0.5293520000000  0.5100280000000  0.5978790000000 1.0
C      1  0.5373280000000  0.4998970000000  0.4123110000000 1.0
C      1  0.4341260000000  0.4764550000000  0.4913590000000 1.0
C      1  0.4371790000000  0.5238900000000  0.5020880000000 1.0
C      1  0.5633060000000  0.4764970000000  0.4893780000000 1.0
C      1  0.5645400000000  0.5197680000000  0.5058050000000 1.0
C      1  0.5776840000000  0.6001210000000  0.5032600000000 1.0
C      1  0.5737590000000  0.4017210000000  0.5011520000000 1.0
C      1  0.4258210000000  0.5988490000000  0.5006980000000 1.0
C      1  0.4189000000000  0.3842060000000  0.5144960000000 1.0
C      1  0.4620160000000  0.4364750000000  0.4611090000000 1.0
C      1  0.4555690000000  0.5538510000000  0.5226540000000 1.0
C      1  0.5340310000000  0.4403830000000  0.4649700000000 1.0
C      1  0.5450330000000  0.5528010000000  0.5252940000000 1.0
C      1  0.4245910000000  0.4922310000000  0.5623120000000 1.0
C      1  0.4225300000000  0.5058270000000  0.4340860000000 1.0
C      1  0.5749920000000  0.5032620000000  0.5636540000000 1.0
C      1  0.5777890000000  0.5058090000000  0.4358710000000 1.0
C      1  0.4865010000000  0.4883870000000  0.5496820000000 1.0
C      1  0.4853590000000  0.5039110000000  0.4609380000000 1.0
C      1  0.5131330000000  0.5057650000000  0.5476770000000 1.0
C      1  0.5148380000000  0.4943290000000  0.4476810000000 1.0
C      1  0.4733860000000  0.4823880000000  0.4807810000000 1.0
C      1  0.4803300000000  0.5073100000000  0.5228300000000 1.0
C      1  0.5201170000000  0.4876580000000  0.4804360000000 1.0
C      1  0.5195710000000  0.5066680000000  0.5156080000000 1.0
C      1  0.5736480000000  0.5504290000000  0.4976440000000 1.0
C      1  0.5761710000000  0.4476760000000  0.5002260000000 1.0
C      1  0.4231490000000  0.5521990000000  0.4943160000000 1.0
C      1  0.4222510000000  0.4460990000000  0.5013040000000 1.0
C      1  0.4489880000000  0.4624660000000  0.4462440000000 1.0
C      1  0.4543040000000  0.5356630000000  0.5487270000000 1.0
C      1  0.5451110000000  0.4590790000000  0.4404770000000 1.0
C      1  0.5529660000000  0.5362710000000  0.5505090000000 1.0
C      1  0.5631980000000  0.4738990000000  0.5744030000000 1.0
C      1  0.5676310000000  0.5380060000000  0.4296640000000 1.0
C      1  0.4380030000000  0.4632210000000  0.5677000000000 1.0
C      1  0.4315590000000  0.5387640000000  0.4332610000000 1.0
C      1  0.4653920000000  0.3970760000000  0.5306770000000 1.0
C      1  0.4655960000000  0.5997660000000  0.4697720000000 1.0
C      1  0.5363930000000  0.4042950000000  0.5345580000000 1.0
C      1  0.5434530000000  0.6090800000000  0.4693930000000 1.0
C      1  0.5719430000000  0.4398820000000  0.5330210000000 1.0
C      1  0.5709700000000  0.5539580000000  0.4659980000000 1.0
C      1  0.4328050000000  0.4315090000000  0.5268000000000 1.0
C      1  0.4317100000000  0.5661200000000  0.4645090000000 1.0
C      1  0.5015270000000  0.4069500000000  0.5675440000000 1.0
C      1  0.5050610000000  0.5981430000000  0.4353890000000 1.0
C      1  0.4956690000000  0.4949840000000  0.4985040000000 1.0
END
