TITL C-2782233-7966-1011 0.001317248364628 125000 -974.782377693937 0 0 170 (C1) n - 1
REM
REM in /home/nfs/bkarasulu/CARBON/AIRSS/Generating-Clusters/REBO/Higher-Symm/SD-CG/HFTN-CG
REM
REM
REM
REM
REM
REM ./C.cell (12c818d87b63d06a65506943cc24bca4)
REM
REM compiler GCC version 9.2.1 20190827 (Red Hat 9.2.1-1)
REM options -cpp -mtune=generic -march=x86-64 -g -O0 -fpre-include=/usr/include/finclude/math-vector-fortran.h
REM seed 1870552274 1567695061 -1151515773 319144070 1823177347 714807932 -81285518 614921781 -461929328 646416441 -1998122732 -2066272307 -573128191 620976410 -909836917 -522336441 932688206 1725424215 275643756 -1150347434 -1536488488 1152730742 -1485897129 -397430503 -135290154 -1500891043 -1680887317 -1056497895 -1849130213 1782896367 -366405215 -1727157367 31440956
REM
CELL 1.54180   50.00000   50.00000   50.00000   90.00000   90.00000   90.00000
LATT -1
SFAC C  
C      1  0.5807090000000  0.4390330000000  0.5130650000000 1.0
C      1  0.5808280000000  0.5669030000000  0.4864930000000 1.0
C      1  0.5810920000000  0.4366580000000  0.4850760000000 1.0
C      1  0.5834500000000  0.5675340000000  0.5181860000000 1.0
C      1  0.3998830000000  0.5458940000000  0.4820240000000 1.0
C      1  0.4061760000000  0.4578360000000  0.5135630000000 1.0
C      1  0.4029910000000  0.5422560000000  0.5157340000000 1.0
C      1  0.3958980000000  0.4579100000000  0.4833560000000 1.0
C      1  0.5433780000000  0.4588570000000  0.5150850000000 1.0
C      1  0.5524220000000  0.5490360000000  0.4855990000000 1.0
C      1  0.5380020000000  0.4494990000000  0.4851540000000 1.0
C      1  0.5427110000000  0.5514100000000  0.5155090000000 1.0
C      1  0.4995380000000  0.5537750000000  0.4426890000000 1.0
C      1  0.4992190000000  0.4467400000000  0.5590000000000 1.0
C      1  0.4986650000000  0.5533210000000  0.5607030000000 1.0
C      1  0.4944120000000  0.4454790000000  0.4403940000000 1.0
C      1  0.5220240000000  0.4457580000000  0.4571830000000 1.0
C      1  0.5261720000000  0.5502280000000  0.5432870000000 1.0
C      1  0.5251220000000  0.4467430000000  0.5384290000000 1.0
C      1  0.5262320000000  0.5556410000000  0.4648450000000 1.0
C      1  0.4664710000000  0.5662650000000  0.4242100000000 1.0
C      1  0.4640510000000  0.4367300000000  0.5744580000000 1.0
C      1  0.4622100000000  0.5648360000000  0.5721070000000 1.0
C      1  0.4614070000000  0.4305820000000  0.4240090000000 1.0
C      1  0.5084870000000  0.5126720000000  0.5191570000000 1.0
C      1  0.4967480000000  0.4774680000000  0.4803970000000 1.0
C      1  0.5033390000000  0.5094340000000  0.4859070000000 1.0
C      1  0.5067850000000  0.4803920000000  0.5129400000000 1.0
C      1  0.5909170000000  0.4858480000000  0.4833860000000 1.0
C      1  0.6056940000000  0.5213950000000  0.5184750000000 1.0
C      1  0.5978150000000  0.4891510000000  0.5149600000000 1.0
C      1  0.5993400000000  0.5177420000000  0.4872790000000 1.0
C      1  0.5801130000000  0.4594750000000  0.4400010000000 1.0
C      1  0.5775200000000  0.5373790000000  0.5572340000000 1.0
C      1  0.5852230000000  0.4620570000000  0.5585660000000 1.0
C      1  0.5792770000000  0.5372230000000  0.4437560000000 1.0
C      1  0.5635750000000  0.4865970000000  0.5137480000000 1.0
C      1  0.5671320000000  0.5200900000000  0.4829180000000 1.0
C      1  0.5587410000000  0.4744430000000  0.4819480000000 1.0
C      1  0.5541510000000  0.5195690000000  0.5124010000000 1.0
C      1  0.4994960000000  0.4401710000000  0.4872500000000 1.0
C      1  0.5041310000000  0.5574460000000  0.5214880000000 1.0
C      1  0.5026070000000  0.4369450000000  0.5173550000000 1.0
C      1  0.5051170000000  0.5632970000000  0.4900810000000 1.0
C      1  0.4585480000000  0.5886890000000  0.5263880000000 1.0
C      1  0.4609840000000  0.4021780000000  0.4721270000000 1.0
C      1  0.4599310000000  0.5921110000000  0.4715990000000 1.0
C      1  0.4607460000000  0.4076170000000  0.5276510000000 1.0
C      1  0.4160440000000  0.4584290000000  0.4555010000000 1.0
C      1  0.4197330000000  0.5539810000000  0.5412640000000 1.0
C      1  0.4215350000000  0.4542800000000  0.5437250000000 1.0
C      1  0.4149530000000  0.5517250000000  0.4519830000000 1.0
C      1  0.5609980000000  0.5832850000000  0.4671910000000 1.0
C      1  0.5602080000000  0.4240520000000  0.5303080000000 1.0
C      1  0.5592510000000  0.5819760000000  0.5346500000000 1.0
C      1  0.5604320000000  0.4209020000000  0.4686410000000 1.0
C      1  0.5468720000000  0.4891060000000  0.4145540000000 1.0
C      1  0.5422230000000  0.5157200000000  0.5897820000000 1.0
C      1  0.5503900000000  0.4837320000000  0.5855930000000 1.0
C      1  0.5462160000000  0.5223760000000  0.4188700000000 1.0
C      1  0.4755070000000  0.4747580000000  0.5141110000000 1.0
C      1  0.4754330000000  0.5247750000000  0.4821940000000 1.0
C      1  0.4644800000000  0.4718760000000  0.4818770000000 1.0
C      1  0.4798260000000  0.5240040000000  0.5145990000000 1.0
C      1  0.4054810000000  0.4882850000000  0.4794540000000 1.0
C      1  0.3910710000000  0.5127960000000  0.5219500000000 1.0
C      1  0.3996140000000  0.4843420000000  0.5292940000000 1.0
C      1  0.3913530000000  0.5140410000000  0.4901620000000 1.0
C      1  0.4507360000000  0.4890220000000  0.5727470000000 1.0
C      1  0.4509710000000  0.5153440000000  0.4346170000000 1.0
C      1  0.4438900000000  0.4827460000000  0.4278810000000 1.0
C      1  0.4372360000000  0.5152090000000  0.5714110000000 1.0
C      1  0.4781820000000  0.4471320000000  0.4022060000000 1.0
C      1  0.4743450000000  0.5507070000000  0.5973160000000 1.0
C      1  0.4797320000000  0.4529680000000  0.5975330000000 1.0
C      1  0.4806140000000  0.5450760000000  0.4054140000000 1.0
C      1  0.4815360000000  0.5180020000000  0.6033230000000 1.0
C      1  0.4862820000000  0.4798000000000  0.3971170000000 1.0
C      1  0.4919740000000  0.5126020000000  0.4022320000000 1.0
C      1  0.4895190000000  0.4858550000000  0.5955570000000 1.0
C      1  0.4831630000000  0.4875460000000  0.5626300000000 1.0
C      1  0.4850690000000  0.5167280000000  0.4343710000000 1.0
C      1  0.4767070000000  0.4856140000000  0.4274190000000 1.0
C      1  0.4827230000000  0.5199960000000  0.5701350000000 1.0
C      1  0.5096810000000  0.4828710000000  0.5454980000000 1.0
C      1  0.5082030000000  0.5166520000000  0.4547370000000 1.0
C      1  0.5029680000000  0.4843000000000  0.4490380000000 1.0
C      1  0.5095320000000  0.5150500000000  0.5512100000000 1.0
C      1  0.4478680000000  0.5152280000000  0.4673360000000 1.0
C      1  0.4455850000000  0.4882220000000  0.5126740000000 1.0
C      1  0.4494750000000  0.5172340000000  0.5205450000000 1.0
C      1  0.4372030000000  0.4900410000000  0.4807330000000 1.0
C      1  0.5312340000000  0.4163400000000  0.4856280000000 1.0
C      1  0.5323680000000  0.5842620000000  0.5138570000000 1.0
C      1  0.5323580000000  0.4102750000000  0.5158560000000 1.0
C      1  0.5323930000000  0.5918610000000  0.4838810000000 1.0
C      1  0.4129370000000  0.5204420000000  0.5477200000000 1.0
C      1  0.4116770000000  0.4910910000000  0.4464980000000 1.0
C      1  0.4013060000000  0.5213780000000  0.4578850000000 1.0
C      1  0.4157990000000  0.4866020000000  0.5538730000000 1.0
C      1  0.4484800000000  0.4605130000000  0.5585140000000 1.0
C      1  0.4435430000000  0.5484970000000  0.4391000000000 1.0
C      1  0.4414830000000  0.4518900000000  0.4390000000000 1.0
C      1  0.4448290000000  0.5427390000000  0.5561680000000 1.0
C      1  0.5386060000000  0.5875220000000  0.5613660000000 1.0
C      1  0.5353150000000  0.4172050000000  0.4459380000000 1.0
C      1  0.5315740000000  0.5866670000000  0.4501760000000 1.0
C      1  0.5333760000000  0.4150070000000  0.5495150000000 1.0
C      1  0.5601420000000  0.5134610000000  0.5430840000000 1.0
C      1  0.5581430000000  0.4820830000000  0.4521250000000 1.0
C      1  0.5601290000000  0.5115020000000  0.4546950000000 1.0
C      1  0.5624850000000  0.4828710000000  0.5474810000000 1.0
C      1  0.4350470000000  0.4242090000000  0.5352640000000 1.0
C      1  0.4355170000000  0.5712880000000  0.4707690000000 1.0
C      1  0.4333340000000  0.4134460000000  0.4767100000000 1.0
C      1  0.4313180000000  0.5810750000000  0.5343150000000 1.0
C      1  0.4994920000000  0.5935730000000  0.4752330000000 1.0
C      1  0.5004090000000  0.4051310000000  0.5267900000000 1.0
C      1  0.5000140000000  0.5907890000000  0.5230660000000 1.0
C      1  0.5000590000000  0.4089540000000  0.4741930000000 1.0
C      1  0.5638480000000  0.4338170000000  0.4370350000000 1.0
C      1  0.5602640000000  0.5611850000000  0.5617940000000 1.0
C      1  0.5621690000000  0.4396030000000  0.5605410000000 1.0
C      1  0.5609660000000  0.5617860000000  0.4407680000000 1.0
C      1  0.4683790000000  0.4322200000000  0.4808750000000 1.0
C      1  0.4728170000000  0.5630620000000  0.5136720000000 1.0
C      1  0.4674630000000  0.4359770000000  0.5133190000000 1.0
C      1  0.4730410000000  0.5645850000000  0.4825410000000 1.0
C      1  0.5235680000000  0.5162670000000  0.3972070000000 1.0
C      1  0.5221440000000  0.4829750000000  0.6005450000000 1.0
C      1  0.5147120000000  0.5159420000000  0.6054210000000 1.0
C      1  0.5190150000000  0.4823690000000  0.3987740000000 1.0
C      1  0.5345270000000  0.5287900000000  0.4467120000000 1.0
C      1  0.5358890000000  0.4715900000000  0.5584680000000 1.0
C      1  0.5373770000000  0.5258500000000  0.5606410000000 1.0
C      1  0.5302230000000  0.4724980000000  0.4392220000000 1.0
C      1  0.5071280000000  0.5467110000000  0.5930400000000 1.0
C      1  0.5106680000000  0.4517780000000  0.4111720000000 1.0
C      1  0.5130560000000  0.5447430000000  0.4126940000000 1.0
C      1  0.5118660000000  0.4533560000000  0.5898670000000 1.0
C      1  0.5346790000000  0.5632440000000  0.4264980000000 1.0
C      1  0.5346880000000  0.4356800000000  0.5756220000000 1.0
C      1  0.5320550000000  0.5620490000000  0.5808290000000 1.0
C      1  0.5359840000000  0.4353040000000  0.4173670000000 1.0
C      1  0.4818020000000  0.4182040000000  0.5522790000000 1.0
C      1  0.4825270000000  0.5829770000000  0.4477280000000 1.0
C      1  0.4802660000000  0.4149230000000  0.4469860000000 1.0
C      1  0.4816650000000  0.5804380000000  0.5499330000000 1.0
C      1  0.4396750000000  0.4549000000000  0.5082360000000 1.0
C      1  0.4397370000000  0.5425060000000  0.4816840000000 1.0
C      1  0.4238610000000  0.4394560000000  0.4827930000000 1.0
C      1  0.4330740000000  0.5367570000000  0.5079690000000 1.0
C      1  0.4717180000000  0.5458590000000  0.4579090000000 1.0
C      1  0.4736790000000  0.4556290000000  0.5407330000000 1.0
C      1  0.4728240000000  0.5425020000000  0.5409430000000 1.0
C      1  0.4677030000000  0.4520670000000  0.4568730000000 1.0
C      1  0.5943420000000  0.5438440000000  0.5318270000000 1.0
C      1  0.5926540000000  0.4580590000000  0.4690110000000 1.0
C      1  0.5960630000000  0.5439500000000  0.4695440000000 1.0
C      1  0.5936470000000  0.4605860000000  0.5281010000000 1.0
C      1  0.4455810000000  0.5331130000000  0.5948740000000 1.0
C      1  0.4496540000000  0.4651970000000  0.4022900000000 1.0
C      1  0.4540760000000  0.5247440000000  0.4030220000000 1.0
C      1  0.4523010000000  0.4717360000000  0.5978330000000 1.0
C      1  0.5782720000000  0.4818840000000  0.4176690000000 1.0
C      1  0.5744510000000  0.5149890000000  0.5803220000000 1.0
C      1  0.5822420000000  0.4836210000000  0.5820240000000 1.0
C      1  0.5780020000000  0.5136770000000  0.4192190000000 1.0
C      1  0.4769280000000  0.6003260000000  0.4999810000000 1.0
C      1  0.4798490000000  0.3993080000000  0.5003350000000 1.0
END
