TITL C-2782233-7966-167 -0.000911847496476551 125000 -541.394580224868 0 0 94 (C1) n - 1
REM
REM in /home/nfs/bkarasulu/CARBON/AIRSS/Generating-Clusters/REBO/Higher-Symm/SD-CG/HFTN-CG
REM
REM
REM
REM
REM
REM ./C.cell (12c818d87b63d06a65506943cc24bca4)
REM
REM compiler GCC version 9.2.1 20190827 (Red Hat 9.2.1-1)
REM options -cpp -mtune=generic -march=x86-64 -g -O0 -fpre-include=/usr/include/finclude/math-vector-fortran.h
REM seed 518727501 -674146573 -1038062194 -247431926 -796314096 -118749127 1038110177 1206187541 -688746156 -1329319753 -1420775661 -1174597807 -1161776725 2043468900 -276254070 250507427 592760909 1394105903 -671736161 -837285930 1692972376 1554408031 1814790318 772489750 -86111348 -610824946 -1683840247 1417367627 -697079090 1632888450 411233515 11119358 -2063164784
REM
CELL 1.54180   50.00000   50.00000   50.00000   90.00000   90.00000   90.00000
LATT -1
SFAC C  
C      1  0.4597830000000  0.5659760000000  0.4991420000000 1.0
C      1  0.4600170000000  0.5415280000000  0.5511610000000 1.0
C      1  0.4603790000000  0.4856160000000  0.5642510000000 1.0
C      1  0.4605890000000  0.4402580000000  0.5288630000000 1.0
C      1  0.4591870000000  0.4392500000000  0.4712670000000 1.0
C      1  0.4592630000000  0.4841430000000  0.4351560000000 1.0
C      1  0.4594740000000  0.5404770000000  0.4475740000000 1.0
C      1  0.5028020000000  0.5324780000000  0.5178260000000 1.0
C      1  0.5042710000000  0.5068190000000  0.5379310000000 1.0
C      1  0.5038160000000  0.4750260000000  0.5304910000000 1.0
C      1  0.5016860000000  0.4610210000000  0.5009430000000 1.0
C      1  0.4993520000000  0.4757900000000  0.4714760000000 1.0
C      1  0.4990930000000  0.5075470000000  0.4647220000000 1.0
C      1  0.5005350000000  0.5327760000000  0.4852680000000 1.0
C      1  0.5111290000000  0.5760770000000  0.4509940000000 1.0
C      1  0.5107850000000  0.5863390000000  0.5295660000000 1.0
C      1  0.5101510000000  0.5308020000000  0.5870730000000 1.0
C      1  0.5096790000000  0.4505120000000  0.5786290000000 1.0
C      1  0.5106670000000  0.4079940000000  0.5090880000000 1.0
C      1  0.5102640000000  0.4345240000000  0.4351000000000 1.0
C      1  0.5106870000000  0.5092220000000  0.4093460000000 1.0
C      1  0.4866890000000  0.5739390000000  0.4822630000000 1.0
C      1  0.4870390000000  0.5596540000000  0.5469920000000 1.0
C      1  0.4875350000000  0.5001420000000  0.5757110000000 1.0
C      1  0.4882700000000  0.4407610000000  0.5465480000000 1.0
C      1  0.4857490000000  0.4237850000000  0.4824780000000 1.0
C      1  0.4860270000000  0.4657510000000  0.4309740000000 1.0
C      1  0.4861100000000  0.5321500000000  0.4305560000000 1.0
C      1  0.4554560000000  0.4916260000000  0.4665050000000 1.0
C      1  0.4555100000000  0.5205650000000  0.4728970000000 1.0
C      1  0.4556910000000  0.5337680000000  0.4993960000000 1.0
C      1  0.4558910000000  0.5212210000000  0.5261580000000 1.0
C      1  0.4560470000000  0.4924030000000  0.5328370000000 1.0
C      1  0.4560620000000  0.4690420000000  0.5146050000000 1.0
C      1  0.4556430000000  0.4685240000000  0.4850240000000 1.0
C      1  0.4859910000000  0.4665090000000  0.5690590000000 1.0
C      1  0.4858840000000  0.4239210000000  0.5167240000000 1.0
C      1  0.4847390000000  0.4381560000000  0.4512240000000 1.0
C      1  0.4850900000000  0.4989720000000  0.4221550000000 1.0
C      1  0.4855120000000  0.5596900000000  0.4511510000000 1.0
C      1  0.4855670000000  0.5753430000000  0.5166030000000 1.0
C      1  0.4855950000000  0.5337380000000  0.5694970000000 1.0
C      1  0.4059700000000  0.5336380000000  0.4997050000000 1.0
C      1  0.4061550000000  0.5210500000000  0.5264150000000 1.0
C      1  0.4063130000000  0.4923200000000  0.5332830000000 1.0
C      1  0.4062930000000  0.4689890000000  0.5152050000000 1.0
C      1  0.4058680000000  0.4687450000000  0.4856920000000 1.0
C      1  0.4057090000000  0.4916590000000  0.4670470000000 1.0
C      1  0.4057850000000  0.5205260000000  0.4732600000000 1.0
C      1  0.5789680000000  0.5308620000000  0.5112290000000 1.0
C      1  0.5799720000000  0.5124900000000  0.5336050000000 1.0
C      1  0.5789090000000  0.4841290000000  0.5310780000000 1.0
C      1  0.5673170000000  0.4744290000000  0.5050480000000 1.0
C      1  0.5784520000000  0.4760180000000  0.4768970000000 1.0
C      1  0.5794750000000  0.5024860000000  0.4663150000000 1.0
C      1  0.5787600000000  0.5265480000000  0.4824920000000 1.0
C      1  0.5466650000000  0.4765320000000  0.4394050000000 1.0
C      1  0.5464720000000  0.5323450000000  0.4450490000000 1.0
C      1  0.5471600000000  0.5636740000000  0.4915140000000 1.0
C      1  0.5479310000000  0.5482570000000  0.5458630000000 1.0
C      1  0.5489300000000  0.4958250000000  0.5684950000000 1.0
C      1  0.5495410000000  0.4461980000000  0.5417420000000 1.0
C      1  0.5459390000000  0.4378850000000  0.4794650000000 1.0
C      1  0.4279970000000  0.4870980000000  0.4478000000000 1.0
C      1  0.4281440000000  0.5325250000000  0.4576500000000 1.0
C      1  0.4284030000000  0.5532450000000  0.4993210000000 1.0
C      1  0.4286690000000  0.5334570000000  0.5414570000000 1.0
C      1  0.4289520000000  0.4882620000000  0.5521800000000 1.0
C      1  0.4289550000000  0.4515450000000  0.5236710000000 1.0
C      1  0.4281400000000  0.4510150000000  0.4770920000000 1.0
C      1  0.5624410000000  0.5212690000000  0.5552500000000 1.0
C      1  0.5636240000000  0.4714440000000  0.5528320000000 1.0
C      1  0.5554180000000  0.4453190000000  0.5086500000000 1.0
C      1  0.5616530000000  0.4581040000000  0.4604640000000 1.0
C      1  0.5611440000000  0.5046890000000  0.4437540000000 1.0
C      1  0.5609810000000  0.5459540000000  0.4697850000000 1.0
C      1  0.5614990000000  0.5533370000000  0.5179390000000 1.0
C      1  0.5168200000000  0.5560100000000  0.5009020000000 1.0
C      1  0.5180400000000  0.5348180000000  0.5462030000000 1.0
C      1  0.5194830000000  0.4855290000000  0.5571050000000 1.0
C      1  0.5206110000000  0.4475370000000  0.5242800000000 1.0
C      1  0.5157410000000  0.4483680000000  0.4743070000000 1.0
C      1  0.5160950000000  0.4870370000000  0.4458530000000 1.0
C      1  0.5158850000000  0.5342730000000  0.4567390000000 1.0
C      1  0.5197570000000  0.4615660000000  0.4249030000000 1.0
C      1  0.5199170000000  0.5343280000000  0.4238500000000 1.0
C      1  0.5203970000000  0.5810300000000  0.4795570000000 1.0
C      1  0.5203770000000  0.5674920000000  0.5514510000000 1.0
C      1  0.5204200000000  0.5022320000000  0.5859550000000 1.0
C      1  0.5209530000000  0.4346460000000  0.5555140000000 1.0
C      1  0.5195610000000  0.4162900000000  0.4811180000000 1.0
C      1  0.5149770000000  0.4986840000000  0.5002950000000 1.0
C      1  0.4884000000000  0.4987020000000  0.5022080000000 1.0
C      1  0.5404730000000  0.4914520000000  0.5016070000000 1.0
END
