TITL C-2782231-7322-8 -0.000660245431890298 125000 -1118.69193178201 0 0 194 (C1) n - 1
REM
REM in /home/nfs/bkarasulu/CARBON/AIRSS/Generating-Clusters/REBO/Higher-Symm/SD-CG/HFTN-CG
REM
REM
REM
REM
REM
REM ./C.cell (12c818d87b63d06a65506943cc24bca4)
REM
REM compiler GCC version 9.2.1 20190827 (Red Hat 9.2.1-1)
REM options -cpp -mtune=generic -march=x86-64 -g -O0 -fpre-include=/usr/include/finclude/math-vector-fortran.h
REM seed -1799553523 2022268702 1396028941 1622419383 76041457 2029848638 -284585772 -2014059552 591409487 -429546945 72277587 -554556632 1375314197 -230769320 -2092544187 -126575279 98455254 -1619553628 901214723 -154313118 -105865339 1829248240 1559839237 -1956135061 -2017568187 -1985985431 -797662247 -1426047660 -1420187793 -1193441533 836959401 -2051389882 1793016135
REM
CELL 1.54180   50.00000   50.00000   50.00000   90.00000   90.00000   90.00000
LATT -1
SFAC C  
C      1  0.4199610000000  0.4206920000000  0.4735830000000 1.0
C      1  0.4185330000000  0.5209360000000  0.5778420000000 1.0
C      1  0.4111780000000  0.5564460000000  0.4465160000000 1.0
C      1  0.5014930000000  0.4793360000000  0.4260150000000 1.0
C      1  0.5046000000000  0.4432110000000  0.5513100000000 1.0
C      1  0.5169970000000  0.5624400000000  0.5188510000000 1.0
C      1  0.4120680000000  0.5495570000000  0.5360110000000 1.0
C      1  0.4122730000000  0.5004850000000  0.4387620000000 1.0
C      1  0.4282000000000  0.4483400000000  0.5223910000000 1.0
C      1  0.5227160000000  0.5834700000000  0.5967290000000 1.0
C      1  0.5238570000000  0.5430080000000  0.3795670000000 1.0
C      1  0.5213720000000  0.3906170000000  0.5268150000000 1.0
C      1  0.4717910000000  0.5908130000000  0.5171910000000 1.0
C      1  0.4737070000000  0.4725310000000  0.4071110000000 1.0
C      1  0.4727690000000  0.4401720000000  0.5660360000000 1.0
C      1  0.4403950000000  0.5433320000000  0.5911420000000 1.0
C      1  0.4342470000000  0.5546240000000  0.4211340000000 1.0
C      1  0.4425790000000  0.4001460000000  0.4886090000000 1.0
C      1  0.5103460000000  0.4739600000000  0.4554800000000 1.0
C      1  0.5019800000000  0.4771120000000  0.5468140000000 1.0
C      1  0.5110090000000  0.5470560000000  0.4884370000000 1.0
C      1  0.3914820000000  0.4940840000000  0.4564580000000 1.0
C      1  0.4016470000000  0.4577140000000  0.5263280000000 1.0
C      1  0.3916090000000  0.5356930000000  0.5222690000000 1.0
C      1  0.4318780000000  0.4228810000000  0.5117820000000 1.0
C      1  0.4186630000000  0.5512190000000  0.5652860000000 1.0
C      1  0.4166900000000  0.5250140000000  0.4256830000000 1.0
C      1  0.5823370000000  0.5220990000000  0.5283550000000 1.0
C      1  0.5865470000000  0.5135540000000  0.4789550000000 1.0
C      1  0.5845400000000  0.4703230000000  0.5056930000000 1.0
C      1  0.5030170000000  0.5238040000000  0.3960990000000 1.0
C      1  0.5078620000000  0.4216220000000  0.5292990000000 1.0
C      1  0.5100670000000  0.5756210000000  0.5691830000000 1.0
C      1  0.5466560000000  0.4677150000000  0.5504810000000 1.0
C      1  0.5514680000000  0.5566030000000  0.4966510000000 1.0
C      1  0.5513050000000  0.4736520000000  0.4468430000000 1.0
C      1  0.5704040000000  0.4365360000000  0.5434420000000 1.0
C      1  0.5660470000000  0.5697670000000  0.5433690000000 1.0
C      1  0.5666710000000  0.4983270000000  0.4197390000000 1.0
C      1  0.4895300000000  0.5486070000000  0.5980010000000 1.0
C      1  0.4866000000000  0.5566020000000  0.4119820000000 1.0
C      1  0.4925240000000  0.3950000000000  0.4855410000000 1.0
C      1  0.5805730000000  0.5523280000000  0.4861960000000 1.0
C      1  0.5742880000000  0.4666140000000  0.4675000000000 1.0
C      1  0.5676880000000  0.4912580000000  0.5490540000000 1.0
C      1  0.3999480000000  0.5262200000000  0.4923350000000 1.0
C      1  0.4009890000000  0.4717950000000  0.4778410000000 1.0
C      1  0.4026360000000  0.4892090000000  0.5366190000000 1.0
C      1  0.4348180000000  0.4724060000000  0.4735900000000 1.0
C      1  0.4356830000000  0.4963170000000  0.5364460000000 1.0
C      1  0.4319680000000  0.5237030000000  0.4803570000000 1.0
C      1  0.4825780000000  0.4802180000000  0.3764250000000 1.0
C      1  0.4794350000000  0.4160670000000  0.5870590000000 1.0
C      1  0.4916940000000  0.6071960000000  0.5327790000000 1.0
C      1  0.4456280000000  0.4432550000000  0.4755830000000 1.0
C      1  0.4447410000000  0.5062990000000  0.5645800000000 1.0
C      1  0.4363650000000  0.5392450000000  0.4577540000000 1.0
C      1  0.4638350000000  0.5706900000000  0.4264280000000 1.0
C      1  0.4682200000000  0.3956000000000  0.4680360000000 1.0
C      1  0.4657600000000  0.5317860000000  0.6061760000000 1.0
C      1  0.5715010000000  0.5911210000000  0.4945700000000 1.0
C      1  0.5562280000000  0.4376430000000  0.4236190000000 1.0
C      1  0.5641130000000  0.4622920000000  0.5893480000000 1.0
C      1  0.5515510000000  0.4530180000000  0.5201270000000 1.0
C      1  0.5491090000000  0.5441700000000  0.5285190000000 1.0
C      1  0.5495190000000  0.5063930000000  0.4481550000000 1.0
C      1  0.5864280000000  0.4368150000000  0.4669570000000 1.0
C      1  0.5852040000000  0.5052920000000  0.5724490000000 1.0
C      1  0.5842690000000  0.5476880000000  0.4585220000000 1.0
C      1  0.5606070000000  0.5684600000000  0.5740160000000 1.0
C      1  0.5608930000000  0.5228790000000  0.4005290000000 1.0
C      1  0.5607640000000  0.4144920000000  0.5233370000000 1.0
C      1  0.4168310000000  0.4722230000000  0.5854950000000 1.0
C      1  0.4272130000000  0.5662840000000  0.4944690000000 1.0
C      1  0.4220450000000  0.4527320000000  0.4341630000000 1.0
C      1  0.5301800000000  0.4662010000000  0.5896260000000 1.0
C      1  0.5397230000000  0.5916690000000  0.4817310000000 1.0
C      1  0.5231090000000  0.4459250000000  0.4284470000000 1.0
C      1  0.5102930000000  0.4226650000000  0.4949970000000 1.0
C      1  0.5123610000000  0.5413190000000  0.5731630000000 1.0
C      1  0.5158060000000  0.5412050000000  0.4223950000000 1.0
C      1  0.4638240000000  0.4434420000000  0.4104310000000 1.0
C      1  0.4729410000000  0.4636550000000  0.5886950000000 1.0
C      1  0.4631410000000  0.6004380000000  0.4872070000000 1.0
C      1  0.4884250000000  0.5457870000000  0.5208700000000 1.0
C      1  0.4821390000000  0.5016890000000  0.4529260000000 1.0
C      1  0.4911860000000  0.4551580000000  0.5156660000000 1.0
C      1  0.5960890000000  0.5842640000000  0.5081700000000 1.0
C      1  0.5836510000000  0.4468520000000  0.4343720000000 1.0
C      1  0.5889440000000  0.4716890000000  0.5764690000000 1.0
C      1  0.4056010000000  0.4451240000000  0.4576120000000 1.0
C      1  0.4064510000000  0.4923850000000  0.5702600000000 1.0
C      1  0.4062210000000  0.5554420000000  0.4784400000000 1.0
C      1  0.4472730000000  0.4181040000000  0.4533690000000 1.0
C      1  0.4596710000000  0.5011640000000  0.5925150000000 1.0
C      1  0.4510780000000  0.5654050000000  0.4555850000000 1.0
C      1  0.5085890000000  0.4420010000000  0.4688230000000 1.0
C      1  0.5032970000000  0.5090400000000  0.5716910000000 1.0
C      1  0.5107470000000  0.5586600000000  0.4505740000000 1.0
C      1  0.5572830000000  0.4251410000000  0.4710050000000 1.0
C      1  0.5540050000000  0.5150580000000  0.5780480000000 1.0
C      1  0.5599280000000  0.5555800000000  0.4424110000000 1.0
C      1  0.4419970000000  0.5256680000000  0.4048130000000 1.0
C      1  0.4508080000000  0.3963060000000  0.5214740000000 1.0
C      1  0.4479580000000  0.5678160000000  0.5687030000000 1.0
C      1  0.4746520000000  0.5207950000000  0.4270030000000 1.0
C      1  0.4706020000000  0.4305330000000  0.5181350000000 1.0
C      1  0.4739310000000  0.5457170000000  0.5479570000000 1.0
C      1  0.5957070000000  0.4852370000000  0.4681700000000 1.0
C      1  0.5924800000000  0.4840370000000  0.5331190000000 1.0
C      1  0.5957290000000  0.5418600000000  0.5060410000000 1.0
C      1  0.5538070000000  0.4709180000000  0.4920400000000 1.0
C      1  0.5500950000000  0.5119600000000  0.5337820000000 1.0
C      1  0.5560720000000  0.5163430000000  0.4763410000000 1.0
C      1  0.4486670000000  0.4714230000000  0.5232350000000 1.0
C      1  0.4389580000000  0.5503980000000  0.5205110000000 1.0
C      1  0.4383250000000  0.4804330000000  0.4408980000000 1.0
C      1  0.5074210000000  0.5837060000000  0.4734000000000 1.0
C      1  0.4908850000000  0.4434160000000  0.4397500000000 1.0
C      1  0.5016060000000  0.4820200000000  0.5904960000000 1.0
C      1  0.5437270000000  0.4274670000000  0.4990410000000 1.0
C      1  0.5446500000000  0.5419210000000  0.5624430000000 1.0
C      1  0.5460030000000  0.5315510000000  0.4278990000000 1.0
C      1  0.4794910000000  0.4843500000000  0.6152930000000 1.0
C      1  0.4830410000000  0.6020520000000  0.4666820000000 1.0
C      1  0.4785810000000  0.4193850000000  0.4238650000000 1.0
C      1  0.4412260000000  0.4331520000000  0.4268650000000 1.0
C      1  0.4421470000000  0.4726500000000  0.5944580000000 1.0
C      1  0.4447800000000  0.5810000000000  0.4783250000000 1.0
C      1  0.5387630000000  0.4460400000000  0.4583690000000 1.0
C      1  0.5332530000000  0.4930680000000  0.5691490000000 1.0
C      1  0.5397270000000  0.5623020000000  0.4651660000000 1.0
C      1  0.5140400000000  0.5866620000000  0.5425620000000 1.0
C      1  0.5048440000000  0.4943370000000  0.3953470000000 1.0
C      1  0.5061910000000  0.4169760000000  0.5932650000000 1.0
C      1  0.4544830000000  0.4959760000000  0.4160840000000 1.0
C      1  0.4544160000000  0.4212350000000  0.5447230000000 1.0
C      1  0.4564000000000  0.5719450000000  0.5359860000000 1.0
C      1  0.5490170000000  0.3916280000000  0.5325540000000 1.0
C      1  0.5507890000000  0.5829370000000  0.5944670000000 1.0
C      1  0.5502890000000  0.5337040000000  0.3782660000000 1.0
C      1  0.6103500000000  0.5524180000000  0.5508360000000 1.0
C      1  0.6043070000000  0.5013040000000  0.4326640000000 1.0
C      1  0.6057380000000  0.4432400000000  0.5260400000000 1.0
C      1  0.5312310000000  0.5210920000000  0.4922570000000 1.0
C      1  0.5279010000000  0.4824400000000  0.4825610000000 1.0
C      1  0.5230390000000  0.4979200000000  0.5308890000000 1.0
C      1  0.3795750000000  0.5155960000000  0.4691480000000 1.0
C      1  0.3864710000000  0.4546040000000  0.5030470000000 1.0
C      1  0.3808190000000  0.5143790000000  0.5362630000000 1.0
C      1  0.4737650000000  0.5114430000000  0.6281630000000 1.0
C      1  0.4734240000000  0.5982430000000  0.4409750000000 1.0
C      1  0.4755590000000  0.3956740000000  0.4364110000000 1.0
C      1  0.4757650000000  0.4769120000000  0.3518090000000 1.0
C      1  0.4596090000000  0.3990130000000  0.5955720000000 1.0
C      1  0.4912440000000  0.6329400000000  0.5377360000000 1.0
C      1  0.4804870000000  0.5653270000000  0.5721320000000 1.0
C      1  0.4718830000000  0.5324570000000  0.3952300000000 1.0
C      1  0.4838000000000  0.4014470000000  0.5161210000000 1.0
C      1  0.5995080000000  0.5227250000000  0.4504740000000 1.0
C      1  0.5989280000000  0.4439080000000  0.4970770000000 1.0
C      1  0.5986700000000  0.5274540000000  0.5541590000000 1.0
C      1  0.5652040000000  0.5789180000000  0.4234360000000 1.0
C      1  0.5548330000000  0.3970320000000  0.4592870000000 1.0
C      1  0.5515090000000  0.5201020000000  0.6085410000000 1.0
C      1  0.5099870000000  0.5654580000000  0.3911630000000 1.0
C      1  0.5127210000000  0.3767850000000  0.5043460000000 1.0
C      1  0.5069340000000  0.5689530000000  0.6150340000000 1.0
C      1  0.4819400000000  0.5286210000000  0.4831960000000 1.0
C      1  0.4877200000000  0.4738260000000  0.4810050000000 1.0
C      1  0.4831850000000  0.5021320000000  0.5325000000000 1.0
C      1  0.5897880000000  0.4744990000000  0.4280210000000 1.0
C      1  0.5966280000000  0.4520090000000  0.5548480000000 1.0
C      1  0.5956160000000  0.5714600000000  0.5347950000000 1.0
C      1  0.4545460000000  0.5201900000000  0.5240450000000 1.0
C      1  0.4572210000000  0.5145830000000  0.4937390000000 1.0
C      1  0.4573550000000  0.4834080000000  0.4928780000000 1.0
C      1  0.4895070000000  0.5357180000000  0.4519590000000 1.0
C      1  0.4707690000000  0.4459090000000  0.4899180000000 1.0
C      1  0.4738250000000  0.5175360000000  0.5589090000000 1.0
C      1  0.5242170000000  0.4695300000000  0.4037450000000 1.0
C      1  0.5216330000000  0.4370830000000  0.5763600000000 1.0
C      1  0.5224420000000  0.5951370000000  0.5106670000000 1.0
C      1  0.5517960000000  0.4397550000000  0.5692680000000 1.0
C      1  0.5512860000000  0.5826260000000  0.5186570000000 1.0
C      1  0.5526040000000  0.4689800000000  0.4143850000000 1.0
C      1  0.5090310000000  0.4789950000000  0.5075820000000 1.0
C      1  0.5047640000000  0.5180810000000  0.5141900000000 1.0
C      1  0.5066240000000  0.5082490000000  0.4753330000000 1.0
C      1  0.4719210000000  0.4634150000000  0.5407540000000 1.0
C      1  0.4858130000000  0.5689060000000  0.4954860000000 1.0
C      1  0.4708470000000  0.4701490000000  0.4468970000000 1.0
C      1  0.4039250000000  0.4948810000000  0.5028000000000 1.0
C      1  0.5949800000000  0.5020320000000  0.5054260000000 1.0
END
