TITL C-2782236-320-531 0.000298389361350501 125000 -926.374663920601 0 0 163 (C1) n - 1
REM
REM in /home/nfs/bkarasulu/CARBON/AIRSS/Generating-Clusters/REBO/Higher-Symm/SD-CG/HFTN-CG
REM
REM
REM
REM
REM
REM ./C.cell (12c818d87b63d06a65506943cc24bca4)
REM
REM compiler GCC version 9.2.1 20190827 (Red Hat 9.2.1-1)
REM options -cpp -mtune=generic -march=x86-64 -g -O0 -fpre-include=/usr/include/finclude/math-vector-fortran.h
REM seed -364530859 329498900 109649134 -1435707189 1080568582 1364504494 1618905132 -1576443079 -1326048927 -829039208 1999402385 -1486292648 -25115441 -234692360 1002731814 2141599521 536807846 536070141 -1460558642 -1178619263 -462929238 -355587301 -227541857 -1107562251 -1755466691 1077377415 318419012 -737010565 -1855641013 -2041561515 -167232207 2026794452 446383788
REM
CELL 1.54180   50.00000   50.00000   50.00000   90.00000   90.00000   90.00000
LATT -1
SFAC C  
C      1  0.5936830000000  0.4419590000000  0.5697600000000 1.0
C      1  0.4432590000000  0.5671360000000  0.5932460000000 1.0
C      1  0.5666830000000  0.5931730000000  0.4444690000000 1.0
C      1  0.4125230000000  0.4510770000000  0.4272320000000 1.0
C      1  0.4071060000000  0.5492660000000  0.5677960000000 1.0
C      1  0.5920310000000  0.5572680000000  0.4255850000000 1.0
C      1  0.5492350000000  0.5686320000000  0.4074950000000 1.0
C      1  0.5539970000000  0.4238250000000  0.5893190000000 1.0
C      1  0.4511660000000  0.4266150000000  0.4127350000000 1.0
C      1  0.4251090000000  0.5921690000000  0.5567570000000 1.0
C      1  0.4269400000000  0.4125090000000  0.4519840000000 1.0
C      1  0.5687760000000  0.4083600000000  0.5466150000000 1.0
C      1  0.5707210000000  0.4473750000000  0.5866200000000 1.0
C      1  0.5855140000000  0.5716730000000  0.4498310000000 1.0
C      1  0.4490250000000  0.5859010000000  0.5718150000000 1.0
C      1  0.4281910000000  0.4423090000000  0.4044230000000 1.0
C      1  0.5681610000000  0.5471650000000  0.4127080000000 1.0
C      1  0.4308210000000  0.5428810000000  0.5832870000000 1.0
C      1  0.4126480000000  0.5681780000000  0.5464160000000 1.0
C      1  0.5858960000000  0.4316190000000  0.5438490000000 1.0
C      1  0.4041580000000  0.4282990000000  0.4432410000000 1.0
C      1  0.5425540000000  0.5834680000000  0.4315550000000 1.0
C      1  0.4427650000000  0.4040630000000  0.4290750000000 1.0
C      1  0.5457820000000  0.4133650000000  0.5635640000000 1.0
C      1  0.5316710000000  0.4920090000000  0.4533470000000 1.0
C      1  0.4996130000000  0.4501560000000  0.5310170000000 1.0
C      1  0.4521790000000  0.5302790000000  0.4945860000000 1.0
C      1  0.4710160000000  0.4986700000000  0.5509670000000 1.0
C      1  0.4742910000000  0.4944060000000  0.4477700000000 1.0
C      1  0.5288740000000  0.5042340000000  0.5517870000000 1.0
C      1  0.4946520000000  0.4488360000000  0.4726450000000 1.0
C      1  0.5036430000000  0.5513000000000  0.5284650000000 1.0
C      1  0.4978810000000  0.5503270000000  0.4709260000000 1.0
C      1  0.5504450000000  0.5279010000000  0.5055160000000 1.0
C      1  0.5520120000000  0.4692830000000  0.5000510000000 1.0
C      1  0.4470780000000  0.4746770000000  0.4944370000000 1.0
C      1  0.4522110000000  0.4994480000000  0.5273900000000 1.0
C      1  0.5269230000000  0.4514720000000  0.4961090000000 1.0
C      1  0.4996350000000  0.5269140000000  0.4518410000000 1.0
C      1  0.5524180000000  0.5010020000000  0.4726500000000 1.0
C      1  0.4575100000000  0.5084800000000  0.4683660000000 1.0
C      1  0.5515390000000  0.5003370000000  0.5341910000000 1.0
C      1  0.4680770000000  0.4573390000000  0.5080380000000 1.0
C      1  0.5324300000000  0.5501370000000  0.5009240000000 1.0
C      1  0.4717700000000  0.5516420000000  0.5012100000000 1.0
C      1  0.5010330000000  0.5328680000000  0.5506680000000 1.0
C      1  0.5010550000000  0.4724140000000  0.5517350000000 1.0
C      1  0.5072190000000  0.4680410000000  0.4528530000000 1.0
C      1  0.4767380000000  0.5443210000000  0.5661860000000 1.0
C      1  0.5437450000000  0.5653480000000  0.4767630000000 1.0
C      1  0.5680560000000  0.4773910000000  0.5461710000000 1.0
C      1  0.5264160000000  0.5357650000000  0.4349700000000 1.0
C      1  0.5269930000000  0.4607450000000  0.5688730000000 1.0
C      1  0.4707400000000  0.4443290000000  0.4285140000000 1.0
C      1  0.4601610000000  0.5689620000000  0.5261500000000 1.0
C      1  0.4443810000000  0.4289900000000  0.4713320000000 1.0
C      1  0.5418480000000  0.4373970000000  0.5219410000000 1.0
C      1  0.4289770000000  0.4704540000000  0.4446310000000 1.0
C      1  0.4353710000000  0.5265050000000  0.5357800000000 1.0
C      1  0.5683210000000  0.5257750000000  0.4597580000000 1.0
C      1  0.5726650000000  0.5528920000000  0.4702410000000 1.0
C      1  0.4699370000000  0.5731640000000  0.5536080000000 1.0
C      1  0.5543650000000  0.4697550000000  0.5741460000000 1.0
C      1  0.4308580000000  0.5543410000000  0.5258240000000 1.0
C      1  0.5708400000000  0.4541920000000  0.5257830000000 1.0
C      1  0.4321770000000  0.4586200000000  0.4722480000000 1.0
C      1  0.5240790000000  0.5652210000000  0.4523640000000 1.0
C      1  0.4713450000000  0.4330550000000  0.4590160000000 1.0
C      1  0.5251810000000  0.4332940000000  0.5486070000000 1.0
C      1  0.4588390000000  0.4716740000000  0.4329330000000 1.0
C      1  0.5542240000000  0.5263650000000  0.4304200000000 1.0
C      1  0.4521370000000  0.5245330000000  0.5657210000000 1.0
C      1  0.4221330000000  0.4674090000000  0.5575540000000 1.0
C      1  0.4670060000000  0.5568420000000  0.4214260000000 1.0
C      1  0.5543000000000  0.4206190000000  0.4600390000000 1.0
C      1  0.5791240000000  0.4657250000000  0.4403500000000 1.0
C      1  0.5811480000000  0.5350270000000  0.5608930000000 1.0
C      1  0.4198280000000  0.5327280000000  0.4382240000000 1.0
C      1  0.5344280000000  0.5612040000000  0.5811090000000 1.0
C      1  0.5347440000000  0.4412770000000  0.4114590000000 1.0
C      1  0.4663060000000  0.4394540000000  0.5789040000000 1.0
C      1  0.4398340000000  0.4215420000000  0.5326720000000 1.0
C      1  0.4392340000000  0.5788230000000  0.4656430000000 1.0
C      1  0.5609720000000  0.5809670000000  0.5342350000000 1.0
C      1  0.5605050000000  0.4624990000000  0.4145630000000 1.0
C      1  0.4162130000000  0.5575800000000  0.4612470000000 1.0
C      1  0.4616790000000  0.4168250000000  0.5573710000000 1.0
C      1  0.4424070000000  0.4616220000000  0.5806430000000 1.0
C      1  0.5580130000000  0.5366760000000  0.5820560000000 1.0
C      1  0.4440280000000  0.5338210000000  0.4181740000000 1.0
C      1  0.5826450000000  0.5584260000000  0.5365730000000 1.0
C      1  0.4186430000000  0.4443390000000  0.5348190000000 1.0
C      1  0.5775840000000  0.4408090000000  0.4625470000000 1.0
C      1  0.5304410000000  0.4236000000000  0.4375100000000 1.0
C      1  0.4613980000000  0.5799300000000  0.4417110000000 1.0
C      1  0.5364550000000  0.5824230000000  0.5577810000000 1.0
C      1  0.5536870000000  0.4221620000000  0.4938560000000 1.0
C      1  0.4210980000000  0.5000630000000  0.5520970000000 1.0
C      1  0.4996050000000  0.5511480000000  0.4203650000000 1.0
C      1  0.4490950000000  0.4201850000000  0.5010220000000 1.0
C      1  0.4464390000000  0.5821610000000  0.4979500000000 1.0
C      1  0.5526680000000  0.5845420000000  0.5019150000000 1.0
C      1  0.5828500000000  0.4979700000000  0.4471120000000 1.0
C      1  0.5867250000000  0.5031310000000  0.5530040000000 1.0
C      1  0.4195340000000  0.5002010000000  0.4473610000000 1.0
C      1  0.5020840000000  0.5522940000000  0.5855820000000 1.0
C      1  0.5020550000000  0.4457360000000  0.4201290000000 1.0
C      1  0.4988410000000  0.4461710000000  0.5814820000000 1.0
C      1  0.4948260000000  0.4207320000000  0.5582510000000 1.0
C      1  0.5581320000000  0.4950020000000  0.4230860000000 1.0
C      1  0.4224530000000  0.5573100000000  0.4947290000000 1.0
C      1  0.4989410000000  0.4210100000000  0.4443400000000 1.0
C      1  0.4940780000000  0.5777360000000  0.4420450000000 1.0
C      1  0.5030840000000  0.5756510000000  0.5599280000000 1.0
C      1  0.4426510000000  0.4943350000000  0.5787310000000 1.0
C      1  0.5606230000000  0.5031680000000  0.5758270000000 1.0
C      1  0.4441820000000  0.5007160000000  0.4225540000000 1.0
C      1  0.5759470000000  0.5584610000000  0.5031390000000 1.0
C      1  0.4231230000000  0.4438110000000  0.5017400000000 1.0
C      1  0.5817700000000  0.4433790000000  0.4949080000000 1.0
C      1  0.5275250000000  0.4976330000000  0.5842200000000 1.0
C      1  0.4974700000000  0.5838750000000  0.5267290000000 1.0
C      1  0.5890630000000  0.5271800000000  0.4981180000000 1.0
C      1  0.4752140000000  0.4981640000000  0.4081900000000 1.0
C      1  0.4741330000000  0.5005020000000  0.5905880000000 1.0
C      1  0.5255160000000  0.4996000000000  0.4146040000000 1.0
C      1  0.5005240000000  0.5898290000000  0.4733910000000 1.0
C      1  0.5009460000000  0.4109380000000  0.5260970000000 1.0
C      1  0.4984810000000  0.4093120000000  0.4762010000000 1.0
C      1  0.4130190000000  0.5251240000000  0.5004270000000 1.0
C      1  0.4076960000000  0.4743880000000  0.4994320000000 1.0
C      1  0.5927320000000  0.4753330000000  0.5000760000000 1.0
C      1  0.5921960000000  0.5009130000000  0.5194800000000 1.0
C      1  0.5188040000000  0.5887010000000  0.5003330000000 1.0
C      1  0.5009000000000  0.5184430000000  0.5895940000000 1.0
C      1  0.4119190000000  0.5003660000000  0.4802580000000 1.0
C      1  0.5916780000000  0.5005860000000  0.4799150000000 1.0
C      1  0.4094350000000  0.5008770000000  0.5199350000000 1.0
C      1  0.4794810000000  0.5907740000000  0.4991580000000 1.0
C      1  0.5214010000000  0.4118270000000  0.4994950000000 1.0
C      1  0.4814750000000  0.4113700000000  0.5015730000000 1.0
C      1  0.5010420000000  0.5186880000000  0.4096460000000 1.0
C      1  0.5009370000000  0.4791320000000  0.4135720000000 1.0
C      1  0.4999310000000  0.4790050000000  0.5911280000000 1.0
C      1  0.4714930000000  0.4702030000000  0.5652140000000 1.0
C      1  0.5261930000000  0.4367350000000  0.4687360000000 1.0
C      1  0.5659270000000  0.4712830000000  0.4712680000000 1.0
C      1  0.5322580000000  0.5650630000000  0.5296010000000 1.0
C      1  0.4722600000000  0.5263510000000  0.4357940000000 1.0
C      1  0.5333790000000  0.4658520000000  0.4342830000000 1.0
C      1  0.4698410000000  0.5647160000000  0.4709520000000 1.0
C      1  0.4702480000000  0.4360670000000  0.5308200000000 1.0
C      1  0.4346570000000  0.5308530000000  0.4675840000000 1.0
C      1  0.4361550000000  0.4724410000000  0.5268080000000 1.0
C      1  0.5296770000000  0.5325350000000  0.5653450000000 1.0
C      1  0.5669630000000  0.5294580000000  0.5310520000000 1.0
C      1  0.5014590000000  0.4992990000000  0.4678320000000 1.0
C      1  0.5004220000000  0.5022180000000  0.5366060000000 1.0
C      1  0.4989310000000  0.4666440000000  0.5015000000000 1.0
C      1  0.5020240000000  0.5356480000000  0.5000820000000 1.0
C      1  0.4684500000000  0.5004400000000  0.4998660000000 1.0
C      1  0.5372300000000  0.4986380000000  0.5030800000000 1.0
C      1  0.5027970000000  0.5010940000000  0.5022280000000 1.0
END
