TITL C-2782234-8014-1094 -0.000194934444117897 125000 -92.363221514165 0 0 18 (D3) n - 1
REM
REM in /home/nfs/bkarasulu/CARBON/AIRSS/Generating-Clusters/REBO/Higher-Symm/SD-CG/HFTN-CG
REM
REM
REM
REM
REM
REM ./C.cell (12c818d87b63d06a65506943cc24bca4)
REM
REM compiler GCC version 9.2.1 20190827 (Red Hat 9.2.1-1)
REM options -cpp -mtune=generic -march=x86-64 -g -O0 -fpre-include=/usr/include/finclude/math-vector-fortran.h
REM seed -353342913 569600096 -1150988010 1775926342 -1546047807 -1103194032 1789500966 1382293565 113414739 1189156832 1601310343 -1272585935 -494892773 1224058244 -1494068775 -302933144 -365286875 -1485528044 -1217494917 -248625307 1762561834 -1947945771 -2079028068 507923414 1530849310 -329447501 264800404 -167355929 1890221247 1367784292 -490069017 -524451419 1477133161
REM
CELL 1.54180   50.00000   50.00000   50.00000   90.00000   90.00000   90.00000
LATT -1
SFAC C  
C      1  0.5437090000000  0.5126600000000  0.5163790000000 1.0
C      1  0.5416210000000  0.4816030000000  0.5163790000000 1.0
C      1  0.5200580000000  0.4591530000000  0.5163800000000 1.0
C      1  0.4891100000000  0.4558170000000  0.5163800000000 1.0
C      1  0.4632570000000  0.4731540000000  0.5163800000000 1.0
C      1  0.4545970000000  0.5030520000000  0.5163800000000 1.0
C      1  0.4671810000000  0.5315230000000  0.5163800000000 1.0
C      1  0.4951220000000  0.5452430000000  0.5163800000000 1.0
C      1  0.5253450000000  0.5377940000000  0.5163800000000 1.0
C      1  0.4560880000000  0.5119380000000  0.4836210000000 1.0
C      1  0.4740350000000  0.5373710000000  0.4836200000000 1.0
C      1  0.5041310000000  0.5453180000000  0.4836200000000 1.0
C      1  0.5322940000000  0.5320600000000  0.4836200000000 1.0
C      1  0.5453460000000  0.5038010000000  0.4836200000000 1.0
C      1  0.5371810000000  0.4737640000000  0.4836200000000 1.0
C      1  0.5116180000000  0.4560020000000  0.4836200000000 1.0
C      1  0.4806180000000  0.4588280000000  0.4836200000000 1.0
C      1  0.4586880000000  0.4809190000000  0.4836210000000 1.0
END
