TITL C-2782232-2968-512 -0.000208127229311542 125000 -274.122619157612 0 0 49 (C1) n - 1
REM
REM in /home/nfs/bkarasulu/CARBON/AIRSS/Generating-Clusters/REBO/Higher-Symm/SD-CG/HFTN-CG
REM
REM
REM
REM
REM
REM ./C.cell (12c818d87b63d06a65506943cc24bca4)
REM
REM compiler GCC version 9.2.1 20190827 (Red Hat 9.2.1-1)
REM options -cpp -mtune=generic -march=x86-64 -g -O0 -fpre-include=/usr/include/finclude/math-vector-fortran.h
REM seed -130573484 270199765 -1292777449 -95645251 -2138515774 993422521 136304148 -1014880209 982966903 890110473 818533938 -341102849 118598018 84536280 1949087548 -272825129 590356909 -617641140 -796888377 1146185870 -537229478 -2029104111 761871170 -332263396 -2008495034 311457181 394169478 -23005117 2087830138 -1339561515 914813852 -1702153748 1060103081
REM
CELL 1.54180   50.00000   50.00000   50.00000   90.00000   90.00000   90.00000
LATT -1
SFAC C  
C      1  0.5012340000000  0.5031950000000  0.4581060000000 1.0
C      1  0.5345150000000  0.5060010000000  0.5231030000000 1.0
C      1  0.4606680000000  0.5095850000000  0.5174190000000 1.0
C      1  0.4774510000000  0.4440380000000  0.4622070000000 1.0
C      1  0.5628050000000  0.4599100000000  0.5076090000000 1.0
C      1  0.4694310000000  0.4451570000000  0.5232930000000 1.0
C      1  0.4972020000000  0.5372480000000  0.5472740000000 1.0
C      1  0.4584430000000  0.5389080000000  0.4736150000000 1.0
C      1  0.5424530000000  0.5327900000000  0.4730170000000 1.0
C      1  0.5356930000000  0.4764460000000  0.5175220000000 1.0
C      1  0.4629020000000  0.4786570000000  0.5198560000000 1.0
C      1  0.4922090000000  0.4749580000000  0.4634940000000 1.0
C      1  0.4982010000000  0.5573850000000  0.4534220000000 1.0
C      1  0.5419220000000  0.5587190000000  0.5140850000000 1.0
C      1  0.4670410000000  0.5631030000000  0.5223750000000 1.0
C      1  0.6050330000000  0.5284260000000  0.5147060000000 1.0
C      1  0.4574920000000  0.4898830000000  0.5894770000000 1.0
C      1  0.4639650000000  0.5289520000000  0.3991590000000 1.0
C      1  0.5187550000000  0.4594720000000  0.5357240000000 1.0
C      1  0.4460220000000  0.4643870000000  0.4973640000000 1.0
C      1  0.5141190000000  0.4538280000000  0.4746310000000 1.0
C      1  0.5510840000000  0.5590530000000  0.4901520000000 1.0
C      1  0.4824550000000  0.5633270000000  0.5427930000000 1.0
C      1  0.4732700000000  0.5617640000000  0.4564430000000 1.0
C      1  0.4697610000000  0.4251090000000  0.5058670000000 1.0
C      1  0.4743890000000  0.4229210000000  0.4789030000000 1.0
C      1  0.5855710000000  0.4495690000000  0.5130790000000 1.0
C      1  0.5797790000000  0.5248710000000  0.5086700000000 1.0
C      1  0.4657080000000  0.5023950000000  0.5679650000000 1.0
C      1  0.4702340000000  0.5257580000000  0.4244040000000 1.0
C      1  0.4710790000000  0.5387790000000  0.5034160000000 1.0
C      1  0.5100290000000  0.5339340000000  0.4701430000000 1.0
C      1  0.5217070000000  0.5370880000000  0.5200630000000 1.0
C      1  0.5347520000000  0.5064260000000  0.4562170000000 1.0
C      1  0.5145940000000  0.5105090000000  0.5487110000000 1.0
C      1  0.4435790000000  0.5146830000000  0.4884140000000 1.0
C      1  0.5286900000000  0.4390020000000  0.5491920000000 1.0
C      1  0.4243960000000  0.4500000000000  0.5014800000000 1.0
C      1  0.5131390000000  0.4277810000000  0.4705140000000 1.0
C      1  0.4884690000000  0.4669920000000  0.5382150000000 1.0
C      1  0.4590190000000  0.4699260000000  0.4688990000000 1.0
C      1  0.5389480000000  0.4665410000000  0.4855130000000 1.0
C      1  0.5016260000000  0.4878910000000  0.5580040000000 1.0
C      1  0.4378850000000  0.4935020000000  0.4714330000000 1.0
C      1  0.5496770000000  0.4841290000000  0.4628250000000 1.0
C      1  0.4766550000000  0.5224870000000  0.4502590000000 1.0
C      1  0.5539370000000  0.5212330000000  0.5024940000000 1.0
C      1  0.4741010000000  0.5151790000000  0.5459850000000 1.0
C      1  0.5006410000000  0.5362960000000  0.4987600000000 1.0
END
