TITL C-2782239-8622-428 -0.00479018899759965 125000 -229.177738078958 0 0 40 (C1) n - 1
REM
REM in /home/nfs/bkarasulu/CARBON/AIRSS/Generating-Clusters/REBO/Higher-Symm/SD-CG/HFTN-CG
REM
REM
REM
REM
REM
REM ./C.cell (12c818d87b63d06a65506943cc24bca4)
REM
REM compiler GCC version 9.2.1 20190827 (Red Hat 9.2.1-1)
REM options -cpp -mtune=generic -march=x86-64 -g -O0 -fpre-include=/usr/include/finclude/math-vector-fortran.h
REM seed 1895085043 -918691086 403520456 -849127325 1534246917 -2142254822 2002596629 362780195 -1856594237 -592860416 -2040659107 -1152852626 -1323063833 -1900726263 -1029145864 -1528875435 -311519441 -69541279 -1077920466 1820828539 -1884465074 -731607912 1022586973 -120788566 316022473 -1252981980 -49593057 672543587 -250951256 -952108 -386938642 -2133548905 714168899
REM
CELL 1.54180   50.00000   50.00000   50.00000   90.00000   90.00000   90.00000
LATT -1
SFAC C  
C      1  0.5007410000000  0.5217970000000  0.6030490000000 1.0
C      1  0.5034830000000  0.4994980000000  0.5567320000000 1.0
C      1  0.5159620000000  0.4729240000000  0.5983900000000 1.0
C      1  0.5133470000000  0.4729300000000  0.5709230000000 1.0
C      1  0.4974800000000  0.5224210000000  0.5708650000000 1.0
C      1  0.5092680000000  0.4990920000000  0.6161930000000 1.0
C      1  0.5005320000000  0.4476400000000  0.4622390000000 1.0
C      1  0.5281530000000  0.5208690000000  0.4195710000000 1.0
C      1  0.4480110000000  0.5195640000000  0.4587840000000 1.0
C      1  0.4850250000000  0.5444590000000  0.4310750000000 1.0
C      1  0.5360750000000  0.4713960000000  0.4352950000000 1.0
C      1  0.4558680000000  0.4720700000000  0.4741520000000 1.0
C      1  0.4694100000000  0.4585080000000  0.4994380000000 1.0
C      1  0.5605710000000  0.4903680000000  0.4420320000000 1.0
C      1  0.4743430000000  0.5617230000000  0.4554740000000 1.0
C      1  0.4545230000000  0.5483740000000  0.4703180000000 1.0
C      1  0.5563420000000  0.5168720000000  0.4336030000000 1.0
C      1  0.4933260000000  0.4454270000000  0.4930590000000 1.0
C      1  0.4909940000000  0.5507120000000  0.5980020000000 1.0
C      1  0.5070450000000  0.4812090000000  0.5325500000000 1.0
C      1  0.5218660000000  0.4630200000000  0.6270980000000 1.0
C      1  0.5168120000000  0.4545720000000  0.5454880000000 1.0
C      1  0.4874660000000  0.5527350000000  0.5677190000000 1.0
C      1  0.5159090000000  0.4869600000000  0.6451320000000 1.0
C      1  0.4806080000000  0.5172400000000  0.4229990000000 1.0
C      1  0.4645940000000  0.4762780000000  0.4471190000000 1.0
C      1  0.5096790000000  0.4763890000000  0.4251180000000 1.0
C      1  0.4893580000000  0.4627330000000  0.4405140000000 1.0
C      1  0.4601640000000  0.5034720000000  0.4383250000000 1.0
C      1  0.5053100000000  0.5037290000000  0.4164110000000 1.0
C      1  0.4700280000000  0.4925420000000  0.4968090000000 1.0
C      1  0.5403090000000  0.4801930000000  0.4675570000000 1.0
C      1  0.5055160000000  0.5479730000000  0.4576410000000 1.0
C      1  0.4656470000000  0.5210310000000  0.4874710000000 1.0
C      1  0.5318850000000  0.5335500000000  0.4506080000000 1.0
C      1  0.5191880000000  0.4656520000000  0.4836970000000 1.0
C      1  0.4949520000000  0.5331700000000  0.4845120000000 1.0
C      1  0.5024700000000  0.4869180000000  0.5036910000000 1.0
C      1  0.5353820000000  0.5110560000000  0.4737290000000 1.0
C      1  0.5143850000000  0.5139110000000  0.4930080000000 1.0
END
