TITL C-2782235-7892-1177 0.00284475272107395 125000 -694.969772397462 0 0 124 (C1) n - 1
REM
REM in /home/nfs/bkarasulu/CARBON/AIRSS/Generating-Clusters/REBO/Higher-Symm/SD-CG/HFTN-CG
REM
REM
REM
REM
REM
REM ./C.cell (12c818d87b63d06a65506943cc24bca4)
REM
REM compiler GCC version 9.2.1 20190827 (Red Hat 9.2.1-1)
REM options -cpp -mtune=generic -march=x86-64 -g -O0 -fpre-include=/usr/include/finclude/math-vector-fortran.h
REM seed 544652973 1982713514 -487268707 697303073 919459304 135807981 -2029430373 -610352055 -2054425507 216667658 -201678051 -1972661731 -802533205 -1850711405 1443563526 1485798884 1348601082 -666434533 1892385067 82813337 2060147435 -1311816604 793268640 925952953 511051444 -1721394893 2117847776 -781591297 -1290314909 -2023630840 1679454597 -1518231907 -891607510
REM
CELL 1.54180   50.00000   50.00000   50.00000   90.00000   90.00000   90.00000
LATT -1
SFAC C  
C      1  0.4538570000000  0.4878130000000  0.5860920000000 1.0
C      1  0.5895230000000  0.4596010000000  0.4840130000000 1.0
C      1  0.4820800000000  0.5861770000000  0.4529090000000 1.0
C      1  0.4576060000000  0.5137060000000  0.4114790000000 1.0
C      1  0.5449490000000  0.5196170000000  0.5874500000000 1.0
C      1  0.5494550000000  0.4896060000000  0.4132160000000 1.0
C      1  0.5886610000000  0.5433940000000  0.5196720000000 1.0
C      1  0.4109930000000  0.5408860000000  0.4829340000000 1.0
C      1  0.4156940000000  0.4612950000000  0.5280980000000 1.0
C      1  0.4785230000000  0.4188040000000  0.5430950000000 1.0
C      1  0.5180580000000  0.4172860000000  0.4531350000000 1.0
C      1  0.5186570000000  0.5780500000000  0.5452220000000 1.0
C      1  0.4256580000000  0.4507560000000  0.5552010000000 1.0
C      1  0.5459950000000  0.4330020000000  0.4407620000000 1.0
C      1  0.4423650000000  0.5388550000000  0.4295120000000 1.0
C      1  0.4277630000000  0.5546400000000  0.4566240000000 1.0
C      1  0.5737150000000  0.5528400000000  0.5487900000000 1.0
C      1  0.5730240000000  0.4460110000000  0.4573160000000 1.0
C      1  0.5466920000000  0.5702050000000  0.5572620000000 1.0
C      1  0.4552740000000  0.5681250000000  0.4416630000000 1.0
C      1  0.4538350000000  0.4327990000000  0.5621460000000 1.0
C      1  0.4459040000000  0.4618620000000  0.5788940000000 1.0
C      1  0.5612030000000  0.4615720000000  0.4291070000000 1.0
C      1  0.5554290000000  0.5449080000000  0.5766720000000 1.0
C      1  0.5225790000000  0.5108150000000  0.4092240000000 1.0
C      1  0.4123090000000  0.5153710000000  0.5055410000000 1.0
C      1  0.4966230000000  0.4137260000000  0.5133250000000 1.0
C      1  0.5174430000000  0.4991380000000  0.5872810000000 1.0
C      1  0.4900480000000  0.5008660000000  0.4096540000000 1.0
C      1  0.4837660000000  0.5039480000000  0.5844800000000 1.0
C      1  0.4063830000000  0.4841890000000  0.5037480000000 1.0
C      1  0.5899140000000  0.4865220000000  0.5058250000000 1.0
C      1  0.5879620000000  0.5182800000000  0.4958050000000 1.0
C      1  0.5021690000000  0.5821750000000  0.4832760000000 1.0
C      1  0.5009870000000  0.5851270000000  0.5161700000000 1.0
C      1  0.4951810000000  0.4157670000000  0.4793460000000 1.0
C      1  0.4439290000000  0.5625850000000  0.4855720000000 1.0
C      1  0.4817320000000  0.4525950000000  0.5639820000000 1.0
C      1  0.5624870000000  0.4889060000000  0.4508290000000 1.0
C      1  0.4509290000000  0.4485170000000  0.5145320000000 1.0
C      1  0.5523590000000  0.4453560000000  0.4856380000000 1.0
C      1  0.5500710000000  0.5505020000000  0.5158000000000 1.0
C      1  0.4825920000000  0.5473070000000  0.4439690000000 1.0
C      1  0.5162770000000  0.5413580000000  0.5607620000000 1.0
C      1  0.5187410000000  0.4541620000000  0.4381110000000 1.0
C      1  0.5614410000000  0.5100810000000  0.5524410000000 1.0
C      1  0.4406800000000  0.5098180000000  0.4471510000000 1.0
C      1  0.4394350000000  0.4907870000000  0.5490220000000 1.0
C      1  0.5102290000000  0.4639660000000  0.4887040000000 1.0
C      1  0.4771280000000  0.4940610000000  0.4610240000000 1.0
C      1  0.4586440000000  0.4887220000000  0.4963840000000 1.0
C      1  0.5040680000000  0.5364830000000  0.5128040000000 1.0
C      1  0.4928730000000  0.5411170000000  0.4832430000000 1.0
C      1  0.4985190000000  0.4632910000000  0.5173280000000 1.0
C      1  0.4890360000000  0.4905750000000  0.5304380000000 1.0
C      1  0.5103620000000  0.5024930000000  0.4568480000000 1.0
C      1  0.5146580000000  0.5084940000000  0.5241840000000 1.0
C      1  0.4725450000000  0.5175480000000  0.4970780000000 1.0
C      1  0.5464860000000  0.5136240000000  0.5010660000000 1.0
C      1  0.5382900000000  0.4810510000000  0.4969020000000 1.0
C      1  0.5579420000000  0.5374450000000  0.4361600000000 1.0
C      1  0.4388280000000  0.5547770000000  0.5433260000000 1.0
C      1  0.5261750000000  0.4219000000000  0.5536590000000 1.0
C      1  0.5545020000000  0.4703310000000  0.5818000000000 1.0
C      1  0.4564680000000  0.4628400000000  0.4266810000000 1.0
C      1  0.4479300000000  0.5351200000000  0.5688420000000 1.0
C      1  0.4159290000000  0.4441870000000  0.4796340000000 1.0
C      1  0.5752860000000  0.4496840000000  0.5320540000000 1.0
C      1  0.5698440000000  0.5517410000000  0.4619040000000 1.0
C      1  0.5289570000000  0.5716670000000  0.4449680000000 1.0
C      1  0.4695070000000  0.5662750000000  0.5533060000000 1.0
C      1  0.4701360000000  0.4379110000000  0.4407010000000 1.0
C      1  0.4351890000000  0.5099030000000  0.5741570000000 1.0
C      1  0.5782450000000  0.4382110000000  0.5068880000000 1.0
C      1  0.5037800000000  0.5723280000000  0.4334830000000 1.0
C      1  0.4406120000000  0.4863380000000  0.4225490000000 1.0
C      1  0.5653160000000  0.4968080000000  0.5806740000000 1.0
C      1  0.5699760000000  0.5120740000000  0.4286400000000 1.0
C      1  0.5736730000000  0.5567880000000  0.4920660000000 1.0
C      1  0.4246520000000  0.5527690000000  0.5121520000000 1.0
C      1  0.4223510000000  0.4376130000000  0.5057430000000 1.0
C      1  0.5017550000000  0.4262570000000  0.5650660000000 1.0
C      1  0.4962450000000  0.4302480000000  0.4303880000000 1.0
C      1  0.4960350000000  0.5640730000000  0.5641040000000 1.0
C      1  0.4741100000000  0.5693760000000  0.5246350000000 1.0
C      1  0.5273490000000  0.4701870000000  0.5735940000000 1.0
C      1  0.5707610000000  0.5224590000000  0.4709250000000 1.0
C      1  0.4714860000000  0.4353400000000  0.4694200000000 1.0
C      1  0.5258110000000  0.4243640000000  0.5260050000000 1.0
C      1  0.5274890000000  0.5666640000000  0.4731340000000 1.0
C      1  0.5297090000000  0.5342500000000  0.4312900000000 1.0
C      1  0.4761630000000  0.5296580000000  0.5676830000000 1.0
C      1  0.4849790000000  0.4728650000000  0.4284420000000 1.0
C      1  0.5726690000000  0.4776060000000  0.5310890000000 1.0
C      1  0.4171230000000  0.4718240000000  0.4755380000000 1.0
C      1  0.4359280000000  0.5247000000000  0.5281700000000 1.0
C      1  0.4911730000000  0.4819090000000  0.5617520000000 1.0
C      1  0.5675810000000  0.4842810000000  0.4828970000000 1.0
C      1  0.4737230000000  0.5675880000000  0.4771270000000 1.0
C      1  0.4787460000000  0.5146840000000  0.4359970000000 1.0
C      1  0.5121800000000  0.5091300000000  0.5569550000000 1.0
C      1  0.5208090000000  0.4860280000000  0.4304180000000 1.0
C      1  0.5697270000000  0.5164770000000  0.5229700000000 1.0
C      1  0.4398260000000  0.5230660000000  0.4884420000000 1.0
C      1  0.4363410000000  0.4856110000000  0.5165500000000 1.0
C      1  0.4804270000000  0.4404720000000  0.5195660000000 1.0
C      1  0.5215960000000  0.4340850000000  0.4810860000000 1.0
C      1  0.5211290000000  0.5602440000000  0.5184220000000 1.0
C      1  0.4446290000000  0.4852090000000  0.4672510000000 1.0
C      1  0.4654850000000  0.4571330000000  0.4865090000000 1.0
C      1  0.4953560000000  0.4661570000000  0.4605470000000 1.0
C      1  0.4628690000000  0.5090100000000  0.5345950000000 1.0
C      1  0.5396710000000  0.5087610000000  0.4680840000000 1.0
C      1  0.5416580000000  0.4909580000000  0.5351710000000 1.0
C      1  0.4633080000000  0.5475100000000  0.5092910000000 1.0
C      1  0.5366720000000  0.5429080000000  0.4860580000000 1.0
C      1  0.5370260000000  0.4524600000000  0.5157050000000 1.0
C      1  0.4852490000000  0.5314400000000  0.5381880000000 1.0
C      1  0.5106020000000  0.5340960000000  0.4572190000000 1.0
C      1  0.5219240000000  0.4661630000000  0.5420900000000 1.0
C      1  0.5391580000000  0.4662150000000  0.4617030000000 1.0
C      1  0.4593260000000  0.5324580000000  0.4644430000000 1.0
C      1  0.4596210000000  0.4659350000000  0.5418000000000 1.0
C      1  0.5396340000000  0.5339810000000  0.5420070000000 1.0
END
