TITL C-2782227-3064-642 -0.000312838625506696 125000 -834.501786102953 0 0 144 (C1) n - 1
REM
REM in /home/nfs/bkarasulu/CARBON/AIRSS/Generating-Clusters/REBO/Higher-Symm/SD-CG/HFTN-CG
REM
REM
REM
REM
REM
REM ./C.cell (12c818d87b63d06a65506943cc24bca4)
REM
REM compiler GCC version 9.2.1 20190827 (Red Hat 9.2.1-1)
REM options -cpp -mtune=generic -march=x86-64 -g -O0 -fpre-include=/usr/include/finclude/math-vector-fortran.h
REM seed -484694111 1944633805 2089598254 2012682920 689844881 -1288490956 -2094071070 -702709428 2086557301 -792626773 -420965196 1032393488 1357182502 1136731505 -1397646550 -1621632960 1459399430 1421129767 1091707449 -1378255198 264298752 687759163 1349460055 -1076170988 -41460069 751942467 1980045696 1572304322 -1597860255 917193456 -240364482 -35866946 -1785883304
REM
CELL 1.54180   50.00000   50.00000   50.00000   90.00000   90.00000   90.00000
LATT -1
SFAC C  
C      1  0.5786910000000  0.5352840000000  0.5576620000000 1.0
C      1  0.5352950000000  0.5378580000000  0.5945010000000 1.0
C      1  0.4785400000000  0.5460250000000  0.6007880000000 1.0
C      1  0.4289360000000  0.5412090000000  0.5721420000000 1.0
C      1  0.4044540000000  0.5514390000000  0.5195990000000 1.0
C      1  0.4102240000000  0.5373690000000  0.4670890000000 1.0
C      1  0.4419390000000  0.5369820000000  0.4203760000000 1.0
C      1  0.4946550000000  0.5364160000000  0.3995310000000 1.0
C      1  0.5500280000000  0.5378900000000  0.4113700000000 1.0
C      1  0.5888780000000  0.5453060000000  0.4525110000000 1.0
C      1  0.5937410000000  0.5327190000000  0.5036100000000 1.0
C      1  0.4850090000000  0.5139440000000  0.5902180000000 1.0
C      1  0.4336780000000  0.5074720000000  0.5697430000000 1.0
C      1  0.4103000000000  0.5178790000000  0.5254050000000 1.0
C      1  0.4144070000000  0.5068770000000  0.4781920000000 1.0
C      1  0.4411610000000  0.5065760000000  0.4346880000000 1.0
C      1  0.4867250000000  0.5059050000000  0.4109860000000 1.0
C      1  0.5389240000000  0.5069000000000  0.4158020000000 1.0
C      1  0.5765940000000  0.5131570000000  0.4518880000000 1.0
C      1  0.5817570000000  0.5040010000000  0.4949740000000 1.0
C      1  0.5689980000000  0.5068550000000  0.5420950000000 1.0
C      1  0.5358360000000  0.5081430000000  0.5791100000000 1.0
C      1  0.4512900000000  0.4185870000000  0.4917570000000 1.0
C      1  0.4624110000000  0.4262370000000  0.4654050000000 1.0
C      1  0.4868730000000  0.4279760000000  0.4495860000000 1.0
C      1  0.5160710000000  0.4264410000000  0.4498560000000 1.0
C      1  0.5405830000000  0.4214320000000  0.4662000000000 1.0
C      1  0.5533030000000  0.4211010000000  0.4931740000000 1.0
C      1  0.5472730000000  0.4227380000000  0.5215520000000 1.0
C      1  0.5311920000000  0.4282620000000  0.5466800000000 1.0
C      1  0.5040950000000  0.4225350000000  0.5548240000000 1.0
C      1  0.4773940000000  0.4148090000000  0.5426320000000 1.0
C      1  0.4570580000000  0.4141620000000  0.5206420000000 1.0
C      1  0.4991070000000  0.4319840000000  0.5818790000000 1.0
C      1  0.4634120000000  0.4188030000000  0.5698830000000 1.0
C      1  0.4321200000000  0.4197040000000  0.5357160000000 1.0
C      1  0.4226490000000  0.4253260000000  0.4886280000000 1.0
C      1  0.4416470000000  0.4399060000000  0.4506000000000 1.0
C      1  0.4798000000000  0.4410910000000  0.4250030000000 1.0
C      1  0.5241110000000  0.4397150000000  0.4251570000000 1.0
C      1  0.5611710000000  0.4277330000000  0.4454300000000 1.0
C      1  0.5809440000000  0.4309060000000  0.4908870000000 1.0
C      1  0.5713910000000  0.4311370000000  0.5378340000000 1.0
C      1  0.5454360000000  0.4445940000000  0.5649970000000 1.0
C      1  0.4849590000000  0.5390180000000  0.4509140000000 1.0
C      1  0.5130330000000  0.5388420000000  0.4498490000000 1.0
C      1  0.5373540000000  0.5397370000000  0.4642880000000 1.0
C      1  0.5483760000000  0.5395900000000  0.4898730000000 1.0
C      1  0.5457780000000  0.5377060000000  0.5182470000000 1.0
C      1  0.5287410000000  0.5375710000000  0.5406480000000 1.0
C      1  0.5022300000000  0.5378830000000  0.5509540000000 1.0
C      1  0.4750860000000  0.5378790000000  0.5433440000000 1.0
C      1  0.4563500000000  0.5406000000000  0.5222080000000 1.0
C      1  0.4536720000000  0.5410750000000  0.4947420000000 1.0
C      1  0.4622960000000  0.5402450000000  0.4673820000000 1.0
C      1  0.5153430000000  0.5782250000000  0.4444430000000 1.0
C      1  0.5400110000000  0.5794400000000  0.4626010000000 1.0
C      1  0.5513450000000  0.5793450000000  0.4904150000000 1.0
C      1  0.5500510000000  0.5771480000000  0.5216840000000 1.0
C      1  0.5315440000000  0.5769940000000  0.5454850000000 1.0
C      1  0.5026420000000  0.5775650000000  0.5545660000000 1.0
C      1  0.4735000000000  0.5774740000000  0.5471800000000 1.0
C      1  0.4565870000000  0.5804680000000  0.5213770000000 1.0
C      1  0.4526600000000  0.5808660000000  0.4920650000000 1.0
C      1  0.4604200000000  0.5795330000000  0.4615710000000 1.0
C      1  0.4851990000000  0.5783560000000  0.4446090000000 1.0
C      1  0.5104430000000  0.4675770000000  0.4098760000000 1.0
C      1  0.5635790000000  0.4743740000000  0.4243450000000 1.0
C      1  0.5839920000000  0.4587760000000  0.4732520000000 1.0
C      1  0.5976870000000  0.4688040000000  0.5268810000000 1.0
C      1  0.5687550000000  0.4693700000000  0.5718700000000 1.0
C      1  0.5164400000000  0.4758220000000  0.5923420000000 1.0
C      1  0.4632040000000  0.4679760000000  0.5891550000000 1.0
C      1  0.4328470000000  0.4488930000000  0.5524110000000 1.0
C      1  0.4118130000000  0.4516420000000  0.5059380000000 1.0
C      1  0.4194750000000  0.4668860000000  0.4558260000000 1.0
C      1  0.4580560000000  0.4669470000000  0.4203350000000 1.0
C      1  0.4363580000000  0.4708450000000  0.5069350000000 1.0
C      1  0.4470050000000  0.4709770000000  0.4750770000000 1.0
C      1  0.4716480000000  0.4696740000000  0.4516210000000 1.0
C      1  0.5043140000000  0.4690070000000  0.4436680000000 1.0
C      1  0.5381810000000  0.4700890000000  0.4469220000000 1.0
C      1  0.5542820000000  0.4695350000000  0.4742050000000 1.0
C      1  0.5395640000000  0.4690490000000  0.5024400000000 1.0
C      1  0.5258220000000  0.4682290000000  0.5336870000000 1.0
C      1  0.5075120000000  0.4701080000000  0.5596340000000 1.0
C      1  0.4756960000000  0.4700100000000  0.5577730000000 1.0
C      1  0.4499210000000  0.4696530000000  0.5362710000000 1.0
C      1  0.5587720000000  0.5565150000000  0.4456590000000 1.0
C      1  0.5772310000000  0.5576180000000  0.4892440000000 1.0
C      1  0.5723930000000  0.5529230000000  0.5305180000000 1.0
C      1  0.5439980000000  0.5529470000000  0.5662400000000 1.0
C      1  0.5024700000000  0.5550590000000  0.5796370000000 1.0
C      1  0.4587660000000  0.5538000000000  0.5670350000000 1.0
C      1  0.4327460000000  0.5600200000000  0.5337010000000 1.0
C      1  0.4269910000000  0.5595930000000  0.4853580000000 1.0
C      1  0.4402300000000  0.5555690000000  0.4479550000000 1.0
C      1  0.4780920000000  0.5538700000000  0.4220520000000 1.0
C      1  0.5229390000000  0.5539480000000  0.4216990000000 1.0
C      1  0.5266080000000  0.5018050000000  0.4442560000000 1.0
C      1  0.5517270000000  0.5025100000000  0.4655770000000 1.0
C      1  0.5503320000000  0.5006480000000  0.4984670000000 1.0
C      1  0.5412930000000  0.4984160000000  0.5294040000000 1.0
C      1  0.5187130000000  0.5014750000000  0.5541110000000 1.0
C      1  0.4851270000000  0.5029080000000  0.5596050000000 1.0
C      1  0.4542080000000  0.5013710000000  0.5464330000000 1.0
C      1  0.4373650000000  0.5030450000000  0.5184730000000 1.0
C      1  0.4455460000000  0.5030130000000  0.4856430000000 1.0
C      1  0.4633930000000  0.5019800000000  0.4566830000000 1.0
C      1  0.4935140000000  0.5012100000000  0.4413900000000 1.0
C      1  0.3936320000000  0.5536400000000  0.4904940000000 1.0
C      1  0.4140700000000  0.5357920000000  0.4366420000000 1.0
C      1  0.4624890000000  0.5347870000000  0.3977840000000 1.0
C      1  0.5241000000000  0.5354800000000  0.3923200000000 1.0
C      1  0.5781700000000  0.5396440000000  0.4223160000000 1.0
C      1  0.6075460000000  0.5467780000000  0.4773190000000 1.0
C      1  0.5994430000000  0.5311860000000  0.5335710000000 1.0
C      1  0.5659340000000  0.5334180000000  0.5850080000000 1.0
C      1  0.5089920000000  0.5390880000000  0.6096540000000 1.0
C      1  0.4507960000000  0.5332130000000  0.5944550000000 1.0
C      1  0.4063900000000  0.5476570000000  0.5518150000000 1.0
C      1  0.4556030000000  0.5023510000000  0.4063060000000 1.0
C      1  0.5149660000000  0.5024620000000  0.3952840000000 1.0
C      1  0.5719280000000  0.5058920000000  0.4209380000000 1.0
C      1  0.6036170000000  0.5133120000000  0.4706440000000 1.0
C      1  0.5939200000000  0.4985850000000  0.5243750000000 1.0
C      1  0.5664730000000  0.5008630000000  0.5737180000000 1.0
C      1  0.5130400000000  0.5057830000000  0.6028910000000 1.0
C      1  0.4550580000000  0.4991060000000  0.5930650000000 1.0
C      1  0.4048600000000  0.5139330000000  0.5565600000000 1.0
C      1  0.3930570000000  0.5203410000000  0.4983260000000 1.0
C      1  0.4121650000000  0.5030370000000  0.4467710000000 1.0
C      1  0.4071750000000  0.4401470000000  0.5336190000000 1.0
C      1  0.4032300000000  0.4474170000000  0.4743630000000 1.0
C      1  0.4287520000000  0.4578610000000  0.4255380000000 1.0
C      1  0.4822220000000  0.4603400000000  0.3979730000000 1.0
C      1  0.5424030000000  0.4594090000000  0.4070550000000 1.0
C      1  0.5745580000000  0.4519610000000  0.4445550000000 1.0
C      1  0.5988610000000  0.4549360000000  0.5027750000000 1.0
C      1  0.5829930000000  0.4555330000000  0.5468780000000 1.0
C      1  0.5431490000000  0.4616540000000  0.5916410000000 1.0
C      1  0.4926700000000  0.4557610000000  0.5937860000000 1.0
C      1  0.4491970000000  0.4418720000000  0.5763860000000 1.0
C      1  0.5175440000000  0.4470880000000  0.5105930000000 1.0
END
