TITL C-2782231-7322-1226 -0.00089492521001099 125000 -406.18424421796 0 0 72 (C1) n - 1
REM
REM in /home/nfs/bkarasulu/CARBON/AIRSS/Generating-Clusters/REBO/Higher-Symm/SD-CG/HFTN-CG
REM
REM
REM
REM
REM
REM ./C.cell (12c818d87b63d06a65506943cc24bca4)
REM
REM compiler GCC version 9.2.1 20190827 (Red Hat 9.2.1-1)
REM options -cpp -mtune=generic -march=x86-64 -g -O0 -fpre-include=/usr/include/finclude/math-vector-fortran.h
REM seed 257236108 -1466024623 -1421300844 969452236 -43268711 2069546601 -1008320195 1229168959 -1408817073 -1291502424 1502203566 -80265308 1676449612 1576969720 -956758682 947910940 398407330 -461082821 -1536971980 2144718669 -1831880790 2004828654 -336519162 -1793289826 -1848833838 1764954156 -1568828148 1606493422 -1300876054 -666419837 -77845825 -933069903 -2091684683
REM
CELL 1.54180   50.00000   50.00000   50.00000   90.00000   90.00000   90.00000
LATT -1
SFAC C  
C      1  0.5121900000000  0.5178360000000  0.5696210000000 1.0
C      1  0.5489230000000  0.5259620000000  0.4564970000000 1.0
C      1  0.4342680000000  0.5196970000000  0.4817170000000 1.0
C      1  0.4561730000000  0.4458480000000  0.5251140000000 1.0
C      1  0.5432280000000  0.4478580000000  0.5224030000000 1.0
C      1  0.5010160000000  0.4440030000000  0.4521570000000 1.0
C      1  0.4617680000000  0.5653090000000  0.4675720000000 1.0
C      1  0.4933600000000  0.5663560000000  0.5372000000000 1.0
C      1  0.5437360000000  0.5647200000000  0.4902850000000 1.0
C      1  0.5250390000000  0.5188910000000  0.5965320000000 1.0
C      1  0.5619540000000  0.5366730000000  0.4312380000000 1.0
C      1  0.4050970000000  0.5253360000000  0.4846640000000 1.0
C      1  0.5317340000000  0.5557660000000  0.5336300000000 1.0
C      1  0.5060540000000  0.5602490000000  0.4576790000000 1.0
C      1  0.4668220000000  0.5595180000000  0.5063650000000 1.0
C      1  0.4949160000000  0.5771320000000  0.5053700000000 1.0
C      1  0.5258150000000  0.5727790000000  0.5115740000000 1.0
C      1  0.4883670000000  0.5760530000000  0.4739980000000 1.0
C      1  0.5176230000000  0.5211040000000  0.4910410000000 1.0
C      1  0.4855260000000  0.5153860000000  0.4826820000000 1.0
C      1  0.4927060000000  0.5148530000000  0.5287260000000 1.0
C      1  0.4626080000000  0.5186660000000  0.5291030000000 1.0
C      1  0.5336240000000  0.5187310000000  0.5186560000000 1.0
C      1  0.4984340000000  0.5138870000000  0.4529480000000 1.0
C      1  0.4803840000000  0.4441680000000  0.5485600000000 1.0
C      1  0.5491090000000  0.4451900000000  0.4896720000000 1.0
C      1  0.4675350000000  0.4467060000000  0.4581020000000 1.0
C      1  0.4910740000000  0.5412980000000  0.4426070000000 1.0
C      1  0.4579420000000  0.5490430000000  0.5311570000000 1.0
C      1  0.5573480000000  0.5415970000000  0.5270520000000 1.0
C      1  0.4792720000000  0.5207410000000  0.5675800000000 1.0
C      1  0.5689210000000  0.5210480000000  0.4802350000000 1.0
C      1  0.4468900000000  0.5182770000000  0.4521790000000 1.0
C      1  0.4830580000000  0.4370190000000  0.4869090000000 1.0
C      1  0.4933570000000  0.4330320000000  0.5191420000000 1.0
C      1  0.5162230000000  0.4381600000000  0.4947550000000 1.0
C      1  0.5084500000000  0.5374590000000  0.5434350000000 1.0
C      1  0.5288370000000  0.5462930000000  0.4715790000000 1.0
C      1  0.4624540000000  0.5361520000000  0.4844050000000 1.0
C      1  0.5759040000000  0.4537870000000  0.4507450000000 1.0
C      1  0.4211940000000  0.4610290000000  0.4562970000000 1.0
C      1  0.5063130000000  0.4542410000000  0.5875820000000 1.0
C      1  0.5615190000000  0.4654270000000  0.5396610000000 1.0
C      1  0.5145690000000  0.4580460000000  0.4286310000000 1.0
C      1  0.4318760000000  0.4628680000000  0.5318670000000 1.0
C      1  0.5637070000000  0.5061140000000  0.5104360000000 1.0
C      1  0.4831400000000  0.4936530000000  0.4348680000000 1.0
C      1  0.4519240000000  0.5034980000000  0.5557090000000 1.0
C      1  0.5707150000000  0.4873460000000  0.4845020000000 1.0
C      1  0.4562860000000  0.4922630000000  0.4429290000000 1.0
C      1  0.4757770000000  0.4867690000000  0.5703500000000 1.0
C      1  0.4823710000000  0.4653140000000  0.5150620000000 1.0
C      1  0.5223380000000  0.4694610000000  0.5062010000000 1.0
C      1  0.4956470000000  0.4672350000000  0.4766980000000 1.0
C      1  0.5666680000000  0.5478460000000  0.4994520000000 1.0
C      1  0.4612550000000  0.5431410000000  0.4451290000000 1.0
C      1  0.4733680000000  0.5500270000000  0.5576100000000 1.0
C      1  0.4489850000000  0.5031350000000  0.5039390000000 1.0
C      1  0.5259100000000  0.5016370000000  0.5462320000000 1.0
C      1  0.5292090000000  0.5030170000000  0.4520460000000 1.0
C      1  0.4476120000000  0.4658850000000  0.4516880000000 1.0
C      1  0.4869900000000  0.4613750000000  0.5697120000000 1.0
C      1  0.5662370000000  0.4618440000000  0.4749050000000 1.0
C      1  0.5045360000000  0.4853730000000  0.5273650000000 1.0
C      1  0.5202900000000  0.4889340000000  0.4803550000000 1.0
C      1  0.4743240000000  0.4871420000000  0.4923700000000 1.0
C      1  0.5122290000000  0.4193130000000  0.4590950000000 1.0
C      1  0.4509580000000  0.4224350000000  0.5108050000000 1.0
C      1  0.5329890000000  0.4251270000000  0.5349200000000 1.0
C      1  0.4352060000000  0.4901610000000  0.5313220000000 1.0
C      1  0.5562560000000  0.4926260000000  0.5383530000000 1.0
C      1  0.5118620000000  0.4851370000000  0.4290230000000 1.0
END
