TITL C-2782230-7391-1438 -0.00166429861126793 125000 -171.765811172374 0 0 31 (C1) n - 1
REM
REM in /home/nfs/bkarasulu/CARBON/AIRSS/Generating-Clusters/REBO/Higher-Symm/SD-CG/HFTN-CG
REM
REM
REM
REM
REM
REM ./C.cell (12c818d87b63d06a65506943cc24bca4)
REM
REM compiler GCC version 9.2.1 20190827 (Red Hat 9.2.1-1)
REM options -cpp -mtune=generic -march=x86-64 -g -O0 -fpre-include=/usr/include/finclude/math-vector-fortran.h
REM seed -925879923 95523146 1445841966 -1805646425 1877582349 -1937648467 -1188282497 1646304308 128940733 -2066038592 1022324444 -1421022225 -1026263508 1355502704 -1508605848 -585561388 -629943837 -1731584348 2041759084 1929541446 -1797480739 317569484 476557647 -193079417 -519031718 1466075314 -2099371932 265770747 -604774365 -887946878 -2118062765 777475064 -126189252
REM
CELL 1.54180   50.00000   50.00000   50.00000   90.00000   90.00000   90.00000
LATT -1
SFAC C  
C      1  0.4337470000000  0.4475320000000  0.5165230000000 1.0
C      1  0.5671590000000  0.5509670000000  0.5166200000000 1.0
C      1  0.5263480000000  0.5629420000000  0.5304760000000 1.0
C      1  0.4788970000000  0.4355280000000  0.5173690000000 1.0
C      1  0.5387130000000  0.4640790000000  0.5041280000000 1.0
C      1  0.4615650000000  0.5334150000000  0.4982010000000 1.0
C      1  0.5207880000000  0.4671480000000  0.4765160000000 1.0
C      1  0.4860540000000  0.5302430000000  0.4756500000000 1.0
C      1  0.5127840000000  0.5452870000000  0.5477970000000 1.0
C      1  0.4848510000000  0.4541170000000  0.5369560000000 1.0
C      1  0.4726400000000  0.4847270000000  0.5135250000000 1.0
C      1  0.5280610000000  0.5138530000000  0.5143990000000 1.0
C      1  0.5481680000000  0.5329400000000  0.5155420000000 1.0
C      1  0.4526580000000  0.4656170000000  0.5150650000000 1.0
C      1  0.4765950000000  0.5406060000000  0.4278100000000 1.0
C      1  0.4944030000000  0.4461830000000  0.4403180000000 1.0
C      1  0.4738430000000  0.5045790000000  0.4943960000000 1.0
C      1  0.5286750000000  0.4931620000000  0.4962400000000 1.0
C      1  0.4617540000000  0.5436800000000  0.5242940000000 1.0
C      1  0.5370440000000  0.4559290000000  0.5307470000000 1.0
C      1  0.4870990000000  0.5233370000000  0.4466250000000 1.0
C      1  0.5076870000000  0.4734710000000  0.4474390000000 1.0
C      1  0.4935960000000  0.4871990000000  0.5372370000000 1.0
C      1  0.5059890000000  0.5138830000000  0.5365390000000 1.0
C      1  0.5005020000000  0.4420490000000  0.4705400000000 1.0
C      1  0.5092870000000  0.5484810000000  0.4845300000000 1.0
C      1  0.5141310000000  0.4620260000000  0.5457790000000 1.0
C      1  0.4827830000000  0.5382080000000  0.5416810000000 1.0
C      1  0.4865660000000  0.4308810000000  0.4917880000000 1.0
C      1  0.5232080000000  0.5616880000000  0.5032770000000 1.0
C      1  0.4991460000000  0.4989030000000  0.4406510000000 1.0
END
