TITL C-2782231-7322-1015 -0.00215359922623953 125000 -556.308573112833 0 0 95 (C1) n - 1
REM
REM in /home/nfs/bkarasulu/CARBON/AIRSS/Generating-Clusters/REBO/Higher-Symm/SD-CG/HFTN-CG
REM
REM
REM
REM
REM
REM ./C.cell (12c818d87b63d06a65506943cc24bca4)
REM
REM compiler GCC version 9.2.1 20190827 (Red Hat 9.2.1-1)
REM options -cpp -mtune=generic -march=x86-64 -g -O0 -fpre-include=/usr/include/finclude/math-vector-fortran.h
REM seed -1837250403 1082059518 743092297 1971739026 1138514353 1029664508 -625674493 -694869909 917580844 774242990 -1377708596 -445549855 -1454151169 1075424340 -1023259837 -2129030897 -1657516105 -1601762747 -534855082 584646796 107616775 1818427275 -1259661768 -1596928710 741572380 1048341026 -1380078908 1960210097 134162385 756585265 -345669028 1659700944 692333834
REM
CELL 1.54180   50.00000   50.00000   50.00000   90.00000   90.00000   90.00000
LATT -1
SFAC C  
C      1  0.5150990000000  0.4703680000000  0.4768750000000 1.0
C      1  0.5265170000000  0.4776150000000  0.4392570000000 1.0
C      1  0.5593540000000  0.5380810000000  0.5205370000000 1.0
C      1  0.5589300000000  0.5395980000000  0.4626170000000 1.0
C      1  0.4610500000000  0.5028550000000  0.4785970000000 1.0
C      1  0.4755470000000  0.4611370000000  0.5680100000000 1.0
C      1  0.5220640000000  0.4776190000000  0.5772490000000 1.0
C      1  0.5567740000000  0.4465480000000  0.5065640000000 1.0
C      1  0.5227240000000  0.5039980000000  0.4175660000000 1.0
C      1  0.4441110000000  0.4352530000000  0.5091390000000 1.0
C      1  0.4876700000000  0.5162950000000  0.5365170000000 1.0
C      1  0.5806200000000  0.5211260000000  0.4771850000000 1.0
C      1  0.4562960000000  0.4357700000000  0.5601200000000 1.0
C      1  0.4460920000000  0.5440050000000  0.4438900000000 1.0
C      1  0.4578810000000  0.5578150000000  0.5252990000000 1.0
C      1  0.4839230000000  0.5807870000000  0.4763530000000 1.0
C      1  0.4231030000000  0.4775140000000  0.5298660000000 1.0
C      1  0.4293610000000  0.5254040000000  0.5136080000000 1.0
C      1  0.4868980000000  0.4355570000000  0.5344060000000 1.0
C      1  0.5678820000000  0.5018360000000  0.5431200000000 1.0
C      1  0.5590330000000  0.5105250000000  0.5669760000000 1.0
C      1  0.4393610000000  0.4629310000000  0.4289570000000 1.0
C      1  0.4503190000000  0.5540380000000  0.4744430000000 1.0
C      1  0.4563860000000  0.5290730000000  0.4956980000000 1.0
C      1  0.4531150000000  0.5210940000000  0.5745710000000 1.0
C      1  0.5242330000000  0.5316860000000  0.4225590000000 1.0
C      1  0.4583470000000  0.4268040000000  0.5317540000000 1.0
C      1  0.5008770000000  0.4492660000000  0.4586190000000 1.0
C      1  0.4804900000000  0.4335630000000  0.4369070000000 1.0
C      1  0.5028300000000  0.4029310000000  0.5177050000000 1.0
C      1  0.5182980000000  0.5253350000000  0.5482560000000 1.0
C      1  0.5696190000000  0.4659930000000  0.4740720000000 1.0
C      1  0.5102120000000  0.5767930000000  0.5970400000000 1.0
C      1  0.4949060000000  0.4571020000000  0.5149990000000 1.0
C      1  0.5338510000000  0.4516580000000  0.5776800000000 1.0
C      1  0.5417040000000  0.5133370000000  0.4747620000000 1.0
C      1  0.5960900000000  0.5041270000000  0.4626730000000 1.0
C      1  0.5428870000000  0.4828470000000  0.4670750000000 1.0
C      1  0.5177590000000  0.5595530000000  0.4783350000000 1.0
C      1  0.4402360000000  0.4771470000000  0.4823240000000 1.0
C      1  0.5096450000000  0.5770190000000  0.5253040000000 1.0
C      1  0.4803990000000  0.5370030000000  0.5157650000000 1.0
C      1  0.4227230000000  0.5500370000000  0.4910500000000 1.0
C      1  0.5196030000000  0.4930450000000  0.5406730000000 1.0
C      1  0.6069470000000  0.4608940000000  0.4403760000000 1.0
C      1  0.4927790000000  0.4859340000000  0.5220340000000 1.0
C      1  0.5449220000000  0.4967670000000  0.5185200000000 1.0
C      1  0.5288350000000  0.5080370000000  0.5764970000000 1.0
C      1  0.5244270000000  0.4527820000000  0.5028430000000 1.0
C      1  0.4957470000000  0.5491970000000  0.4288950000000 1.0
C      1  0.4324090000000  0.4623730000000  0.5087740000000 1.0
C      1  0.5151800000000  0.5175610000000  0.4593710000000 1.0
C      1  0.5315740000000  0.5305710000000  0.5023970000000 1.0
C      1  0.5219380000000  0.5573750000000  0.5502710000000 1.0
C      1  0.5923790000000  0.4766180000000  0.4576380000000 1.0
C      1  0.5056980000000  0.5507240000000  0.5065330000000 1.0
C      1  0.4803580000000  0.5207300000000  0.5681540000000 1.0
C      1  0.4736680000000  0.5628560000000  0.4510560000000 1.0
C      1  0.5557900000000  0.5667060000000  0.5053450000000 1.0
C      1  0.5031540000000  0.5279800000000  0.5847810000000 1.0
C      1  0.5799090000000  0.4644830000000  0.5060530000000 1.0
C      1  0.5097210000000  0.4180380000000  0.5435870000000 1.0
C      1  0.5460080000000  0.5623900000000  0.4794200000000 1.0
C      1  0.4780470000000  0.4995910000000  0.4232820000000 1.0
C      1  0.4986920000000  0.4933630000000  0.4475810000000 1.0
C      1  0.5008880000000  0.4819190000000  0.4094470000000 1.0
C      1  0.5443170000000  0.4433210000000  0.4765810000000 1.0
C      1  0.5085300000000  0.5443770000000  0.4570380000000 1.0
C      1  0.5837950000000  0.4877700000000  0.5199860000000 1.0
C      1  0.5270170000000  0.4291500000000  0.5630330000000 1.0
C      1  0.4483910000000  0.4878350000000  0.4280910000000 1.0
C      1  0.4108410000000  0.5227450000000  0.4783150000000 1.0
C      1  0.4886620000000  0.4428210000000  0.4885390000000 1.0
C      1  0.5716710000000  0.5138760000000  0.5051980000000 1.0
C      1  0.4907090000000  0.4937500000000  0.4797920000000 1.0
C      1  0.5153040000000  0.5013270000000  0.5020780000000 1.0
C      1  0.4258440000000  0.4796360000000  0.5609850000000 1.0
C      1  0.4221770000000  0.5085210000000  0.5339480000000 1.0
C      1  0.4353340000000  0.5647460000000  0.5170660000000 1.0
C      1  0.4708690000000  0.5304830000000  0.4266880000000 1.0
C      1  0.4188790000000  0.4996830000000  0.4749270000000 1.0
C      1  0.5477270000000  0.5411530000000  0.4333470000000 1.0
C      1  0.4904170000000  0.4102380000000  0.4947350000000 1.0
C      1  0.4290910000000  0.5105330000000  0.5646560000000 1.0
C      1  0.4728650000000  0.4223720000000  0.4681260000000 1.0
C      1  0.4926410000000  0.5875100000000  0.4984250000000 1.0
C      1  0.5538880000000  0.5592030000000  0.5442710000000 1.0
C      1  0.5408880000000  0.5833200000000  0.5265540000000 1.0
C      1  0.5113810000000  0.5553610000000  0.5798710000000 1.0
C      1  0.4511800000000  0.5120300000000  0.4496840000000 1.0
C      1  0.5051530000000  0.4543300000000  0.4259410000000 1.0
C      1  0.4480700000000  0.4444290000000  0.4766970000000 1.0
C      1  0.4971850000000  0.4762020000000  0.5604450000000 1.0
C      1  0.4433500000000  0.4615160000000  0.5736510000000 1.0
C      1  0.4499330000000  0.4427880000000  0.4435030000000 1.0
END
