TITL C-2782235-7892-1145 -0.00162520578001481 125000 -480.569018236636 0 0 84 (C1) n - 1
REM
REM in /home/nfs/bkarasulu/CARBON/AIRSS/Generating-Clusters/REBO/Higher-Symm/SD-CG/HFTN-CG
REM
REM
REM
REM
REM
REM ./C.cell (12c818d87b63d06a65506943cc24bca4)
REM
REM compiler GCC version 9.2.1 20190827 (Red Hat 9.2.1-1)
REM options -cpp -mtune=generic -march=x86-64 -g -O0 -fpre-include=/usr/include/finclude/math-vector-fortran.h
REM seed 433092823 -759499211 332912659 908451966 -274315695 188227253 -1333755085 -978947167 -1654853577 1517555824 -17547461 848191121 -758064307 -473858316 1251133466 810842988 209270502 -1131801593 -1467899734 1342132870 -2106190987 -1495344507 1417559286 -194709000 -816753610 -1261087673 -1261695375 749718164 -641901104 39732922 -1009251367 -1233278218 -650991776
REM
CELL 1.54180   50.00000   50.00000   50.00000   90.00000   90.00000   90.00000
LATT -1
SFAC C  
C      1  0.4626060000000  0.5184390000000  0.5256440000000 1.0
C      1  0.4648850000000  0.5191920000000  0.4735060000000 1.0
C      1  0.5419820000000  0.5315140000000  0.4698530000000 1.0
C      1  0.5403050000000  0.5350060000000  0.5257590000000 1.0
C      1  0.4962970000000  0.5227620000000  0.5671710000000 1.0
C      1  0.4990740000000  0.5185250000000  0.4335340000000 1.0
C      1  0.5158440000000  0.4608770000000  0.4231940000000 1.0
C      1  0.5164640000000  0.4729640000000  0.5626960000000 1.0
C      1  0.4763840000000  0.4995230000000  0.5723870000000 1.0
C      1  0.4774420000000  0.4971280000000  0.4270150000000 1.0
C      1  0.5185970000000  0.4526650000000  0.4535670000000 1.0
C      1  0.5158480000000  0.4510870000000  0.5387860000000 1.0
C      1  0.5701400000000  0.5212020000000  0.4729830000000 1.0
C      1  0.5685870000000  0.5244430000000  0.5256750000000 1.0
C      1  0.5296750000000  0.4773110000000  0.4698000000000 1.0
C      1  0.5241740000000  0.4830370000000  0.5306660000000 1.0
C      1  0.4515550000000  0.5007440000000  0.4390790000000 1.0
C      1  0.4503610000000  0.4994400000000  0.5608390000000 1.0
C      1  0.4863740000000  0.4466870000000  0.5293440000000 1.0
C      1  0.4943610000000  0.4378750000000  0.4602180000000 1.0
C      1  0.5650610000000  0.4526350000000  0.5283610000000 1.0
C      1  0.5717370000000  0.4500560000000  0.4751490000000 1.0
C      1  0.4884240000000  0.5466810000000  0.4441410000000 1.0
C      1  0.4835540000000  0.5476890000000  0.5478590000000 1.0
C      1  0.4981420000000  0.5559410000000  0.5261630000000 1.0
C      1  0.4991240000000  0.5565880000000  0.4673970000000 1.0
C      1  0.4401990000000  0.4858090000000  0.5308480000000 1.0
C      1  0.4347900000000  0.4936390000000  0.4681430000000 1.0
C      1  0.4229980000000  0.5140470000000  0.5228450000000 1.0
C      1  0.4217900000000  0.5228630000000  0.4763110000000 1.0
C      1  0.4746150000000  0.4544720000000  0.4471080000000 1.0
C      1  0.4726260000000  0.4518350000000  0.5600510000000 1.0
C      1  0.5303760000000  0.5049250000000  0.4327670000000 1.0
C      1  0.5281490000000  0.5101980000000  0.5703280000000 1.0
C      1  0.5563670000000  0.4653970000000  0.4557500000000 1.0
C      1  0.5649530000000  0.4681120000000  0.5525260000000 1.0
C      1  0.5824290000000  0.5204560000000  0.5491900000000 1.0
C      1  0.5853870000000  0.5144290000000  0.4510220000000 1.0
C      1  0.5462870000000  0.4843130000000  0.5672800000000 1.0
C      1  0.5397850000000  0.4780490000000  0.4311440000000 1.0
C      1  0.4888020000000  0.4973420000000  0.4701110000000 1.0
C      1  0.4894800000000  0.5008320000000  0.5346320000000 1.0
C      1  0.4886710000000  0.4743090000000  0.5735090000000 1.0
C      1  0.4866360000000  0.4696490000000  0.4251180000000 1.0
C      1  0.5396570000000  0.5599320000000  0.4584410000000 1.0
C      1  0.5380690000000  0.5657900000000  0.5275820000000 1.0
C      1  0.5165150000000  0.5122580000000  0.4617880000000 1.0
C      1  0.5175990000000  0.5193250000000  0.5406480000000 1.0
C      1  0.5295380000000  0.5822180000000  0.4631950000000 1.0
C      1  0.5291500000000  0.5847190000000  0.5142970000000 1.0
C      1  0.4388460000000  0.5261890000000  0.5483550000000 1.0
C      1  0.4431330000000  0.5293880000000  0.4523980000000 1.0
C      1  0.4630830000000  0.4750380000000  0.4671110000000 1.0
C      1  0.4706760000000  0.4758030000000  0.5361300000000 1.0
C      1  0.4614770000000  0.5511530000000  0.4397280000000 1.0
C      1  0.4553150000000  0.5524010000000  0.5452810000000 1.0
C      1  0.5484030000000  0.4686300000000  0.5035050000000 1.0
C      1  0.4201370000000  0.5603440000000  0.5101470000000 1.0
C      1  0.4971730000000  0.5155240000000  0.5060040000000 1.0
C      1  0.4926040000000  0.4820000000000  0.4995420000000 1.0
C      1  0.5816550000000  0.4744590000000  0.5002650000000 1.0
C      1  0.5084670000000  0.5548860000000  0.4974240000000 1.0
C      1  0.5260720000000  0.5267130000000  0.4978160000000 1.0
C      1  0.4466560000000  0.5670810000000  0.5214800000000 1.0
C      1  0.6036980000000  0.4870930000000  0.5065040000000 1.0
C      1  0.5785040000000  0.5194410000000  0.4998060000000 1.0
C      1  0.4174060000000  0.5320920000000  0.5022820000000 1.0
C      1  0.5344550000000  0.4287050000000  0.4995520000000 1.0
C      1  0.4730730000000  0.5363520000000  0.4990060000000 1.0
C      1  0.5159410000000  0.4573000000000  0.5011740000000 1.0
C      1  0.5137440000000  0.5899520000000  0.4879140000000 1.0
C      1  0.5642480000000  0.4327920000000  0.5006970000000 1.0
C      1  0.4614390000000  0.4048480000000  0.4808320000000 1.0
C      1  0.4622470000000  0.4979050000000  0.4998330000000 1.0
C      1  0.4565400000000  0.4517460000000  0.4893600000000 1.0
C      1  0.4848710000000  0.4427810000000  0.4987630000000 1.0
C      1  0.4910960000000  0.4151400000000  0.4820100000000 1.0
C      1  0.4675810000000  0.5657650000000  0.5013180000000 1.0
C      1  0.4441630000000  0.4236400000000  0.4831400000000 1.0
C      1  0.5190770000000  0.4071050000000  0.4921870000000 1.0
C      1  0.4380410000000  0.4771020000000  0.4979640000000 1.0
C      1  0.4831610000000  0.5850360000000  0.4905450000000 1.0
C      1  0.5304560000000  0.4944300000000  0.4991970000000 1.0
C      1  0.4012020000000  0.5791090000000  0.5049260000000 1.0
END
