TITL C-2782236-320-700 0.0989226920258116 125000 -386.461886454462 0 0 66 (Ci) n - 1
REM
REM in /home/nfs/bkarasulu/CARBON/AIRSS/Generating-Clusters/REBO/Higher-Symm/SD-CG/HFTN-CG
REM
REM
REM
REM
REM
REM ./C.cell (12c818d87b63d06a65506943cc24bca4)
REM
REM compiler GCC version 9.2.1 20190827 (Red Hat 9.2.1-1)
REM options -cpp -mtune=generic -march=x86-64 -g -O0 -fpre-include=/usr/include/finclude/math-vector-fortran.h
REM seed -67854002 -1430855739 -1890138313 -1334754773 -1585942210 1681874292 -1311381121 1624966474 -1765054720 300463667 1086185413 1879637293 130100540 1645860378 -521878810 -1171676774 1915671196 1445309104 1293159271 -1876792603 -60560401 -483702970 -786632282 1506014115 1916711189 -805701267 -800048275 -2094339185 -532970548 -359289000 1200161450 -1917918988 -2028556915
REM
CELL 1.54180   50.00000   50.00000   50.00000   90.00000   90.00000   90.00000
LATT -1
SFAC C  
C      1  0.5553550000000  0.5132560000000  0.5123590000000 1.0
C      1  0.4446450000000  0.4867440000000  0.4876410000000 1.0
C      1  0.4640240000000  0.4851870000000  0.4406700000000 1.0
C      1  0.5359760000000  0.5148130000000  0.5593300000000 1.0
C      1  0.4473660000000  0.5072590000000  0.4366670000000 1.0
C      1  0.5526340000000  0.4927410000000  0.5633330000000 1.0
C      1  0.4633320000000  0.5618960000000  0.5477360000000 1.0
C      1  0.5366680000000  0.4381040000000  0.4522640000000 1.0
C      1  0.4998860000000  0.5763160000000  0.5201480000000 1.0
C      1  0.5001140000000  0.4236840000000  0.4798520000000 1.0
C      1  0.4624730000000  0.4353710000000  0.4520380000000 1.0
C      1  0.5375270000000  0.5646290000000  0.5479620000000 1.0
C      1  0.5360180000000  0.5106360000000  0.4339840000000 1.0
C      1  0.4639820000000  0.4893640000000  0.5660160000000 1.0
C      1  0.4711460000000  0.4581020000000  0.5387990000000 1.0
C      1  0.5288540000000  0.5418980000000  0.4612010000000 1.0
C      1  0.5574220000000  0.4603620000000  0.5624930000000 1.0
C      1  0.4425780000000  0.5396380000000  0.4375070000000 1.0
C      1  0.4913620000000  0.4821260000000  0.4978680000000 1.0
C      1  0.5086380000000  0.5178740000000  0.5021320000000 1.0
C      1  0.5087330000000  0.5518250000000  0.4450460000000 1.0
C      1  0.4912670000000  0.4481750000000  0.5549540000000 1.0
C      1  0.5594930000000  0.4640350000000  0.4995820000000 1.0
C      1  0.4405070000000  0.5359650000000  0.5004180000000 1.0
C      1  0.4826850000000  0.5212780000000  0.5086450000000 1.0
C      1  0.5173150000000  0.4787220000000  0.4913550000000 1.0
C      1  0.4458200000000  0.4880260000000  0.5425000000000 1.0
C      1  0.5541800000000  0.5119740000000  0.4575000000000 1.0
C      1  0.5279980000000  0.4303520000000  0.4782470000000 1.0
C      1  0.4720020000000  0.5696480000000  0.5217530000000 1.0
C      1  0.4538750000000  0.5630650000000  0.4477600000000 1.0
C      1  0.5461250000000  0.4369350000000  0.5522400000000 1.0
C      1  0.4641400000000  0.5136760000000  0.5333360000000 1.0
C      1  0.5358600000000  0.4863240000000  0.4666640000000 1.0
C      1  0.5526120000000  0.5307440000000  0.4832850000000 1.0
C      1  0.4473880000000  0.4692560000000  0.5167150000000 1.0
C      1  0.4905590000000  0.4859110000000  0.4311040000000 1.0
C      1  0.5094410000000  0.5140890000000  0.5688960000000 1.0
C      1  0.5124540000000  0.4871330000000  0.5369360000000 1.0
C      1  0.4875460000000  0.5128670000000  0.4630640000000 1.0
C      1  0.4823950000000  0.4856930000000  0.5268870000000 1.0
C      1  0.5176050000000  0.5143070000000  0.4731140000000 1.0
C      1  0.5163110000000  0.5639830000000  0.5005380000000 1.0
C      1  0.4836890000000  0.4360170000000  0.4994620000000 1.0
C      1  0.4845080000000  0.4194460000000  0.4561620000000 1.0
C      1  0.5154920000000  0.5805540000000  0.5438380000000 1.0
C      1  0.5400050000000  0.4294040000000  0.5267220000000 1.0
C      1  0.4599950000000  0.5705960000000  0.4732780000000 1.0
C      1  0.4308070000000  0.5140260000000  0.4848060000000 1.0
C      1  0.5691930000000  0.4859740000000  0.5151940000000 1.0
C      1  0.4744140000000  0.4950290000000  0.4796210000000 1.0
C      1  0.5255860000000  0.5049710000000  0.5203790000000 1.0
C      1  0.4667210000000  0.5357270000000  0.5561910000000 1.0
C      1  0.5332790000000  0.4642730000000  0.4438090000000 1.0
C      1  0.4624740000000  0.4520130000000  0.4936200000000 1.0
C      1  0.5375260000000  0.5479870000000  0.5063800000000 1.0
C      1  0.4854230000000  0.5356900000000  0.4451670000000 1.0
C      1  0.5145770000000  0.4643100000000  0.5548330000000 1.0
C      1  0.4567970000000  0.5596680000000  0.4992880000000 1.0
C      1  0.5432030000000  0.4403320000000  0.5007120000000 1.0
C      1  0.5188840000000  0.4873860000000  0.4305540000000 1.0
C      1  0.4811160000000  0.5126140000000  0.5694460000000 1.0
C      1  0.4260510000000  0.5197570000000  0.4572880000000 1.0
C      1  0.5739490000000  0.4802430000000  0.5427120000000 1.0
C      1  0.4547050000000  0.4648140000000  0.4630060000000 1.0
C      1  0.5452950000000  0.5351860000000  0.5369940000000 1.0
END
