TITL C-2782230-7391-638 0.00119130194681542 125000 -148.916970865502 0 0 27 (Cs) n - 1
REM
REM in /home/nfs/bkarasulu/CARBON/AIRSS/Generating-Clusters/REBO/Higher-Symm/SD-CG/HFTN-CG
REM
REM
REM
REM
REM
REM ./C.cell (12c818d87b63d06a65506943cc24bca4)
REM
REM compiler GCC version 9.2.1 20190827 (Red Hat 9.2.1-1)
REM options -cpp -mtune=generic -march=x86-64 -g -O0 -fpre-include=/usr/include/finclude/math-vector-fortran.h
REM seed 1857384325 -914166051 -811353584 -2119534873 1171942721 -1807162236 -1785273725 -1281871720 -522218877 -1236726109 1219893484 2108870388 169999471 -2065837136 2080863017 1734770163 1015755719 -1275530664 493272931 -174905959 827966184 1715148063 -745591460 -2003774327 46781327 -632676919 442896090 -662830777 -838472329 -1532734946 1613136584 -821257069 -2039014760
REM
CELL 1.54180   50.00000   50.00000   50.00000   90.00000   90.00000   90.00000
LATT -1
SFAC C  
C      1  0.5164160000000  0.5011510000000  0.4630770000000 1.0
C      1  0.4832010000000  0.5021730000000  0.4601590000000 1.0
C      1  0.4594640000000  0.5021600000000  0.4832540000000 1.0
C      1  0.4614720000000  0.5011210000000  0.5165360000000 1.0
C      1  0.4832710000000  0.4991360000000  0.5413150000000 1.0
C      1  0.5162200000000  0.4988980000000  0.5415950000000 1.0
C      1  0.5399670000000  0.4989110000000  0.5184900000000 1.0
C      1  0.5405890000000  0.4991670000000  0.4855450000000 1.0
C      1  0.5133190000000  0.5490110000000  0.5148850000000 1.0
C      1  0.5243640000000  0.4473610000000  0.5017280000000 1.0
C      1  0.5193420000000  0.5520110000000  0.4850880000000 1.0
C      1  0.5010220000000  0.4514730000000  0.4802560000000 1.0
C      1  0.4852580000000  0.5564670000000  0.4860490000000 1.0
C      1  0.4790940000000  0.4514610000000  0.5015910000000 1.0
C      1  0.4833660000000  0.5519910000000  0.5200910000000 1.0
C      1  0.4999210000000  0.4473480000000  0.5255110000000 1.0
C      1  0.4685930000000  0.5318980000000  0.4689080000000 1.0
C      1  0.4605690000000  0.4725940000000  0.5000240000000 1.0
C      1  0.4709480000000  0.5292570000000  0.5314660000000 1.0
C      1  0.4997220000000  0.4694740000000  0.5441030000000 1.0
C      1  0.5267720000000  0.5281530000000  0.5287010000000 1.0
C      1  0.5429420000000  0.4694970000000  0.5020510000000 1.0
C      1  0.5310650000000  0.5292900000000  0.4729740000000 1.0
C      1  0.4999510000000  0.4726160000000  0.4617070000000 1.0
C      1  0.4911870000000  0.5247110000000  0.4921250000000 1.0
C      1  0.5051620000000  0.4813950000000  0.5064640000000 1.0
C      1  0.5033000000000  0.5066310000000  0.5045650000000 1.0
END
