TITL C-2782236-320-431 0.00721530113410615 125000 -1148.56830552849 0 0 192 (C1) n - 1
REM
REM in /home/nfs/bkarasulu/CARBON/AIRSS/Generating-Clusters/REBO/Higher-Symm/SD-CG/HFTN-CG
REM
REM
REM
REM
REM
REM ./C.cell (12c818d87b63d06a65506943cc24bca4)
REM
REM compiler GCC version 9.2.1 20190827 (Red Hat 9.2.1-1)
REM options -cpp -mtune=generic -march=x86-64 -g -O0 -fpre-include=/usr/include/finclude/math-vector-fortran.h
REM seed 2055575449 772318979 -847461677 -1160704370 -1375838822 922939199 1831811942 -922645307 404194496 1006859479 -1947315655 -958091120 -14911199 -2048411590 -62799655 508407388 -372098062 -495088041 -1945336804 -722436038 1408083328 -869006430 145669059 -935873942 134162849 -1266907100 -371701539 -1306260583 -735613662 1522438436 1333097972 899950496 -569313805
REM
CELL 1.54180   50.00000   50.00000   50.00000   90.00000   90.00000   90.00000
LATT -1
SFAC C  
C      1  0.5009820000000  0.5339900000000  0.4124550000000 1.0
C      1  0.5012150000000  0.4660820000000  0.5901840000000 1.0
C      1  0.5918440000000  0.5167340000000  0.5844400000000 1.0
C      1  0.5920150000000  0.4861040000000  0.4179440000000 1.0
C      1  0.3912850000000  0.4939800000000  0.5820730000000 1.0
C      1  0.3905530000000  0.5062570000000  0.4177640000000 1.0
C      1  0.4725420000000  0.5911410000000  0.4828670000000 1.0
C      1  0.4683980000000  0.4113990000000  0.5147560000000 1.0
C      1  0.4271560000000  0.5012690000000  0.4337270000000 1.0
C      1  0.4365130000000  0.4943220000000  0.5645760000000 1.0
C      1  0.4946250000000  0.5015360000000  0.3848020000000 1.0
C      1  0.4932960000000  0.5066120000000  0.6090600000000 1.0
C      1  0.5571260000000  0.6067540000000  0.5432600000000 1.0
C      1  0.5497870000000  0.3971610000000  0.4659660000000 1.0
C      1  0.4969470000000  0.4113870000000  0.5212120000000 1.0
C      1  0.5010770000000  0.5837240000000  0.4737320000000 1.0
C      1  0.4849800000000  0.5730630000000  0.6078880000000 1.0
C      1  0.4933610000000  0.4367100000000  0.3822380000000 1.0
C      1  0.5886010000000  0.5777350000000  0.5228840000000 1.0
C      1  0.5834260000000  0.4300400000000  0.4741570000000 1.0
C      1  0.4658350000000  0.4272980000000  0.5952350000000 1.0
C      1  0.4615340000000  0.5664440000000  0.4108850000000 1.0
C      1  0.5105770000000  0.5602320000000  0.4165420000000 1.0
C      1  0.5114820000000  0.4400680000000  0.5877850000000 1.0
C      1  0.4896770000000  0.5820410000000  0.4226970000000 1.0
C      1  0.4929140000000  0.4182300000000  0.5763320000000 1.0
C      1  0.4332730000000  0.4243800000000  0.5010580000000 1.0
C      1  0.4377770000000  0.5758370000000  0.4953610000000 1.0
C      1  0.3973270000000  0.4648530000000  0.4940580000000 1.0
C      1  0.3985110000000  0.5440370000000  0.5065650000000 1.0
C      1  0.5760420000000  0.5535300000000  0.4691300000000 1.0
C      1  0.5825580000000  0.4457750000000  0.5393980000000 1.0
C      1  0.4750760000000  0.5422100000000  0.5465180000000 1.0
C      1  0.4715410000000  0.4554290000000  0.4486710000000 1.0
C      1  0.4668880000000  0.5616490000000  0.4958100000000 1.0
C      1  0.4621480000000  0.4419130000000  0.5033610000000 1.0
C      1  0.5893380000000  0.4615920000000  0.5168510000000 1.0
C      1  0.5841540000000  0.5362930000000  0.4897050000000 1.0
C      1  0.5671960000000  0.4765370000000  0.4474790000000 1.0
C      1  0.5677620000000  0.5193010000000  0.5527320000000 1.0
C      1  0.4736170000000  0.4596440000000  0.3768270000000 1.0
C      1  0.4714300000000  0.5454440000000  0.6182130000000 1.0
C      1  0.4448510000000  0.5765040000000  0.5720900000000 1.0
C      1  0.4435580000000  0.4264370000000  0.4214850000000 1.0
C      1  0.5715930000000  0.4722300000000  0.4030730000000 1.0
C      1  0.5704340000000  0.5276860000000  0.5981510000000 1.0
C      1  0.4944180000000  0.4177830000000  0.4779280000000 1.0
C      1  0.5199170000000  0.5824630000000  0.5180090000000 1.0
C      1  0.5170030000000  0.4347440000000  0.4015190000000 1.0
C      1  0.5080720000000  0.5702060000000  0.5927950000000 1.0
C      1  0.4512270000000  0.5286120000000  0.3726960000000 1.0
C      1  0.4562010000000  0.4720120000000  0.6286050000000 1.0
C      1  0.5257740000000  0.5483910000000  0.6056100000000 1.0
C      1  0.5258330000000  0.4616540000000  0.3843430000000 1.0
C      1  0.5823300000000  0.5433630000000  0.4423050000000 1.0
C      1  0.5859420000000  0.4582940000000  0.5655930000000 1.0
C      1  0.5955840000000  0.4906520000000  0.5628450000000 1.0
C      1  0.5945460000000  0.5114310000000  0.4409080000000 1.0
C      1  0.5498760000000  0.5393460000000  0.5429460000000 1.0
C      1  0.5510840000000  0.4549150000000  0.4554780000000 1.0
C      1  0.5292890000000  0.4039640000000  0.5257840000000 1.0
C      1  0.5289610000000  0.6017940000000  0.4717370000000 1.0
C      1  0.4323780000000  0.5187980000000  0.4914640000000 1.0
C      1  0.4317450000000  0.4741870000000  0.5120360000000 1.0
C      1  0.5535370000000  0.5520390000000  0.5899840000000 1.0
C      1  0.5491920000000  0.4465030000000  0.4046540000000 1.0
C      1  0.4577190000000  0.5985000000000  0.5113170000000 1.0
C      1  0.4537000000000  0.3988210000000  0.4891710000000 1.0
C      1  0.4641070000000  0.4657570000000  0.4796470000000 1.0
C      1  0.4845470000000  0.5438370000000  0.5148400000000 1.0
C      1  0.5714450000000  0.5062940000000  0.4883050000000 1.0
C      1  0.5726760000000  0.4894660000000  0.5147860000000 1.0
C      1  0.4781380000000  0.5194480000000  0.6394110000000 1.0
C      1  0.4763950000000  0.4873470000000  0.3566550000000 1.0
C      1  0.5367530000000  0.4342860000000  0.5506770000000 1.0
C      1  0.5323210000000  0.5647600000000  0.4575080000000 1.0
C      1  0.5093880000000  0.4409230000000  0.5316040000000 1.0
C      1  0.5066740000000  0.5525600000000  0.4731760000000 1.0
C      1  0.4681180000000  0.5014680000000  0.5899980000000 1.0
C      1  0.4693280000000  0.5024230000000  0.4036140000000 1.0
C      1  0.5986300000000  0.4508390000000  0.4934030000000 1.0
C      1  0.5946350000000  0.5489600000000  0.5109590000000 1.0
C      1  0.4588090000000  0.5114260000000  0.3568540000000 1.0
C      1  0.4637060000000  0.4924570000000  0.6400670000000 1.0
C      1  0.5452340000000  0.5908830000000  0.4992340000000 1.0
C      1  0.5500910000000  0.4212780000000  0.5080910000000 1.0
C      1  0.5984640000000  0.5041500000000  0.4707860000000 1.0
C      1  0.5986360000000  0.4969290000000  0.5328610000000 1.0
C      1  0.5530800000000  0.4973740000000  0.4277980000000 1.0
C      1  0.5538070000000  0.5002270000000  0.5744750000000 1.0
C      1  0.5636440000000  0.4131280000000  0.4833510000000 1.0
C      1  0.5679170000000  0.5965260000000  0.5190870000000 1.0
C      1  0.5346760000000  0.5628410000000  0.4301030000000 1.0
C      1  0.5372530000000  0.4381310000000  0.5777120000000 1.0
C      1  0.5038100000000  0.4732740000000  0.3700660000000 1.0
C      1  0.5036760000000  0.5350760000000  0.6225260000000 1.0
C      1  0.3885750000000  0.4902520000000  0.5093080000000 1.0
C      1  0.3907810000000  0.5159440000000  0.5004800000000 1.0
C      1  0.5960350000000  0.5301340000000  0.5567050000000 1.0
C      1  0.5970170000000  0.4718400000000  0.4458540000000 1.0
C      1  0.5073730000000  0.4304350000000  0.4292640000000 1.0
C      1  0.5097300000000  0.5695310000000  0.5639100000000 1.0
C      1  0.4096070000000  0.4413380000000  0.5145030000000 1.0
C      1  0.4198630000000  0.5559380000000  0.4836020000000 1.0
C      1  0.5459450000000  0.4798260000000  0.5274620000000 1.0
C      1  0.5443840000000  0.5122490000000  0.4741040000000 1.0
C      1  0.5588610000000  0.5501950000000  0.4196500000000 1.0
C      1  0.5609970000000  0.4521080000000  0.5879340000000 1.0
C      1  0.5378340000000  0.5170910000000  0.5996780000000 1.0
C      1  0.5404180000000  0.4848670000000  0.3989690000000 1.0
C      1  0.4544270000000  0.4071780000000  0.5398590000000 1.0
C      1  0.4551640000000  0.5979130000000  0.4581980000000 1.0
C      1  0.5354390000000  0.4961480000000  0.5491000000000 1.0
C      1  0.5339360000000  0.4979940000000  0.4522850000000 1.0
C      1  0.5340680000000  0.5336500000000  0.5176970000000 1.0
C      1  0.5375900000000  0.4566290000000  0.4814430000000 1.0
C      1  0.4585170000000  0.5659820000000  0.5345650000000 1.0
C      1  0.4669180000000  0.4285560000000  0.4660500000000 1.0
C      1  0.4556470000000  0.4506820000000  0.4233070000000 1.0
C      1  0.4566650000000  0.5517360000000  0.5716700000000 1.0
C      1  0.4573520000000  0.4957630000000  0.4877370000000 1.0
C      1  0.4617390000000  0.4873350000000  0.5192140000000 1.0
C      1  0.4379700000000  0.4459530000000  0.4679520000000 1.0
C      1  0.4309300000000  0.5548310000000  0.5283610000000 1.0
C      1  0.5046370000000  0.5419250000000  0.5538930000000 1.0
C      1  0.5006290000000  0.4565190000000  0.4426480000000 1.0
C      1  0.4544640000000  0.4561430000000  0.6022980000000 1.0
C      1  0.4486240000000  0.5386840000000  0.4011910000000 1.0
C      1  0.4374180000000  0.4937560000000  0.4036470000000 1.0
C      1  0.4352640000000  0.5106170000000  0.5924350000000 1.0
C      1  0.5222310000000  0.4839060000000  0.4955110000000 1.0
C      1  0.5151130000000  0.5073140000000  0.5071130000000 1.0
C      1  0.5605810000000  0.4289840000000  0.5366810000000 1.0
C      1  0.5540750000000  0.5707360000000  0.4742340000000 1.0
C      1  0.4199670000000  0.5535020000000  0.4343210000000 1.0
C      1  0.4276990000000  0.4423800000000  0.5615350000000 1.0
C      1  0.4675510000000  0.3962130000000  0.4580810000000 1.0
C      1  0.4753820000000  0.5953910000000  0.5380680000000 1.0
C      1  0.5093000000000  0.5962980000000  0.4444960000000 1.0
C      1  0.5084000000000  0.4050990000000  0.5526830000000 1.0
C      1  0.5019750000000  0.4628860000000  0.4982560000000 1.0
C      1  0.4873370000000  0.5156160000000  0.5005490000000 1.0
C      1  0.6200010000000  0.5027570000000  0.4880190000000 1.0
C      1  0.6198160000000  0.5021620000000  0.5159050000000 1.0
C      1  0.4590910000000  0.5888620000000  0.4334130000000 1.0
C      1  0.4637620000000  0.4251680000000  0.5625290000000 1.0
C      1  0.5124640000000  0.5554230000000  0.5130200000000 1.0
C      1  0.5113860000000  0.4368500000000  0.4878560000000 1.0
C      1  0.4277740000000  0.5889930000000  0.5251490000000 1.0
C      1  0.4303910000000  0.4131000000000  0.4689530000000 1.0
C      1  0.4226480000000  0.5299690000000  0.4157480000000 1.0
C      1  0.4330640000000  0.4644140000000  0.5806710000000 1.0
C      1  0.5487230000000  0.5607010000000  0.5627020000000 1.0
C      1  0.5461830000000  0.4356240000000  0.4350660000000 1.0
C      1  0.4814920000000  0.4602770000000  0.5247130000000 1.0
C      1  0.4794830000000  0.5376710000000  0.4758550000000 1.0
C      1  0.4352470000000  0.5492580000000  0.4566160000000 1.0
C      1  0.4370820000000  0.4483150000000  0.5336950000000 1.0
C      1  0.4080980000000  0.4772280000000  0.5607820000000 1.0
C      1  0.4017140000000  0.5194880000000  0.4441330000000 1.0
C      1  0.4446990000000  0.5066690000000  0.5380030000000 1.0
C      1  0.4324360000000  0.4979580000000  0.4642410000000 1.0
C      1  0.5448290000000  0.5884650000000  0.5595010000000 1.0
C      1  0.5327330000000  0.4089610000000  0.4447420000000 1.0
C      1  0.6061170000000  0.4507000000000  0.4623520000000 1.0
C      1  0.6025480000000  0.5525320000000  0.5410330000000 1.0
C      1  0.5505570000000  0.4798420000000  0.6015770000000 1.0
C      1  0.5514160000000  0.5222810000000  0.4049240000000 1.0
C      1  0.4060440000000  0.4969100000000  0.4000530000000 1.0
C      1  0.4049220000000  0.5086190000000  0.5979770000000 1.0
C      1  0.5365980000000  0.4522600000000  0.5150180000000 1.0
C      1  0.5316980000000  0.5354970000000  0.4846530000000 1.0
C      1  0.4573170000000  0.5334950000000  0.5947400000000 1.0
C      1  0.4589380000000  0.4700280000000  0.4013540000000 1.0
C      1  0.4993110000000  0.4043650000000  0.4485130000000 1.0
C      1  0.5052030000000  0.5897460000000  0.5424150000000 1.0
C      1  0.4057630000000  0.5268220000000  0.4716540000000 1.0
C      1  0.4042070000000  0.4706930000000  0.5323690000000 1.0
C      1  0.4645560000000  0.4552750000000  0.5531500000000 1.0
C      1  0.4612900000000  0.5366900000000  0.4518590000000 1.0
C      1  0.5207390000000  0.5128020000000  0.3987690000000 1.0
C      1  0.5184480000000  0.4891700000000  0.6019570000000 1.0
C      1  0.4318440000000  0.5274890000000  0.5212240000000 1.0
C      1  0.4246360000000  0.4711010000000  0.4795580000000 1.0
C      1  0.5146330000000  0.4778940000000  0.4506030000000 1.0
C      1  0.5166250000000  0.5171120000000  0.5495810000000 1.0
C      1  0.4412720000000  0.4060670000000  0.4391920000000 1.0
C      1  0.4448100000000  0.5975470000000  0.5533720000000 1.0
C      1  0.5825950000000  0.4787520000000  0.5920700000000 1.0
C      1  0.5833890000000  0.5269250000000  0.4127390000000 1.0
C      1  0.4716800000000  0.5286240000000  0.4228380000000 1.0
C      1  0.4721940000000  0.4722550000000  0.5793290000000 1.0
END
