TITL C-2782226-7400-625 0.00103969674576978 125000 -1081.04589721236 0 0 184 (C1) n - 1
REM
REM in /home/nfs/bkarasulu/CARBON/AIRSS/Generating-Clusters/REBO/Higher-Symm/SD-CG/HFTN-CG
REM
REM
REM
REM
REM
REM ./C.cell (12c818d87b63d06a65506943cc24bca4)
REM
REM compiler GCC version 9.2.1 20190827 (Red Hat 9.2.1-1)
REM options -cpp -mtune=generic -march=x86-64 -g -O0 -fpre-include=/usr/include/finclude/math-vector-fortran.h
REM seed 1210647629 1642748604 397756809 868953134 1194055910 1806636331 1078603 25423921 -1336300806 886876429 806645081 1701362152 979218231 -778721126 -1123679584 1675706391 1687774991 -1077813808 2066920740 -595443166 993454601 -808855974 1739329621 1962072318 -86380863 -834642571 1198419494 -1955523559 -445005440 1618336369 622072698 -579759792 -578995035
REM
CELL 1.54180   50.00000   50.00000   50.00000   90.00000   90.00000   90.00000
LATT -1
SFAC C  
C      1  0.4834620000000  0.5304100000000  0.5062430000000 1.0
C      1  0.4829400000000  0.5170010000000  0.4756700000000 1.0
C      1  0.4838860000000  0.4836930000000  0.4811650000000 1.0
C      1  0.4854600000000  0.4759790000000  0.5142230000000 1.0
C      1  0.4839920000000  0.5055370000000  0.5294560000000 1.0
C      1  0.5155240000000  0.5300630000000  0.4939270000000 1.0
C      1  0.5158840000000  0.5172840000000  0.5249170000000 1.0
C      1  0.5173030000000  0.4849670000000  0.5228220000000 1.0
C      1  0.5163880000000  0.4777570000000  0.4894470000000 1.0
C      1  0.5149910000000  0.5055020000000  0.4695620000000 1.0
C      1  0.4186040000000  0.4569450000000  0.4282810000000 1.0
C      1  0.4143070000000  0.4193520000000  0.5218640000000 1.0
C      1  0.4120030000000  0.4946020000000  0.5834650000000 1.0
C      1  0.4104500000000  0.5762930000000  0.5304220000000 1.0
C      1  0.4162260000000  0.5522000000000  0.4353020000000 1.0
C      1  0.5870290000000  0.4578500000000  0.5693280000000 1.0
C      1  0.5839500000000  0.4207320000000  0.4775840000000 1.0
C      1  0.5821410000000  0.4958170000000  0.4147250000000 1.0
C      1  0.5839330000000  0.5765910000000  0.4674340000000 1.0
C      1  0.5874400000000  0.5535880000000  0.5633740000000 1.0
C      1  0.5475490000000  0.5331130000000  0.4472280000000 1.0
C      1  0.5490310000000  0.4580120000000  0.4480330000000 1.0
C      1  0.5495690000000  0.4379720000000  0.5259100000000 1.0
C      1  0.5499920000000  0.4989220000000  0.5642350000000 1.0
C      1  0.5492570000000  0.5591990000000  0.5229810000000 1.0
C      1  0.4490490000000  0.5396550000000  0.5490360000000 1.0
C      1  0.4515100000000  0.4659260000000  0.5551680000000 1.0
C      1  0.4506020000000  0.4379340000000  0.4749140000000 1.0
C      1  0.4607430000000  0.5056650000000  0.4381160000000 1.0
C      1  0.4489970000000  0.5613230000000  0.4779320000000 1.0
C      1  0.4245980000000  0.5204520000000  0.5834050000000 1.0
C      1  0.4228320000000  0.5859910000000  0.5063160000000 1.0
C      1  0.4324990000000  0.5325850000000  0.4214700000000 1.0
C      1  0.4278560000000  0.4333960000000  0.4423940000000 1.0
C      1  0.4268840000000  0.4265850000000  0.5469510000000 1.0
C      1  0.5692590000000  0.5215360000000  0.4158090000000 1.0
C      1  0.5724370000000  0.5860500000000  0.4921800000000 1.0
C      1  0.5747890000000  0.5326870000000  0.5786380000000 1.0
C      1  0.5753050000000  0.4349720000000  0.5563020000000 1.0
C      1  0.5734270000000  0.4259510000000  0.4506240000000 1.0
C      1  0.5722440000000  0.4730650000000  0.4011800000000 1.0
C      1  0.5690450000000  0.4035260000000  0.4942470000000 1.0
C      1  0.5756760000000  0.4672870000000  0.5935720000000 1.0
C      1  0.5729460000000  0.5778600000000  0.5630210000000 1.0
C      1  0.5673950000000  0.5788100000000  0.4446200000000 1.0
C      1  0.4264710000000  0.4749990000000  0.5977930000000 1.0
C      1  0.4299210000000  0.4022820000000  0.5056840000000 1.0
C      1  0.4303720000000  0.4702760000000  0.4059970000000 1.0
C      1  0.4268220000000  0.5783870000000  0.4364740000000 1.0
C      1  0.4244110000000  0.5830200000000  0.5541070000000 1.0
C      1  0.4524390000000  0.5234920000000  0.5926010000000 1.0
C      1  0.4503530000000  0.5963730000000  0.5071420000000 1.0
C      1  0.4600270000000  0.5359520000000  0.4123180000000 1.0
C      1  0.4580330000000  0.4221330000000  0.4376600000000 1.0
C      1  0.4545680000000  0.4189070000000  0.5550360000000 1.0
C      1  0.5392760000000  0.5283300000000  0.4084070000000 1.0
C      1  0.5449170000000  0.5968900000000  0.4944860000000 1.0
C      1  0.5474310000000  0.5345740000000  0.5887810000000 1.0
C      1  0.5480180000000  0.4217650000000  0.5657370000000 1.0
C      1  0.5465040000000  0.4187640000000  0.4414750000000 1.0
C      1  0.4337450000000  0.5155710000000  0.4802040000000 1.0
C      1  0.4360780000000  0.4873110000000  0.4753770000000 1.0
C      1  0.4369860000000  0.4734970000000  0.5004520000000 1.0
C      1  0.4350000000000  0.4936360000000  0.5211610000000 1.0
C      1  0.4329680000000  0.5195490000000  0.5087090000000 1.0
C      1  0.5657810000000  0.5132210000000  0.5179790000000 1.0
C      1  0.5653910000000  0.4848050000000  0.5239570000000 1.0
C      1  0.5629040000000  0.4701160000000  0.4993810000000 1.0
C      1  0.5639520000000  0.4889920000000  0.4779840000000 1.0
C      1  0.5649930000000  0.5154400000000  0.4891090000000 1.0
C      1  0.4902990000000  0.4519790000000  0.3999500000000 1.0
C      1  0.4930950000000  0.3950570000000  0.5192990000000 1.0
C      1  0.4928420000000  0.4805590000000  0.6055510000000 1.0
C      1  0.4922030000000  0.5919370000000  0.5529860000000 1.0
C      1  0.4979430000000  0.5875400000000  0.4311640000000 1.0
C      1  0.5067790000000  0.4548890000000  0.5999290000000 1.0
C      1  0.5024610000000  0.3923450000000  0.4921150000000 1.0
C      1  0.5064600000000  0.4768440000000  0.3947770000000 1.0
C      1  0.5088500000000  0.5992430000000  0.4564280000000 1.0
C      1  0.5060010000000  0.5761890000000  0.5737560000000 1.0
C      1  0.5409320000000  0.4863430000000  0.4577670000000 1.0
C      1  0.5353150000000  0.4546420000000  0.5003600000000 1.0
C      1  0.5412090000000  0.4789130000000  0.5415450000000 1.0
C      1  0.5449850000000  0.5298300000000  0.5293780000000 1.0
C      1  0.5440340000000  0.5314730000000  0.4781660000000 1.0
C      1  0.4562070000000  0.4921850000000  0.5408950000000 1.0
C      1  0.4631040000000  0.4559000000000  0.5010510000000 1.0
C      1  0.4615800000000  0.4815950000000  0.4599220000000 1.0
C      1  0.4549850000000  0.5321280000000  0.4699610000000 1.0
C      1  0.4537960000000  0.5367120000000  0.5192300000000 1.0
C      1  0.5242890000000  0.5721520000000  0.4676560000000 1.0
C      1  0.5271080000000  0.4769590000000  0.4206490000000 1.0
C      1  0.5228710000000  0.4184900000000  0.4844520000000 1.0
C      1  0.5266770000000  0.4692540000000  0.5774120000000 1.0
C      1  0.5248960000000  0.5554620000000  0.5543900000000 1.0
C      1  0.4733770000000  0.5687140000000  0.5365330000000 1.0
C      1  0.4745790000000  0.4891150000000  0.5779350000000 1.0
C      1  0.4737680000000  0.4225510000000  0.5203290000000 1.0
C      1  0.4752090000000  0.4691030000000  0.4245420000000 1.0
C      1  0.4765390000000  0.5680070000000  0.4485270000000 1.0
C      1  0.4527840000000  0.4141910000000  0.4969610000000 1.0
C      1  0.4506620000000  0.4691290000000  0.5872240000000 1.0
C      1  0.4483820000000  0.5708170000000  0.5570830000000 1.0
C      1  0.4486920000000  0.5810210000000  0.4522280000000 1.0
C      1  0.4520220000000  0.4860400000000  0.4115340000000 1.0
C      1  0.5462890000000  0.4140810000000  0.5049310000000 1.0
C      1  0.5526180000000  0.4594510000000  0.4142450000000 1.0
C      1  0.5445530000000  0.5639330000000  0.4456560000000 1.0
C      1  0.5491850000000  0.5763570000000  0.5501920000000 1.0
C      1  0.5524990000000  0.4816310000000  0.5917730000000 1.0
C      1  0.5106250000000  0.4952930000000  0.5624070000000 1.0
C      1  0.5095420000000  0.5567220000000  0.5247770000000 1.0
C      1  0.5076140000000  0.5444980000000  0.4559170000000 1.0
C      1  0.5095130000000  0.4602820000000  0.4445990000000 1.0
C      1  0.5124530000000  0.4341470000000  0.5118610000000 1.0
C      1  0.4955770000000  0.4902570000000  0.4407280000000 1.0
C      1  0.4885460000000  0.5595950000000  0.4795420000000 1.0
C      1  0.4887040000000  0.5408220000000  0.5464420000000 1.0
C      1  0.4912640000000  0.4686470000000  0.5564720000000 1.0
C      1  0.4866840000000  0.4338840000000  0.4913920000000 1.0
C      1  0.4895100000000  0.5265810000000  0.4026550000000 1.0
C      1  0.4837850000000  0.4088960000000  0.4440720000000 1.0
C      1  0.4854080000000  0.4154780000000  0.5669810000000 1.0
C      1  0.4827620000000  0.5331340000000  0.5995690000000 1.0
C      1  0.4808790000000  0.6065970000000  0.5016480000000 1.0
C      1  0.5177150000000  0.5301050000000  0.6013210000000 1.0
C      1  0.5196590000000  0.4113230000000  0.5630150000000 1.0
C      1  0.5149650000000  0.4118030000000  0.4308220000000 1.0
C      1  0.5139280000000  0.5428450000000  0.4057250000000 1.0
C      1  0.5159610000000  0.6066910000000  0.5052930000000 1.0
C      1  0.5264960000000  0.4358040000000  0.4605470000000 1.0
C      1  0.5384470000000  0.4501820000000  0.5537850000000 1.0
C      1  0.5279700000000  0.5246050000000  0.5631810000000 1.0
C      1  0.5275190000000  0.5689000000000  0.4996520000000 1.0
C      1  0.5363040000000  0.5060750000000  0.4322200000000 1.0
C      1  0.4726840000000  0.4445440000000  0.5429880000000 1.0
C      1  0.4623590000000  0.4524290000000  0.4479750000000 1.0
C      1  0.4786910000000  0.5347960000000  0.4402080000000 1.0
C      1  0.4688060000000  0.5686830000000  0.5047400000000 1.0
C      1  0.4703250000000  0.5186390000000  0.5645600000000 1.0
C      1  0.4008800000000  0.5447220000000  0.5287090000000 1.0
C      1  0.4033350000000  0.5412990000000  0.4639040000000 1.0
C      1  0.4085800000000  0.4787990000000  0.4477500000000 1.0
C      1  0.4033690000000  0.4442960000000  0.5036430000000 1.0
C      1  0.4020920000000  0.4850360000000  0.5537720000000 1.0
C      1  0.5973320000000  0.5470810000000  0.4696630000000 1.0
C      1  0.5979960000000  0.5438110000000  0.5337230000000 1.0
C      1  0.5979080000000  0.4807480000000  0.5484130000000 1.0
C      1  0.5948850000000  0.4466660000000  0.4941570000000 1.0
C      1  0.5941170000000  0.4875070000000  0.4418260000000 1.0
C      1  0.4863150000000  0.4086710000000  0.4721670000000 1.0
C      1  0.4972930000000  0.4423670000000  0.5743890000000 1.0
C      1  0.4928100000000  0.5496180000000  0.5771970000000 1.0
C      1  0.4910660000000  0.5915480000000  0.4783380000000 1.0
C      1  0.4960820000000  0.4999970000000  0.4104680000000 1.0
C      1  0.5098090000000  0.4147440000000  0.5353970000000 1.0
C      1  0.5014070000000  0.4380040000000  0.4234000000000 1.0
C      1  0.5095140000000  0.5606180000000  0.4272280000000 1.0
C      1  0.5062180000000  0.5890310000000  0.5268290000000 1.0
C      1  0.5082700000000  0.5031060000000  0.5938670000000 1.0
C      1  0.6006840000000  0.4638010000000  0.5230350000000 1.0
C      1  0.6015490000000  0.5137820000000  0.5409280000000 1.0
C      1  0.6015730000000  0.5467160000000  0.5000190000000 1.0
C      1  0.6007690000000  0.5155720000000  0.4577350000000 1.0
C      1  0.5988090000000  0.4666600000000  0.4712750000000 1.0
C      1  0.4000620000000  0.4637670000000  0.4759590000000 1.0
C      1  0.4016750000000  0.5113630000000  0.4568280000000 1.0
C      1  0.3983680000000  0.5433750000000  0.4976010000000 1.0
C      1  0.3981700000000  0.5134500000000  0.5419100000000 1.0
C      1  0.3995210000000  0.4626670000000  0.5282870000000 1.0
C      1  0.4184840000000  0.5648720000000  0.4835800000000 1.0
C      1  0.4267690000000  0.5050720000000  0.4360490000000 1.0
C      1  0.4184040000000  0.4368100000000  0.4738310000000 1.0
C      1  0.4218860000000  0.4571440000000  0.5516700000000 1.0
C      1  0.4191880000000  0.5343110000000  0.5557800000000 1.0
C      1  0.5786680000000  0.5648460000000  0.5147620000000 1.0
C      1  0.5805070000000  0.5054060000000  0.5643450000000 1.0
C      1  0.5814290000000  0.4375500000000  0.5243530000000 1.0
C      1  0.5815990000000  0.4566830000000  0.4460330000000 1.0
C      1  0.5798110000000  0.5358950000000  0.4425570000000 1.0
C      1  0.3878110000000  0.4926750000000  0.4786410000000 1.0
C      1  0.6117680000000  0.4937270000000  0.4770520000000 1.0
C      1  0.6293960000000  0.4983070000000  0.4960610000000 1.0
C      1  0.3694140000000  0.5001930000000  0.4958040000000 1.0
END
