TITL C-2782230-7391-478 -0.00115976991650497 125000 -702.303177216511 0 0 123 (C1) n - 1
REM
REM in /home/nfs/bkarasulu/CARBON/AIRSS/Generating-Clusters/REBO/Higher-Symm/SD-CG/HFTN-CG
REM
REM
REM
REM
REM
REM ./C.cell (12c818d87b63d06a65506943cc24bca4)
REM
REM compiler GCC version 9.2.1 20190827 (Red Hat 9.2.1-1)
REM options -cpp -mtune=generic -march=x86-64 -g -O0 -fpre-include=/usr/include/finclude/math-vector-fortran.h
REM seed 1820262624 -1993178138 -2025375343 1786116005 -72201248 -1587693837 895098579 727911585 1740417820 1980653142 -2023534305 -821711159 1689569896 -590733172 1245171651 1237679509 -43827431 -1029207674 -1926002698 -549415590 -897428631 -422847306 1802484464 -816393295 -1018046950 1915174044 660805257 1460429644 684482434 836896467 -19235926 -1835252313 -49943728
REM
CELL 1.54180   50.00000   50.00000   50.00000   90.00000   90.00000   90.00000
LATT -1
SFAC C  
C      1  0.4395920000000  0.4378310000000  0.4660430000000 1.0
C      1  0.4390690000000  0.4311460000000  0.5292260000000 1.0
C      1  0.4359530000000  0.4764710000000  0.5738150000000 1.0
C      1  0.4379880000000  0.5388040000000  0.5563780000000 1.0
C      1  0.4393310000000  0.5724240000000  0.5027000000000 1.0
C      1  0.4395340000000  0.5490520000000  0.4438760000000 1.0
C      1  0.4377140000000  0.4880170000000  0.4259030000000 1.0
C      1  0.5198360000000  0.5677270000000  0.4833450000000 1.0
C      1  0.5146740000000  0.5288030000000  0.4400260000000 1.0
C      1  0.5175690000000  0.4735200000000  0.4431230000000 1.0
C      1  0.5201070000000  0.4330470000000  0.4912000000000 1.0
C      1  0.5163230000000  0.4474260000000  0.5452490000000 1.0
C      1  0.5209380000000  0.4996580000000  0.5722260000000 1.0
C      1  0.5214670000000  0.5566960000000  0.5405600000000 1.0
C      1  0.4336950000000  0.4570120000000  0.5507120000000 1.0
C      1  0.4311720000000  0.5095700000000  0.5671010000000 1.0
C      1  0.4333710000000  0.5575870000000  0.5279460000000 1.0
C      1  0.4345140000000  0.5593530000000  0.4714480000000 1.0
C      1  0.4344450000000  0.5163870000000  0.4354460000000 1.0
C      1  0.4324510000000  0.4609940000000  0.4462320000000 1.0
C      1  0.4355540000000  0.4355580000000  0.4999700000000 1.0
C      1  0.5144620000000  0.4658170000000  0.5723620000000 1.0
C      1  0.5197510000000  0.5330770000000  0.5651930000000 1.0
C      1  0.5249690000000  0.5792980000000  0.5152150000000 1.0
C      1  0.5135980000000  0.5607150000000  0.4514860000000 1.0
C      1  0.5132250000000  0.5005880000000  0.4242040000000 1.0
C      1  0.5188490000000  0.4432650000000  0.4587110000000 1.0
C      1  0.5143850000000  0.4235570000000  0.5207250000000 1.0
C      1  0.5379010000000  0.5150860000000  0.5347000000000 1.0
C      1  0.5370460000000  0.5361140000000  0.5100730000000 1.0
C      1  0.5403380000000  0.5286970000000  0.4768840000000 1.0
C      1  0.5416550000000  0.4984050000000  0.4630960000000 1.0
C      1  0.5434070000000  0.4706600000000  0.4762910000000 1.0
C      1  0.5412760000000  0.4626860000000  0.5074680000000 1.0
C      1  0.5400460000000  0.4822370000000  0.5340950000000 1.0
C      1  0.4545820000000  0.4129570000000  0.4847120000000 1.0
C      1  0.4538910000000  0.4310200000000  0.5597020000000 1.0
C      1  0.4522800000000  0.5000430000000  0.5919980000000 1.0
C      1  0.4538550000000  0.5690190000000  0.5516660000000 1.0
C      1  0.4530660000000  0.5872970000000  0.4750730000000 1.0
C      1  0.4542440000000  0.5361050000000  0.4160220000000 1.0
C      1  0.4519180000000  0.4583010000000  0.4184290000000 1.0
C      1  0.5767530000000  0.5317100000000  0.5093660000000 1.0
C      1  0.5797800000000  0.5258000000000  0.4818770000000 1.0
C      1  0.5811250000000  0.5008200000000  0.4689560000000 1.0
C      1  0.5828170000000  0.4748000000000  0.4799970000000 1.0
C      1  0.5808110000000  0.4682870000000  0.5076000000000 1.0
C      1  0.5795990000000  0.4855690000000  0.5300610000000 1.0
C      1  0.5775950000000  0.5137880000000  0.5313190000000 1.0
C      1  0.4761180000000  0.5169840000000  0.5940350000000 1.0
C      1  0.4734710000000  0.5890740000000  0.5427260000000 1.0
C      1  0.4680360000000  0.5955410000000  0.4511230000000 1.0
C      1  0.4698250000000  0.5220460000000  0.3955200000000 1.0
C      1  0.4751170000000  0.4409460000000  0.4231510000000 1.0
C      1  0.4689200000000  0.3942340000000  0.5023480000000 1.0
C      1  0.4694920000000  0.4334820000000  0.5844420000000 1.0
C      1  0.5454690000000  0.4788200000000  0.5783070000000 1.0
C      1  0.5473850000000  0.5523380000000  0.5620310000000 1.0
C      1  0.5500830000000  0.5798940000000  0.4930120000000 1.0
C      1  0.5420210000000  0.5466920000000  0.4390010000000 1.0
C      1  0.5427990000000  0.4834730000000  0.4260090000000 1.0
C      1  0.5469890000000  0.4305030000000  0.4702900000000 1.0
C      1  0.5432270000000  0.4293810000000  0.5370090000000 1.0
C      1  0.4189380000000  0.4785580000000  0.4701940000000 1.0
C      1  0.4249260000000  0.4660480000000  0.4988540000000 1.0
C      1  0.4225140000000  0.4769310000000  0.5282750000000 1.0
C      1  0.4306780000000  0.5057590000000  0.5351000000000 1.0
C      1  0.4207900000000  0.5297160000000  0.5191550000000 1.0
C      1  0.4232650000000  0.5326400000000  0.4873650000000 1.0
C      1  0.4222890000000  0.5096440000000  0.4651880000000 1.0
C      1  0.5082570000000  0.4726570000000  0.5274680000000 1.0
C      1  0.5069710000000  0.5029810000000  0.5422540000000 1.0
C      1  0.5041390000000  0.5455040000000  0.5132080000000 1.0
C      1  0.5085270000000  0.5356090000000  0.4820670000000 1.0
C      1  0.5096540000000  0.5069540000000  0.4635280000000 1.0
C      1  0.4983980000000  0.4755000000000  0.4701800000000 1.0
C      1  0.5089010000000  0.4635680000000  0.4957090000000 1.0
C      1  0.4601740000000  0.4068810000000  0.5388690000000 1.0
C      1  0.4585170000000  0.4690030000000  0.5979810000000 1.0
C      1  0.4674930000000  0.5465610000000  0.5694530000000 1.0
C      1  0.4662650000000  0.5924810000000  0.5040390000000 1.0
C      1  0.4611340000000  0.5665710000000  0.4249720000000 1.0
C      1  0.4595100000000  0.4841440000000  0.4005180000000 1.0
C      1  0.4679470000000  0.4226930000000  0.4574120000000 1.0
C      1  0.5645790000000  0.4400240000000  0.5136060000000 1.0
C      1  0.5641310000000  0.4705000000000  0.5543600000000 1.0
C      1  0.5597390000000  0.5236000000000  0.5575510000000 1.0
C      1  0.5595850000000  0.5592590000000  0.5150640000000 1.0
C      1  0.5649620000000  0.5475300000000  0.4628300000000 1.0
C      1  0.5654990000000  0.5022000000000  0.4401390000000 1.0
C      1  0.5670780000000  0.4539410000000  0.4600420000000 1.0
C      1  0.4628480000000  0.6147420000000  0.5296130000000 1.0
C      1  0.4519490000000  0.5994340000000  0.4257580000000 1.0
C      1  0.4534800000000  0.5063470000000  0.3753560000000 1.0
C      1  0.4696830000000  0.4108340000000  0.4255630000000 1.0
C      1  0.4519540000000  0.3784190000000  0.5219450000000 1.0
C      1  0.4530910000000  0.4374670000000  0.6097560000000 1.0
C      1  0.4707100000000  0.5459160000000  0.6033310000000 1.0
C      1  0.5647830000000  0.4630510000000  0.4302910000000 1.0
C      1  0.5661640000000  0.4196400000000  0.4904400000000 1.0
C      1  0.5660780000000  0.4397800000000  0.5534550000000 1.0
C      1  0.5590850000000  0.5057150000000  0.5825900000000 1.0
C      1  0.5611540000000  0.5705870000000  0.5433380000000 1.0
C      1  0.5684900000000  0.5768800000000  0.4714590000000 1.0
C      1  0.5642960000000  0.5301940000000  0.4269590000000 1.0
C      1  0.4587160000000  0.4679630000000  0.5032400000000 1.0
C      1  0.4711970000000  0.4807270000000  0.5237860000000 1.0
C      1  0.4615670000000  0.5061430000000  0.5315220000000 1.0
C      1  0.4698200000000  0.5297690000000  0.5184610000000 1.0
C      1  0.4561780000000  0.5369020000000  0.4959840000000 1.0
C      1  0.4553740000000  0.5175750000000  0.4693670000000 1.0
C      1  0.4514640000000  0.4844660000000  0.4755340000000 1.0
C      1  0.4878460000000  0.4486470000000  0.4518540000000 1.0
C      1  0.4896740000000  0.4074390000000  0.5218480000000 1.0
C      1  0.4887530000000  0.4584200000000  0.5861460000000 1.0
C      1  0.4892910000000  0.5223110000000  0.5641400000000 1.0
C      1  0.4921700000000  0.5767970000000  0.5191240000000 1.0
C      1  0.4895090000000  0.5749160000000  0.4418950000000 1.0
C      1  0.4891310000000  0.4999690000000  0.4066410000000 1.0
C      1  0.4765320000000  0.5020870000000  0.4903970000000 1.0
C      1  0.5535500000000  0.5001400000000  0.5011810000000 1.0
C      1  0.5266250000000  0.4990240000000  0.5000240000000 1.0
C      1  0.4998380000000  0.5020300000000  0.5018720000000 1.0
END
