TITL C-2782233-7966-1360 -0.00118790688496367 125000 -419.556015135401 0 0 73 (C1) n - 1
REM
REM in /home/nfs/bkarasulu/CARBON/AIRSS/Generating-Clusters/REBO/Higher-Symm/SD-CG/HFTN-CG
REM
REM
REM
REM
REM
REM ./C.cell (12c818d87b63d06a65506943cc24bca4)
REM
REM compiler GCC version 9.2.1 20190827 (Red Hat 9.2.1-1)
REM options -cpp -mtune=generic -march=x86-64 -g -O0 -fpre-include=/usr/include/finclude/math-vector-fortran.h
REM seed 471454989 -1292141396 -142589419 -2124738032 -650434675 655700476 2049106252 -760083871 1715132262 -1705366578 2105310687 -1507359327 1777879903 318798816 -1294292289 -1845906536 -869742376 -358848210 680443469 100430128 -1823475316 613093526 -200285268 -2077192258 1177389129 -620230702 2070556858 1829829998 819377169 -50670737 -875804433 1145978532 1441099689
REM
CELL 1.54180   50.00000   50.00000   50.00000   90.00000   90.00000   90.00000
LATT -1
SFAC C  
C      1  0.4462970000000  0.4875180000000  0.5106260000000 1.0
C      1  0.5354490000000  0.5140030000000  0.5108290000000 1.0
C      1  0.4622270000000  0.4840200000000  0.4821240000000 1.0
C      1  0.5325800000000  0.5156370000000  0.4796120000000 1.0
C      1  0.5396500000000  0.4808940000000  0.5178490000000 1.0
C      1  0.4507790000000  0.5190400000000  0.5194200000000 1.0
C      1  0.5317860000000  0.4825040000000  0.4867590000000 1.0
C      1  0.4639650000000  0.5170130000000  0.4902280000000 1.0
C      1  0.4792650000000  0.5093570000000  0.5730210000000 1.0
C      1  0.5203700000000  0.4873680000000  0.5727930000000 1.0
C      1  0.4879090000000  0.5168640000000  0.4339130000000 1.0
C      1  0.5299200000000  0.4933300000000  0.4322240000000 1.0
C      1  0.5190390000000  0.5115900000000  0.5695620000000 1.0
C      1  0.4794710000000  0.4848530000000  0.5713110000000 1.0
C      1  0.5275910000000  0.5176490000000  0.4290770000000 1.0
C      1  0.4899770000000  0.4924690000000  0.4337350000000 1.0
C      1  0.5159380000000  0.5376040000000  0.5174940000000 1.0
C      1  0.4904420000000  0.4688230000000  0.5195810000000 1.0
C      1  0.5137010000000  0.5382590000000  0.4746120000000 1.0
C      1  0.4825910000000  0.4608000000000  0.4791950000000 1.0
C      1  0.4835110000000  0.5299010000000  0.5226420000000 1.0
C      1  0.5196400000000  0.4590100000000  0.5264570000000 1.0
C      1  0.4843910000000  0.5377660000000  0.4835500000000 1.0
C      1  0.5132320000000  0.4594620000000  0.4765110000000 1.0
C      1  0.5497570000000  0.5391010000000  0.5383950000000 1.0
C      1  0.4568500000000  0.4631650000000  0.5400470000000 1.0
C      1  0.5481420000000  0.5431540000000  0.4552060000000 1.0
C      1  0.4541500000000  0.4600490000000  0.4512910000000 1.0
C      1  0.4535260000000  0.5465810000000  0.5477620000000 1.0
C      1  0.5540240000000  0.4562140000000  0.5463750000000 1.0
C      1  0.4509000000000  0.5431460000000  0.4628360000000 1.0
C      1  0.5509800000000  0.4556590000000  0.4642830000000 1.0
C      1  0.4864460000000  0.4148200000000  0.5334950000000 1.0
C      1  0.5107850000000  0.5887700000000  0.5227580000000 1.0
C      1  0.4861350000000  0.4065620000000  0.4734050000000 1.0
C      1  0.5080710000000  0.5907690000000  0.4601100000000 1.0
C      1  0.5106900000000  0.4086980000000  0.5297680000000 1.0
C      1  0.4871500000000  0.5840250000000  0.5302650000000 1.0
C      1  0.5111220000000  0.4083090000000  0.4704990000000 1.0
C      1  0.4834790000000  0.5903920000000  0.4654220000000 1.0
C      1  0.4726260000000  0.5613380000000  0.5153590000000 1.0
C      1  0.5267890000000  0.4296140000000  0.5148390000000 1.0
C      1  0.4728640000000  0.5690960000000  0.4834610000000 1.0
C      1  0.5251910000000  0.4318060000000  0.4834110000000 1.0
C      1  0.5236970000000  0.5671300000000  0.5057690000000 1.0
C      1  0.4761270000000  0.4379730000000  0.5169650000000 1.0
C      1  0.5252340000000  0.5702540000000  0.4733500000000 1.0
C      1  0.4715540000000  0.4295590000000  0.4865320000000 1.0
C      1  0.4424140000000  0.4874940000000  0.4534920000000 1.0
C      1  0.5573190000000  0.5145380000000  0.4556580000000 1.0
C      1  0.4417310000000  0.4897410000000  0.5445920000000 1.0
C      1  0.5596070000000  0.5111750000000  0.5345700000000 1.0
C      1  0.5555120000000  0.4868520000000  0.4642100000000 1.0
C      1  0.4428680000000  0.5141950000000  0.4645130000000 1.0
C      1  0.5648690000000  0.4833490000000  0.5409460000000 1.0
C      1  0.4389590000000  0.5188910000000  0.5513900000000 1.0
C      1  0.5180850000000  0.5380450000000  0.5511510000000 1.0
C      1  0.4887840000000  0.4607510000000  0.5522400000000 1.0
C      1  0.5162550000000  0.5451100000000  0.4425670000000 1.0
C      1  0.4876630000000  0.4638980000000  0.4461180000000 1.0
C      1  0.4844260000000  0.5350380000000  0.5563510000000 1.0
C      1  0.5223580000000  0.4586770000000  0.5588740000000 1.0
C      1  0.4827190000000  0.5443450000000  0.4502010000000 1.0
C      1  0.5239500000000  0.4676090000000  0.4466370000000 1.0
C      1  0.5521840000000  0.5542540000000  0.5145140000000 1.0
C      1  0.4490810000000  0.4548580000000  0.5075030000000 1.0
C      1  0.5542980000000  0.5565890000000  0.4827710000000 1.0
C      1  0.4462190000000  0.4451500000000  0.4749150000000 1.0
C      1  0.4409060000000  0.5587480000000  0.5215810000000 1.0
C      1  0.5560680000000  0.4399200000000  0.5231190000000 1.0
C      1  0.4422030000000  0.5586950000000  0.4897790000000 1.0
C      1  0.5565360000000  0.4406020000000  0.4908920000000 1.0
C      1  0.4880160000000  0.4970350000000  0.5151370000000 1.0
END
