TITL C-2782240-8521-1275 -0.00212433639616551 125000 -780.59165126878 0 0 138 (C1) n - 1
REM
REM in /home/nfs/bkarasulu/CARBON/AIRSS/Generating-Clusters/REBO/Higher-Symm/SD-CG/HFTN-CG
REM
REM
REM
REM
REM
REM ./C.cell (12c818d87b63d06a65506943cc24bca4)
REM
REM compiler GCC version 9.2.1 20190827 (Red Hat 9.2.1-1)
REM options -cpp -mtune=generic -march=x86-64 -g -O0 -fpre-include=/usr/include/finclude/math-vector-fortran.h
REM seed 19882604 635308284 867158362 -684381213 806663952 612694993 -39705606 -975192676 -1678253754 670655586 663361316 -386790512 -646759299 627728094 1801501229 -368461016 314557259 2024964558 -465891508 1675330570 -1995197227 -2054002688 -1656474716 560346791 -1213802170 411880641 810277875 738261112 -66274929 169932749 176895031 524779132 -155144284
REM
CELL 1.54180   50.00000   50.00000   50.00000   90.00000   90.00000   90.00000
LATT -1
SFAC C  
C      1  0.4127520000000  0.5617460000000  0.4853280000000 1.0
C      1  0.4152580000000  0.4372000000000  0.5132580000000 1.0
C      1  0.4148510000000  0.4349210000000  0.4855340000000 1.0
C      1  0.4139620000000  0.5620600000000  0.5132920000000 1.0
C      1  0.5039170000000  0.4826790000000  0.5568090000000 1.0
C      1  0.4986600000000  0.5181010000000  0.4454540000000 1.0
C      1  0.4993550000000  0.5133590000000  0.5511880000000 1.0
C      1  0.4974540000000  0.4864530000000  0.4507450000000 1.0
C      1  0.5670180000000  0.5109860000000  0.5731380000000 1.0
C      1  0.5668200000000  0.4885970000000  0.4259510000000 1.0
C      1  0.5580850000000  0.4817710000000  0.5795540000000 1.0
C      1  0.5587540000000  0.5182640000000  0.4195650000000 1.0
C      1  0.4832660000000  0.5936240000000  0.4710890000000 1.0
C      1  0.4797930000000  0.4128610000000  0.5288360000000 1.0
C      1  0.4845760000000  0.4051460000000  0.4655390000000 1.0
C      1  0.4854080000000  0.5945470000000  0.5337100000000 1.0
C      1  0.5099540000000  0.5320330000000  0.5121110000000 1.0
C      1  0.5104520000000  0.4720110000000  0.4887910000000 1.0
C      1  0.5167710000000  0.4686800000000  0.5220990000000 1.0
C      1  0.5142940000000  0.5340530000000  0.4782440000000 1.0
C      1  0.5451660000000  0.4536590000000  0.4511400000000 1.0
C      1  0.5463720000000  0.5475840000000  0.5492190000000 1.0
C      1  0.5474780000000  0.5613650000000  0.4447370000000 1.0
C      1  0.5457750000000  0.4387160000000  0.5553650000000 1.0
C      1  0.4381160000000  0.4448930000000  0.4393320000000 1.0
C      1  0.4347880000000  0.5531910000000  0.5589680000000 1.0
C      1  0.4407070000000  0.5551680000000  0.4421080000000 1.0
C      1  0.4353040000000  0.4454990000000  0.5605780000000 1.0
C      1  0.4980970000000  0.5337640000000  0.4105230000000 1.0
C      1  0.4964010000000  0.4687000000000  0.5916660000000 1.0
C      1  0.4956290000000  0.4705450000000  0.4145450000000 1.0
C      1  0.4965950000000  0.5317350000000  0.5860600000000 1.0
C      1  0.4657130000000  0.4777710000000  0.4488070000000 1.0
C      1  0.4696450000000  0.5195760000000  0.5595760000000 1.0
C      1  0.4668110000000  0.5090010000000  0.4384170000000 1.0
C      1  0.4716520000000  0.4779510000000  0.5632880000000 1.0
C      1  0.4308350000000  0.4613330000000  0.4695000000000 1.0
C      1  0.4312780000000  0.5357510000000  0.5288650000000 1.0
C      1  0.4286940000000  0.5355610000000  0.4691720000000 1.0
C      1  0.4315610000000  0.4632620000000  0.5302640000000 1.0
C      1  0.5800630000000  0.4791160000000  0.5536060000000 1.0
C      1  0.5808390000000  0.5200160000000  0.4454150000000 1.0
C      1  0.5860700000000  0.5120960000000  0.5462730000000 1.0
C      1  0.5858870000000  0.4869250000000  0.4530630000000 1.0
C      1  0.4852880000000  0.5214410000000  0.4826840000000 1.0
C      1  0.4885610000000  0.4833130000000  0.5201660000000 1.0
C      1  0.4830300000000  0.4878740000000  0.4874410000000 1.0
C      1  0.4823400000000  0.5160060000000  0.5155750000000 1.0
C      1  0.5445550000000  0.5287280000000  0.5746190000000 1.0
C      1  0.5436190000000  0.4716800000000  0.4251490000000 1.0
C      1  0.5379160000000  0.4563940000000  0.5776680000000 1.0
C      1  0.5394020000000  0.5444300000000  0.4220280000000 1.0
C      1  0.4536380000000  0.5425790000000  0.4213240000000 1.0
C      1  0.4439590000000  0.4584950000000  0.5840020000000 1.0
C      1  0.4480120000000  0.4615760000000  0.4171030000000 1.0
C      1  0.4434690000000  0.5398620000000  0.5815450000000 1.0
C      1  0.4538770000000  0.5123910000000  0.4756600000000 1.0
C      1  0.4557290000000  0.4841810000000  0.5161380000000 1.0
C      1  0.4508020000000  0.4827580000000  0.4851460000000 1.0
C      1  0.4501710000000  0.5151860000000  0.5085480000000 1.0
C      1  0.5496010000000  0.4253680000000  0.4885590000000 1.0
C      1  0.5510250000000  0.5750140000000  0.5107350000000 1.0
C      1  0.5542470000000  0.5878890000000  0.4810980000000 1.0
C      1  0.5512660000000  0.4121210000000  0.5179420000000 1.0
C      1  0.5771020000000  0.5627850000000  0.4833710000000 1.0
C      1  0.5757180000000  0.4358890000000  0.5165170000000 1.0
C      1  0.5777840000000  0.4432160000000  0.4865240000000 1.0
C      1  0.5781330000000  0.5558000000000  0.5131710000000 1.0
C      1  0.4094620000000  0.5127840000000  0.4859970000000 1.0
C      1  0.4102940000000  0.4848890000000  0.5145470000000 1.0
C      1  0.4079820000000  0.4817780000000  0.4838500000000 1.0
C      1  0.4077310000000  0.5154990000000  0.5169250000000 1.0
C      1  0.5899830000000  0.5146890000000  0.5124640000000 1.0
C      1  0.5916290000000  0.4843270000000  0.4867410000000 1.0
C      1  0.5893960000000  0.4816860000000  0.5208110000000 1.0
C      1  0.5887970000000  0.5173010000000  0.4784340000000 1.0
C      1  0.5281970000000  0.5100220000000  0.4604670000000 1.0
C      1  0.5313560000000  0.4926440000000  0.5393450000000 1.0
C      1  0.5265730000000  0.4768380000000  0.4609230000000 1.0
C      1  0.5265570000000  0.5255050000000  0.5390650000000 1.0
C      1  0.4568110000000  0.5539040000000  0.5149940000000 1.0
C      1  0.4547960000000  0.4431050000000  0.4866410000000 1.0
C      1  0.4577450000000  0.4446700000000  0.5179540000000 1.0
C      1  0.4558230000000  0.5505370000000  0.4845430000000 1.0
C      1  0.4963410000000  0.5506840000000  0.4401000000000 1.0
C      1  0.4990260000000  0.4495550000000  0.5636230000000 1.0
C      1  0.4944270000000  0.4527870000000  0.4436030000000 1.0
C      1  0.4964100000000  0.5475870000000  0.5558280000000 1.0
C      1  0.4562260000000  0.4098490000000  0.4797230000000 1.0
C      1  0.4570910000000  0.5876060000000  0.5202080000000 1.0
C      1  0.4565620000000  0.5850880000000  0.4861810000000 1.0
C      1  0.4516810000000  0.4120600000000  0.5134600000000 1.0
C      1  0.4305470000000  0.5748870000000  0.5362410000000 1.0
C      1  0.4318100000000  0.4224400000000  0.4614620000000 1.0
C      1  0.4300990000000  0.4240330000000  0.5374720000000 1.0
C      1  0.4319140000000  0.5751450000000  0.4648430000000 1.0
C      1  0.5016550000000  0.4175860000000  0.5545420000000 1.0
C      1  0.5036850000000  0.5827100000000  0.4467760000000 1.0
C      1  0.5072240000000  0.5783440000000  0.5541640000000 1.0
C      1  0.5057530000000  0.4221540000000  0.4450480000000 1.0
C      1  0.5254900000000  0.4855460000000  0.5903300000000 1.0
C      1  0.5257400000000  0.5154790000000  0.4103080000000 1.0
C      1  0.5217930000000  0.5170050000000  0.5875030000000 1.0
C      1  0.5207790000000  0.4842290000000  0.4131440000000 1.0
C      1  0.5357600000000  0.5758650000000  0.5394800000000 1.0
C      1  0.5337690000000  0.4259910000000  0.4603140000000 1.0
C      1  0.5313070000000  0.4102470000000  0.5443600000000 1.0
C      1  0.5338020000000  0.5907270000000  0.4549420000000 1.0
C      1  0.5594690000000  0.4811560000000  0.4945700000000 1.0
C      1  0.5583920000000  0.5200600000000  0.5037800000000 1.0
C      1  0.5560660000000  0.5071080000000  0.4737320000000 1.0
C      1  0.5577040000000  0.4944250000000  0.5244420000000 1.0
C      1  0.5722000000000  0.4504570000000  0.5408220000000 1.0
C      1  0.5735450000000  0.5486240000000  0.4588370000000 1.0
C      1  0.5748310000000  0.5416050000000  0.5375210000000 1.0
C      1  0.5739080000000  0.4582390000000  0.4625120000000 1.0
C      1  0.5144050000000  0.5895080000000  0.5167320000000 1.0
C      1  0.5120140000000  0.4133200000000  0.4832510000000 1.0
C      1  0.5114370000000  0.4087980000000  0.5169120000000 1.0
C      1  0.5150320000000  0.5948450000000  0.4830870000000 1.0
C      1  0.4820380000000  0.5590280000000  0.4698080000000 1.0
C      1  0.4855100000000  0.4465450000000  0.5333530000000 1.0
C      1  0.4832930000000  0.4389700000000  0.4727850000000 1.0
C      1  0.4859530000000  0.5606740000000  0.5260750000000 1.0
C      1  0.5372950000000  0.5579710000000  0.4770710000000 1.0
C      1  0.5369300000000  0.4431880000000  0.5227880000000 1.0
C      1  0.5412100000000  0.4580010000000  0.4928250000000 1.0
C      1  0.5408410000000  0.5431650000000  0.5062850000000 1.0
C      1  0.4656210000000  0.4827670000000  0.5951010000000 1.0
C      1  0.4696620000000  0.5159470000000  0.4068850000000 1.0
C      1  0.4665570000000  0.5167840000000  0.5918990000000 1.0
C      1  0.4692070000000  0.4817990000000  0.4092100000000 1.0
C      1  0.4438910000000  0.4846460000000  0.5539060000000 1.0
C      1  0.4332840000000  0.5152710000000  0.4419210000000 1.0
C      1  0.4446520000000  0.5118920000000  0.5480410000000 1.0
C      1  0.4352960000000  0.4858840000000  0.4460590000000 1.0
C      1  0.4983530000000  0.4373110000000  0.5033150000000 1.0
C      1  0.5000110000000  0.5669870000000  0.4956860000000 1.0
END
