TITL C-2782234-8014-1070 -0.000354161669006426 125000 -697.860059937916 0 0 120 (C1) n - 1
REM
REM in /home/nfs/bkarasulu/CARBON/AIRSS/Generating-Clusters/REBO/Higher-Symm/SD-CG/HFTN-CG
REM
REM
REM
REM
REM
REM ./C.cell (12c818d87b63d06a65506943cc24bca4)
REM
REM compiler GCC version 9.2.1 20190827 (Red Hat 9.2.1-1)
REM options -cpp -mtune=generic -march=x86-64 -g -O0 -fpre-include=/usr/include/finclude/math-vector-fortran.h
REM seed 1464630088 1354646933 1097459989 -599658716 -947682450 -1374858869 1449585354 257542954 174519019 -247269578 -1307282095 -605480251 -1741550785 1698343515 767318673 -1280377188 1768810490 2114201639 -886148522 1037876742 336803304 1465909109 1551130688 1287744739 1981758831 -452744523 636620914 -1543656700 -1322981931 -1154360891 1016033896 -1522625390 -1421201072
REM
CELL 1.54180   50.00000   50.00000   50.00000   90.00000   90.00000   90.00000
LATT -1
SFAC C  
C      1  0.4615510000000  0.5608010000000  0.4379910000000 1.0
C      1  0.5462790000000  0.5573900000000  0.4446060000000 1.0
C      1  0.5668980000000  0.5592340000000  0.5249200000000 1.0
C      1  0.4939480000000  0.5601270000000  0.5719310000000 1.0
C      1  0.4313850000000  0.5628590000000  0.5208160000000 1.0
C      1  0.5206120000000  0.4267930000000  0.5215080000000 1.0
C      1  0.4866070000000  0.4258500000000  0.5210710000000 1.0
C      1  0.4774730000000  0.4241830000000  0.4881920000000 1.0
C      1  0.5043930000000  0.4236660000000  0.4688540000000 1.0
C      1  0.5316330000000  0.4257930000000  0.4891070000000 1.0
C      1  0.5450850000000  0.4970120000000  0.4696380000000 1.0
C      1  0.5407290000000  0.4997690000000  0.5358680000000 1.0
C      1  0.4782060000000  0.5011460000000  0.5614600000000 1.0
C      1  0.4347150000000  0.4999980000000  0.4992990000000 1.0
C      1  0.4758020000000  0.4994770000000  0.4395860000000 1.0
C      1  0.4805170000000  0.5685190000000  0.5167740000000 1.0
C      1  0.4776530000000  0.5686160000000  0.4853630000000 1.0
C      1  0.5066320000000  0.5672630000000  0.4730950000000 1.0
C      1  0.5273480000000  0.5666210000000  0.4971830000000 1.0
C      1  0.5112200000000  0.5676430000000  0.5246220000000 1.0
C      1  0.5717090000000  0.5339820000000  0.5054590000000 1.0
C      1  0.5155380000000  0.5356030000000  0.5718910000000 1.0
C      1  0.4397480000000  0.5353020000000  0.5390870000000 1.0
C      1  0.4413350000000  0.5388110000000  0.4523090000000 1.0
C      1  0.5273070000000  0.5343570000000  0.4321780000000 1.0
C      1  0.5152980000000  0.5435660000000  0.5412650000000 1.0
C      1  0.4664650000000  0.5448180000000  0.5262830000000 1.0
C      1  0.4624210000000  0.5458370000000  0.4750150000000 1.0
C      1  0.5106530000000  0.5431840000000  0.4567180000000 1.0
C      1  0.5430630000000  0.5416360000000  0.4965400000000 1.0
C      1  0.4583120000000  0.4957500000000  0.4759130000000 1.0
C      1  0.4908500000000  0.4884990000000  0.4680740000000 1.0
C      1  0.5186160000000  0.4858620000000  0.4872260000000 1.0
C      1  0.5123500000000  0.4887700000000  0.5205760000000 1.0
C      1  0.4801840000000  0.4950730000000  0.5310170000000 1.0
C      1  0.4946700000000  0.4778730000000  0.4256460000000 1.0
C      1  0.5686960000000  0.4770860000000  0.4768970000000 1.0
C      1  0.5463350000000  0.4826560000000  0.5621980000000 1.0
C      1  0.4593980000000  0.4779160000000  0.5717340000000 1.0
C      1  0.4231840000000  0.4727280000000  0.4828550000000 1.0
C      1  0.4625870000000  0.5184290000000  0.5843940000000 1.0
C      1  0.4124320000000  0.5236280000000  0.4940270000000 1.0
C      1  0.4792320000000  0.5165330000000  0.4118540000000 1.0
C      1  0.5725030000000  0.5122820000000  0.4568460000000 1.0
C      1  0.5622270000000  0.5178070000000  0.5554090000000 1.0
C      1  0.4318140000000  0.4764930000000  0.4529730000000 1.0
C      1  0.5249260000000  0.4773090000000  0.4251230000000 1.0
C      1  0.5802250000000  0.4777110000000  0.5063580000000 1.0
C      1  0.5218670000000  0.4767280000000  0.5779770000000 1.0
C      1  0.4389020000000  0.4773240000000  0.5480720000000 1.0
C      1  0.4773590000000  0.5490240000000  0.4183880000000 1.0
C      1  0.5696010000000  0.5456020000000  0.4542230000000 1.0
C      1  0.5639670000000  0.5503290000000  0.5510210000000 1.0
C      1  0.4688600000000  0.5510280000000  0.5803420000000 1.0
C      1  0.4166100000000  0.5555230000000  0.4984880000000 1.0
C      1  0.4369190000000  0.4789580000000  0.4212830000000 1.0
C      1  0.5547870000000  0.4865380000000  0.4152890000000 1.0
C      1  0.5920230000000  0.4786730000000  0.5356670000000 1.0
C      1  0.5020790000000  0.4856260000000  0.6030240000000 1.0
C      1  0.4114810000000  0.4866440000000  0.5360140000000 1.0
C      1  0.5053550000000  0.5066310000000  0.5765240000000 1.0
C      1  0.4467400000000  0.5036780000000  0.5279670000000 1.0
C      1  0.4454650000000  0.5073500000000  0.4479330000000 1.0
C      1  0.5379060000000  0.5056170000000  0.4379150000000 1.0
C      1  0.5675000000000  0.5052820000000  0.5178780000000 1.0
C      1  0.5609350000000  0.4389450000000  0.5487450000000 1.0
C      1  0.4768100000000  0.4493490000000  0.5694420000000 1.0
C      1  0.4336350000000  0.4455100000000  0.4917280000000 1.0
C      1  0.4833680000000  0.4492950000000  0.4264700000000 1.0
C      1  0.5689470000000  0.4541320000000  0.4570490000000 1.0
C      1  0.4469190000000  0.4298500000000  0.4279280000000 1.0
C      1  0.5518170000000  0.4325090000000  0.4281390000000 1.0
C      1  0.5749020000000  0.4300030000000  0.5260540000000 1.0
C      1  0.5056660000000  0.4296050000000  0.5882170000000 1.0
C      1  0.4292300000000  0.4376500000000  0.5177320000000 1.0
C      1  0.5018770000000  0.5999490000000  0.5286290000000 1.0
C      1  0.4742700000000  0.6007960000000  0.5086310000000 1.0
C      1  0.4842220000000  0.6001190000000  0.4759740000000 1.0
C      1  0.5182840000000  0.5987970000000  0.4754250000000 1.0
C      1  0.5288360000000  0.5991100000000  0.5077700000000 1.0
C      1  0.5569270000000  0.5836780000000  0.5177560000000 1.0
C      1  0.4976460000000  0.5838570000000  0.5583580000000 1.0
C      1  0.4452430000000  0.5867530000000  0.5195910000000 1.0
C      1  0.4682880000000  0.5846750000000  0.4501350000000 1.0
C      1  0.5376610000000  0.5820930000000  0.4529890000000 1.0
C      1  0.5833040000000  0.4971540000000  0.5610100000000 1.0
C      1  0.4709680000000  0.4990120000000  0.6064940000000 1.0
C      1  0.3978090000000  0.5065750000000  0.5147790000000 1.0
C      1  0.4594400000000  0.4940390000000  0.4035640000000 1.0
C      1  0.5813710000000  0.4969400000000  0.4326740000000 1.0
C      1  0.5255600000000  0.3928690000000  0.4827580000000 1.0
C      1  0.5268930000000  0.3944600000000  0.5133810000000 1.0
C      1  0.4980770000000  0.3939980000000  0.5244520000000 1.0
C      1  0.4787590000000  0.3925590000000  0.5004940000000 1.0
C      1  0.4957770000000  0.3913960000000  0.4746710000000 1.0
C      1  0.4412330000000  0.5384840000000  0.5689070000000 1.0
C      1  0.4159440000000  0.5440670000000  0.4681300000000 1.0
C      1  0.5062360000000  0.5362660000000  0.4103800000000 1.0
C      1  0.5861340000000  0.5334550000000  0.4789980000000 1.0
C      1  0.5456850000000  0.5388800000000  0.5750530000000 1.0
C      1  0.4794000000000  0.5219530000000  0.5140590000000 1.0
C      1  0.4753050000000  0.5208500000000  0.4852190000000 1.0
C      1  0.5038550000000  0.5196810000000  0.4728830000000 1.0
C      1  0.5248030000000  0.5181790000000  0.4966720000000 1.0
C      1  0.5092990000000  0.5211470000000  0.5236680000000 1.0
C      1  0.4022170000000  0.4767450000000  0.5065140000000 1.0
C      1  0.4616320000000  0.4622140000000  0.4098720000000 1.0
C      1  0.5750900000000  0.4648570000000  0.4314320000000 1.0
C      1  0.5720020000000  0.4648550000000  0.5592640000000 1.0
C      1  0.4751450000000  0.4659950000000  0.5990540000000 1.0
C      1  0.5044150000000  0.4362370000000  0.4417810000000 1.0
C      1  0.5580580000000  0.4388710000000  0.4810730000000 1.0
C      1  0.5327210000000  0.4369610000000  0.5477990000000 1.0
C      1  0.4706900000000  0.4385460000000  0.5438940000000 1.0
C      1  0.4538250000000  0.4367790000000  0.4750900000000 1.0
C      1  0.5740090000000  0.4461600000000  0.5031170000000 1.0
C      1  0.5179020000000  0.4469100000000  0.5702960000000 1.0
C      1  0.4450850000000  0.4485770000000  0.5374900000000 1.0
C      1  0.4484430000000  0.4474290000000  0.4492530000000 1.0
C      1  0.5292460000000  0.4474070000000  0.4333080000000 1.0
END
