TITL C-2782227-3064-428 -0.000495097996431163 125000 -899.304629986841 0 0 151 (C1) n - 1
REM
REM in /home/nfs/bkarasulu/CARBON/AIRSS/Generating-Clusters/REBO/Higher-Symm/SD-CG/HFTN-CG
REM
REM
REM
REM
REM
REM ./C.cell (12c818d87b63d06a65506943cc24bca4)
REM
REM compiler GCC version 9.2.1 20190827 (Red Hat 9.2.1-1)
REM options -cpp -mtune=generic -march=x86-64 -g -O0 -fpre-include=/usr/include/finclude/math-vector-fortran.h
REM seed 765077883 1253299723 291743640 1661224088 658112748 1402141940 -1772500502 -560732370 423059363 -1540940097 -861851724 -774912111 183822473 -259561226 1962180188 1186643179 -862362378 -1580168430 266131694 1525775753 1970758777 562559691 1403070421 -767031206 732314920 -226539601 1109206963 -2124392546 -1000856986 531243651 126179436 1661365160 1895907932
REM
CELL 1.54180   50.00000   50.00000   50.00000   90.00000   90.00000   90.00000
LATT -1
SFAC C  
C      1  0.4756450000000  0.4171250000000  0.4876360000000 1.0
C      1  0.5238790000000  0.5870830000000  0.4890200000000 1.0
C      1  0.4627900000000  0.5860870000000  0.5105510000000 1.0
C      1  0.5290880000000  0.4260760000000  0.5164920000000 1.0
C      1  0.4161270000000  0.4933840000000  0.5510910000000 1.0
C      1  0.5862030000000  0.5052460000000  0.5528020000000 1.0
C      1  0.4171390000000  0.5057830000000  0.4528110000000 1.0
C      1  0.5876160000000  0.4920310000000  0.4389200000000 1.0
C      1  0.5352090000000  0.5885420000000  0.5616260000000 1.0
C      1  0.4654500000000  0.4090690000000  0.5613060000000 1.0
C      1  0.5367120000000  0.4068360000000  0.4439840000000 1.0
C      1  0.4699170000000  0.5950940000000  0.4405330000000 1.0
C      1  0.4941940000000  0.5822330000000  0.4442830000000 1.0
C      1  0.5089950000000  0.4130440000000  0.4448310000000 1.0
C      1  0.4918490000000  0.4180810000000  0.5627010000000 1.0
C      1  0.5104480000000  0.5735570000000  0.5596720000000 1.0
C      1  0.4484730000000  0.5322790000000  0.5078370000000 1.0
C      1  0.5536770000000  0.4926630000000  0.4961780000000 1.0
C      1  0.4481580000000  0.4695560000000  0.4874910000000 1.0
C      1  0.5513670000000  0.5266620000000  0.4970950000000 1.0
C      1  0.4748340000000  0.4581330000000  0.5735680000000 1.0
C      1  0.5242750000000  0.5372470000000  0.5688580000000 1.0
C      1  0.4807940000000  0.5407230000000  0.4373710000000 1.0
C      1  0.5153430000000  0.4521100000000  0.4397690000000 1.0
C      1  0.4988140000000  0.5763900000000  0.4756730000000 1.0
C      1  0.5025130000000  0.4214000000000  0.4736600000000 1.0
C      1  0.5026620000000  0.4201550000000  0.5331100000000 1.0
C      1  0.5050060000000  0.5702520000000  0.5314370000000 1.0
C      1  0.4706890000000  0.4475430000000  0.4215050000000 1.0
C      1  0.5317250000000  0.5515850000000  0.4388890000000 1.0
C      1  0.4752520000000  0.5550150000000  0.5632760000000 1.0
C      1  0.5251960000000  0.4398700000000  0.5634910000000 1.0
C      1  0.5518640000000  0.5223130000000  0.4106630000000 1.0
C      1  0.4475940000000  0.4797310000000  0.4191430000000 1.0
C      1  0.5548300000000  0.4765980000000  0.5888920000000 1.0
C      1  0.4503140000000  0.5180830000000  0.5872750000000 1.0
C      1  0.5033460000000  0.4509790000000  0.4904470000000 1.0
C      1  0.4977430000000  0.5453070000000  0.4824970000000 1.0
C      1  0.5003050000000  0.5425480000000  0.5164700000000 1.0
C      1  0.4915280000000  0.4484150000000  0.5183130000000 1.0
C      1  0.4983700000000  0.4314150000000  0.4219550000000 1.0
C      1  0.5043140000000  0.5591500000000  0.4266870000000 1.0
C      1  0.4998960000000  0.5532470000000  0.5824900000000 1.0
C      1  0.5004530000000  0.4427770000000  0.5834320000000 1.0
C      1  0.4521270000000  0.5186040000000  0.4705240000000 1.0
C      1  0.5420900000000  0.4787450000000  0.4668600000000 1.0
C      1  0.4524950000000  0.4816540000000  0.5304250000000 1.0
C      1  0.5437340000000  0.5146190000000  0.5339990000000 1.0
C      1  0.5255240000000  0.5184060000000  0.4005980000000 1.0
C      1  0.4765490000000  0.4765800000000  0.4044230000000 1.0
C      1  0.5282060000000  0.4842080000000  0.6003820000000 1.0
C      1  0.4751810000000  0.5111190000000  0.6007900000000 1.0
C      1  0.5660430000000  0.5019960000000  0.5726490000000 1.0
C      1  0.4430830000000  0.4979150000000  0.5655650000000 1.0
C      1  0.5636150000000  0.4989420000000  0.4256710000000 1.0
C      1  0.4416990000000  0.5075880000000  0.4335450000000 1.0
C      1  0.5140500000000  0.5309540000000  0.4592360000000 1.0
C      1  0.4864280000000  0.4696580000000  0.4714970000000 1.0
C      1  0.5034660000000  0.4579260000000  0.5458280000000 1.0
C      1  0.4831340000000  0.5320070000000  0.5407780000000 1.0
C      1  0.5921000000000  0.4780630000000  0.5437680000000 1.0
C      1  0.4078480000000  0.5217710000000  0.5540610000000 1.0
C      1  0.5833730000000  0.5346520000000  0.4518760000000 1.0
C      1  0.4075260000000  0.4788410000000  0.4516970000000 1.0
C      1  0.5395780000000  0.4909180000000  0.5550400000000 1.0
C      1  0.4478650000000  0.5143100000000  0.5360140000000 1.0
C      1  0.5392890000000  0.4996740000000  0.4463940000000 1.0
C      1  0.4521010000000  0.4874410000000  0.4596410000000 1.0
C      1  0.4666820000000  0.5322350000000  0.4004770000000 1.0
C      1  0.5372030000000  0.4643170000000  0.4058060000000 1.0
C      1  0.4525150000000  0.4646660000000  0.5957150000000 1.0
C      1  0.5503110000000  0.5290220000000  0.5979940000000 1.0
C      1  0.5683390000000  0.5463710000000  0.4238710000000 1.0
C      1  0.4265150000000  0.4633250000000  0.4361290000000 1.0
C      1  0.5724050000000  0.4640030000000  0.5624910000000 1.0
C      1  0.4299880000000  0.5354190000000  0.5681860000000 1.0
C      1  0.5603390000000  0.5592980000000  0.5006300000000 1.0
C      1  0.4365650000000  0.4409560000000  0.5023780000000 1.0
C      1  0.5608070000000  0.4593110000000  0.5013870000000 1.0
C      1  0.4352140000000  0.5600080000000  0.4928750000000 1.0
C      1  0.5453050000000  0.5423820000000  0.5500290000000 1.0
C      1  0.4524940000000  0.4593910000000  0.5508180000000 1.0
C      1  0.5409990000000  0.4517690000000  0.4540720000000 1.0
C      1  0.4590160000000  0.5436580000000  0.4538980000000 1.0
C      1  0.5292330000000  0.4173050000000  0.4898380000000 1.0
C      1  0.4729990000000  0.5906260000000  0.4863610000000 1.0
C      1  0.5220270000000  0.5890960000000  0.5170140000000 1.0
C      1  0.4762970000000  0.4115740000000  0.5153640000000 1.0
C      1  0.5590040000000  0.4561030000000  0.4186910000000 1.0
C      1  0.4445930000000  0.5332100000000  0.4183290000000 1.0
C      1  0.5682320000000  0.5427910000000  0.5826250000000 1.0
C      1  0.4274040000000  0.4537360000000  0.5859830000000 1.0
C      1  0.4462210000000  0.4260610000000  0.4250240000000 1.0
C      1  0.5541820000000  0.5733340000000  0.4335310000000 1.0
C      1  0.4530040000000  0.5774650000000  0.5706220000000 1.0
C      1  0.5370530000000  0.4121240000000  0.5640850000000 1.0
C      1  0.4356510000000  0.5841090000000  0.5533220000000 1.0
C      1  0.5470800000000  0.3886620000000  0.5645880000000 1.0
C      1  0.4391200000000  0.4185400000000  0.4481390000000 1.0
C      1  0.5603520000000  0.5869770000000  0.4562480000000 1.0
C      1  0.4850560000000  0.4812290000000  0.5535820000000 1.0
C      1  0.5171670000000  0.5105890000000  0.5641760000000 1.0
C      1  0.4852770000000  0.5150530000000  0.4314250000000 1.0
C      1  0.4988190000000  0.4739230000000  0.4480220000000 1.0
C      1  0.4172200000000  0.4749820000000  0.4979000000000 1.0
C      1  0.5846340000000  0.5278810000000  0.4996860000000 1.0
C      1  0.4147300000000  0.5286070000000  0.5052820000000 1.0
C      1  0.5872270000000  0.4878620000000  0.4921410000000 1.0
C      1  0.5514360000000  0.4223520000000  0.4680580000000 1.0
C      1  0.4541600000000  0.5936500000000  0.4646060000000 1.0
C      1  0.5464080000000  0.5908220000000  0.5344340000000 1.0
C      1  0.4544960000000  0.4112030000000  0.5345760000000 1.0
C      1  0.3986470000000  0.4702880000000  0.4772880000000 1.0
C      1  0.5962140000000  0.5317580000000  0.4755230000000 1.0
C      1  0.3996710000000  0.5324970000000  0.5286590000000 1.0
C      1  0.5984490000000  0.4767770000000  0.5159630000000 1.0
C      1  0.5215600000000  0.5174520000000  0.5106230000000 1.0
C      1  0.4738150000000  0.4749880000000  0.5088150000000 1.0
C      1  0.5203970000000  0.4803850000000  0.4921300000000 1.0
C      1  0.4755760000000  0.5230000000000  0.4920920000000 1.0
C      1  0.5952710000000  0.4893180000000  0.4651120000000 1.0
C      1  0.4207370000000  0.5196730000000  0.4785740000000 1.0
C      1  0.5759260000000  0.5254400000000  0.5307710000000 1.0
C      1  0.4204940000000  0.4830690000000  0.5238750000000 1.0
C      1  0.4341070000000  0.5561820000000  0.4393800000000 1.0
C      1  0.5725960000000  0.4468110000000  0.4447030000000 1.0
C      1  0.4260400000000  0.4456570000000  0.5565710000000 1.0
C      1  0.5760980000000  0.5524690000000  0.5509800000000 1.0
C      1  0.4483540000000  0.5472210000000  0.5448780000000 1.0
C      1  0.5432710000000  0.4602890000000  0.5489340000000 1.0
C      1  0.4554540000000  0.4548560000000  0.4510780000000 1.0
C      1  0.5510150000000  0.5277550000000  0.4502800000000 1.0
C      1  0.4341940000000  0.4312040000000  0.5291980000000 1.0
C      1  0.5653680000000  0.5705580000000  0.5266140000000 1.0
C      1  0.4343660000000  0.5722270000000  0.4667710000000 1.0
C      1  0.5716440000000  0.4457600000000  0.4786930000000 1.0
C      1  0.5457130000000  0.4477880000000  0.5217940000000 1.0
C      1  0.4393270000000  0.5700660000000  0.5245870000000 1.0
C      1  0.5499010000000  0.5783360000000  0.4811570000000 1.0
C      1  0.4516480000000  0.4316110000000  0.4753300000000 1.0
C      1  0.5000270000000  0.5259350000000  0.5993940000000 1.0
C      1  0.5031580000000  0.4697370000000  0.6005320000000 1.0
C      1  0.5042130000000  0.4568460000000  0.4019600000000 1.0
C      1  0.4997570000000  0.5382740000000  0.4023120000000 1.0
C      1  0.4773010000000  0.4823070000000  0.6051670000000 1.0
C      1  0.5261470000000  0.5137180000000  0.6029880000000 1.0
C      1  0.4879720000000  0.5066680000000  0.3934030000000 1.0
C      1  0.5155070000000  0.4882630000000  0.3959860000000 1.0
C      1  0.4921900000000  0.5074160000000  0.5528420000000 1.0
C      1  0.5090750000000  0.5010370000000  0.4438000000000 1.0
C      1  0.4942830000000  0.4989580000000  0.5016090000000 1.0
END
