TITL C-2782238-9940-582 0.00182571580103593 125000 -1078.79449739332 0 0 181 (C1) n - 1
REM
REM in /home/nfs/bkarasulu/CARBON/AIRSS/Generating-Clusters/REBO/Higher-Symm/SD-CG/HFTN-CG
REM
REM
REM
REM
REM
REM ./C.cell (12c818d87b63d06a65506943cc24bca4)
REM
REM compiler GCC version 9.2.1 20190827 (Red Hat 9.2.1-1)
REM options -cpp -mtune=generic -march=x86-64 -g -O0 -fpre-include=/usr/include/finclude/math-vector-fortran.h
REM seed 1458487715 -2017342284 -506460015 -2039143091 505531957 1522536182 1932926230 -985199718 2105667532 2085711377 -1982844072 1656413503 1606063534 -893147178 -1409956078 -931630945 1866792424 -1499526698 910172675 1767507731 1074349531 -1610724367 866705869 -770010225 -67132667 644883068 -1395660276 444707481 -2031582322 1805789957 -561652018 1740406920 -226743172
REM
CELL 1.54180   50.00000   50.00000   50.00000   90.00000   90.00000   90.00000
LATT -1
SFAC C  
C      1  0.5268050000000  0.5847470000000  0.4467020000000 1.0
C      1  0.4725270000000  0.5833050000000  0.5551490000000 1.0
C      1  0.4722010000000  0.4158390000000  0.4424710000000 1.0
C      1  0.5310430000000  0.4296930000000  0.5592850000000 1.0
C      1  0.4441160000000  0.5832080000000  0.5369360000000 1.0
C      1  0.5564160000000  0.5833830000000  0.4635000000000 1.0
C      1  0.4546330000000  0.4248850000000  0.4680850000000 1.0
C      1  0.5490370000000  0.4154820000000  0.5366880000000 1.0
C      1  0.4036570000000  0.4790480000000  0.5543680000000 1.0
C      1  0.5898470000000  0.4767430000000  0.4451840000000 1.0
C      1  0.6002390000000  0.5164180000000  0.5602790000000 1.0
C      1  0.3959070000000  0.5197270000000  0.4345430000000 1.0
C      1  0.5540950000000  0.4780070000000  0.4222490000000 1.0
C      1  0.4414440000000  0.4799320000000  0.5656260000000 1.0
C      1  0.5612140000000  0.5206080000000  0.5674920000000 1.0
C      1  0.4356250000000  0.5215440000000  0.4335510000000 1.0
C      1  0.5460500000000  0.4872310000000  0.4897610000000 1.0
C      1  0.4721720000000  0.4896680000000  0.5030970000000 1.0
C      1  0.4587070000000  0.5109310000000  0.4834160000000 1.0
C      1  0.5428820000000  0.5086820000000  0.5162560000000 1.0
C      1  0.4907850000000  0.4897030000000  0.5306950000000 1.0
C      1  0.5203310000000  0.4850730000000  0.4714170000000 1.0
C      1  0.4711220000000  0.5144430000000  0.4557800000000 1.0
C      1  0.5189630000000  0.5088730000000  0.5358580000000 1.0
C      1  0.5008760000000  0.3890090000000  0.4736420000000 1.0
C      1  0.4944740000000  0.3847840000000  0.5289460000000 1.0
C      1  0.4931750000000  0.6125810000000  0.4788410000000 1.0
C      1  0.4982100000000  0.6083140000000  0.5180470000000 1.0
C      1  0.4810320000000  0.3793970000000  0.4988760000000 1.0
C      1  0.5155040000000  0.3823030000000  0.5027210000000 1.0
C      1  0.4690220000000  0.6103000000000  0.5011750000000 1.0
C      1  0.5225480000000  0.6091390000000  0.4957770000000 1.0
C      1  0.5170710000000  0.5336600000000  0.6025540000000 1.0
C      1  0.4801910000000  0.5326450000000  0.3994470000000 1.0
C      1  0.4807300000000  0.4674780000000  0.6047610000000 1.0
C      1  0.5213770000000  0.4669750000000  0.3961310000000 1.0
C      1  0.6064560000000  0.5324550000000  0.5186140000000 1.0
C      1  0.3906150000000  0.5328900000000  0.4841350000000 1.0
C      1  0.6043620000000  0.4605080000000  0.4829900000000 1.0
C      1  0.3976000000000  0.4639200000000  0.5150930000000 1.0
C      1  0.5685570000000  0.4390900000000  0.4629350000000 1.0
C      1  0.4415740000000  0.4440470000000  0.5323760000000 1.0
C      1  0.4318870000000  0.5593190000000  0.4585310000000 1.0
C      1  0.5653630000000  0.5560190000000  0.5412900000000 1.0
C      1  0.4582740000000  0.4447010000000  0.5582410000000 1.0
C      1  0.5489260000000  0.4420730000000  0.4388190000000 1.0
C      1  0.4576310000000  0.5645770000000  0.4409490000000 1.0
C      1  0.5392890000000  0.5614050000000  0.5582310000000 1.0
C      1  0.5310010000000  0.5548450000000  0.5045250000000 1.0
C      1  0.4683440000000  0.5560130000000  0.4969860000000 1.0
C      1  0.4821830000000  0.4485180000000  0.5040420000000 1.0
C      1  0.5283440000000  0.4471640000000  0.4967330000000 1.0
C      1  0.5078110000000  0.5524670000000  0.5263990000000 1.0
C      1  0.4905370000000  0.5562540000000  0.4738810000000 1.0
C      1  0.5082860000000  0.4470350000000  0.4725990000000 1.0
C      1  0.4982230000000  0.4475690000000  0.5289680000000 1.0
C      1  0.4555560000000  0.5470230000000  0.3948050000000 1.0
C      1  0.5429580000000  0.5458680000000  0.6062030000000 1.0
C      1  0.5448290000000  0.4542910000000  0.3888910000000 1.0
C      1  0.4557350000000  0.4564150000000  0.6085650000000 1.0
C      1  0.3843710000000  0.5465920000000  0.4607760000000 1.0
C      1  0.6130680000000  0.5483620000000  0.5403690000000 1.0
C      1  0.3927770000000  0.4462070000000  0.5362460000000 1.0
C      1  0.6109700000000  0.4463940000000  0.4602840000000 1.0
C      1  0.4876160000000  0.5066350000000  0.5601030000000 1.0
C      1  0.5169350000000  0.5076720000000  0.4462360000000 1.0
C      1  0.5157720000000  0.4869000000000  0.5614890000000 1.0
C      1  0.4889910000000  0.4937710000000  0.4481450000000 1.0
C      1  0.5564960000000  0.5130020000000  0.4743790000000 1.0
C      1  0.4356340000000  0.5104440000000  0.5160140000000 1.0
C      1  0.5638980000000  0.4855730000000  0.5254990000000 1.0
C      1  0.4279760000000  0.5042050000000  0.4839890000000 1.0
C      1  0.4221850000000  0.4541280000000  0.4992740000000 1.0
C      1  0.5832650000000  0.4464350000000  0.5007340000000 1.0
C      1  0.5839730000000  0.5452410000000  0.5021170000000 1.0
C      1  0.4138600000000  0.5469940000000  0.4988760000000 1.0
C      1  0.5065590000000  0.4540440000000  0.4195180000000 1.0
C      1  0.4967860000000  0.4537700000000  0.5823990000000 1.0
C      1  0.5028640000000  0.5425350000000  0.5790400000000 1.0
C      1  0.4959850000000  0.5423970000000  0.4216600000000 1.0
C      1  0.5234970000000  0.4612110000000  0.4473760000000 1.0
C      1  0.4840210000000  0.4642800000000  0.5527050000000 1.0
C      1  0.4791180000000  0.5431930000000  0.4472390000000 1.0
C      1  0.5185510000000  0.5380120000000  0.5527920000000 1.0
C      1  0.4494480000000  0.4699700000000  0.5115550000000 1.0
C      1  0.5568560000000  0.4581290000000  0.4868760000000 1.0
C      1  0.4429480000000  0.5411510000000  0.4851060000000 1.0
C      1  0.5550800000000  0.5376060000000  0.5150290000000 1.0
C      1  0.4940100000000  0.4201160000000  0.4685920000000 1.0
C      1  0.5040200000000  0.4165930000000  0.5305130000000 1.0
C      1  0.5045690000000  0.5833720000000  0.4711540000000 1.0
C      1  0.4955610000000  0.5789650000000  0.5320550000000 1.0
C      1  0.4730930000000  0.4182490000000  0.4942060000000 1.0
C      1  0.5290870000000  0.4190900000000  0.5104850000000 1.0
C      1  0.4684230000000  0.5817600000000  0.5153990000000 1.0
C      1  0.5330090000000  0.5796240000000  0.4858280000000 1.0
C      1  0.4387710000000  0.5054430000000  0.5807950000000 1.0
C      1  0.5650520000000  0.5078280000000  0.4186470000000 1.0
C      1  0.5598690000000  0.4965820000000  0.5846540000000 1.0
C      1  0.4381770000000  0.4929710000000  0.4222300000000 1.0
C      1  0.5896190000000  0.5063820000000  0.4336700000000 1.0
C      1  0.4121640000000  0.5070100000000  0.5664120000000 1.0
C      1  0.5864610000000  0.4898630000000  0.5708380000000 1.0
C      1  0.4089600000000  0.4919350000000  0.4351590000000 1.0
C      1  0.4757830000000  0.4599530000000  0.4197370000000 1.0
C      1  0.5271740000000  0.4582780000000  0.5867980000000 1.0
C      1  0.5238120000000  0.5402660000000  0.4241890000000 1.0
C      1  0.4749210000000  0.5401370000000  0.5777780000000 1.0
C      1  0.4155390000000  0.4558040000000  0.4680400000000 1.0
C      1  0.5848120000000  0.4518940000000  0.5307970000000 1.0
C      1  0.4149520000000  0.5422880000000  0.5284470000000 1.0
C      1  0.5845250000000  0.5412170000000  0.4721210000000 1.0
C      1  0.4673500000000  0.5118510000000  0.5860990000000 1.0
C      1  0.5333120000000  0.5117080000000  0.4186790000000 1.0
C      1  0.5314940000000  0.4889540000000  0.5897350000000 1.0
C      1  0.4639480000000  0.4846180000000  0.4121180000000 1.0
C      1  0.5892330000000  0.5111730000000  0.4653650000000 1.0
C      1  0.4070600000000  0.5134060000000  0.5349750000000 1.0
C      1  0.5941740000000  0.4805890000000  0.5393950000000 1.0
C      1  0.4068810000000  0.4844990000000  0.4656560000000 1.0
C      1  0.5601030000000  0.5496890000000  0.5802950000000 1.0
C      1  0.4375670000000  0.5505220000000  0.4200470000000 1.0
C      1  0.4393390000000  0.4526250000000  0.5831470000000 1.0
C      1  0.5660880000000  0.4493000000000  0.4122180000000 1.0
C      1  0.5892700000000  0.5485390000000  0.5626450000000 1.0
C      1  0.4076560000000  0.5516210000000  0.4364710000000 1.0
C      1  0.5885590000000  0.4456940000000  0.4361640000000 1.0
C      1  0.4185200000000  0.4484980000000  0.5569800000000 1.0
C      1  0.4715070000000  0.5910780000000  0.4400920000000 1.0
C      1  0.5247180000000  0.5876690000000  0.5580180000000 1.0
C      1  0.5219290000000  0.4254510000000  0.4302640000000 1.0
C      1  0.4822370000000  0.4255930000000  0.5688160000000 1.0
C      1  0.4244550000000  0.5764920000000  0.4856250000000 1.0
C      1  0.5710160000000  0.5742300000000  0.5144510000000 1.0
C      1  0.4357860000000  0.4232160000000  0.5076880000000 1.0
C      1  0.5660070000000  0.4192370000000  0.4886280000000 1.0
C      1  0.5707120000000  0.5949520000000  0.4884230000000 1.0
C      1  0.4295480000000  0.5958320000000  0.5126940000000 1.0
C      1  0.4249240000000  0.4239380000000  0.4753470000000 1.0
C      1  0.5647750000000  0.4012970000000  0.5131440000000 1.0
C      1  0.5002420000000  0.5892650000000  0.5703810000000 1.0
C      1  0.4980210000000  0.5910010000000  0.4324670000000 1.0
C      1  0.4985610000000  0.4027460000000  0.4329330000000 1.0
C      1  0.5097530000000  0.4165750000000  0.5758820000000 1.0
C      1  0.4855700000000  0.4956790000000  0.6058530000000 1.0
C      1  0.5209370000000  0.4943560000000  0.3962220000000 1.0
C      1  0.5126060000000  0.5054630000000  0.6069260000000 1.0
C      1  0.4784390000000  0.5043000000000  0.3976270000000 1.0
C      1  0.6033620000000  0.4879610000000  0.4810710000000 1.0
C      1  0.3926510000000  0.4925700000000  0.5138720000000 1.0
C      1  0.6075350000000  0.5051790000000  0.5225950000000 1.0
C      1  0.3885290000000  0.5035800000000  0.4873360000000 1.0
C      1  0.4327500000000  0.5550880000000  0.5458280000000 1.0
C      1  0.5674530000000  0.5551840000000  0.4542360000000 1.0
C      1  0.5684450000000  0.4383130000000  0.5493240000000 1.0
C      1  0.4342570000000  0.4478120000000  0.4425100000000 1.0
C      1  0.5407090000000  0.5569990000000  0.4382700000000 1.0
C      1  0.4579960000000  0.5564000000000  0.5630160000000 1.0
C      1  0.5540280000000  0.4470230000000  0.5756690000000 1.0
C      1  0.4586680000000  0.4417930000000  0.4321040000000 1.0
C      1  0.5231270000000  0.4599770000000  0.5470860000000 1.0
C      1  0.4857100000000  0.4683930000000  0.4575360000000 1.0
C      1  0.4844230000000  0.5289210000000  0.5345650000000 1.0
C      1  0.5136390000000  0.5330590000000  0.4646310000000 1.0
C      1  0.5404940000000  0.4650160000000  0.5224210000000 1.0
C      1  0.4690490000000  0.4535730000000  0.4767930000000 1.0
C      1  0.5356530000000  0.5342830000000  0.4803400000000 1.0
C      1  0.4626990000000  0.5301620000000  0.5180970000000 1.0
C      1  0.4414100000000  0.6059150000000  0.4828370000000 1.0
C      1  0.5508430000000  0.6018260000000  0.5136790000000 1.0
C      1  0.5374220000000  0.4008300000000  0.4842600000000 1.0
C      1  0.4597570000000  0.4002750000000  0.5156760000000 1.0
C      1  0.4656890000000  0.6084390000000  0.4617620000000 1.0
C      1  0.5272280000000  0.6031760000000  0.5346470000000 1.0
C      1  0.4743900000000  0.4059880000000  0.5447360000000 1.0
C      1  0.5255270000000  0.4008150000000  0.4536080000000 1.0
C      1  0.5733720000000  0.5142380000000  0.5412950000000 1.0
C      1  0.4324610000000  0.4828370000000  0.5358470000000 1.0
C      1  0.5600670000000  0.4872470000000  0.4524530000000 1.0
C      1  0.4196290000000  0.5216290000000  0.4592420000000 1.0
C      1  0.4992050000000  0.4846800000000  0.4913140000000 1.0
END
