TITL C-2782230-7391-706 -0.00724887049254188 125000 -800.85645759962 0 0 137 (C1) n - 1
REM
REM in /home/nfs/bkarasulu/CARBON/AIRSS/Generating-Clusters/REBO/Higher-Symm/SD-CG/HFTN-CG
REM
REM
REM
REM
REM
REM ./C.cell (12c818d87b63d06a65506943cc24bca4)
REM
REM compiler GCC version 9.2.1 20190827 (Red Hat 9.2.1-1)
REM options -cpp -mtune=generic -march=x86-64 -g -O0 -fpre-include=/usr/include/finclude/math-vector-fortran.h
REM seed 1898374194 -301303583 1329892399 1887121446 990612681 -1340784555 -1971137410 282001621 1963807166 -1120769594 1150860018 330306351 1714322274 1844774596 -506995514 185557937 631887125 391577482 -1244569179 -1785588069 1180248167 -875034662 788919596 -274169104 -1798244061 -220216938 -1269510261 -115041978 -1409937224 1728319215 429782127 1888307215 612594543
REM
CELL 1.54180   50.00000   50.00000   50.00000   90.00000   90.00000   90.00000
LATT -1
SFAC C  
C      1  0.5463970000000  0.4931900000000  0.4837000000000 1.0
C      1  0.5628480000000  0.4925490000000  0.5327420000000 1.0
C      1  0.5557160000000  0.5194620000000  0.4931210000000 1.0
C      1  0.4148340000000  0.4580770000000  0.4766270000000 1.0
C      1  0.4167090000000  0.4909590000000  0.5475630000000 1.0
C      1  0.4101410000000  0.5452410000000  0.4886900000000 1.0
C      1  0.5230180000000  0.5878000000000  0.5289510000000 1.0
C      1  0.5240370000000  0.4836970000000  0.3994780000000 1.0
C      1  0.5220720000000  0.4259490000000  0.5622880000000 1.0
C      1  0.4298890000000  0.4409770000000  0.4520770000000 1.0
C      1  0.4384420000000  0.4840960000000  0.5728680000000 1.0
C      1  0.4306590000000  0.5702880000000  0.4768420000000 1.0
C      1  0.4602730000000  0.5831450000000  0.4756280000000 1.0
C      1  0.4621930000000  0.4377000000000  0.4414210000000 1.0
C      1  0.4692080000000  0.4799260000000  0.5791730000000 1.0
C      1  0.4345560000000  0.4468460000000  0.5363180000000 1.0
C      1  0.4390980000000  0.5611410000000  0.5234850000000 1.0
C      1  0.4315890000000  0.4925530000000  0.4298360000000 1.0
C      1  0.5079030000000  0.5677920000000  0.4878890000000 1.0
C      1  0.5082230000000  0.4542580000000  0.4313750000000 1.0
C      1  0.5077240000000  0.4704220000000  0.5744880000000 1.0
C      1  0.4889930000000  0.5427220000000  0.5721910000000 1.0
C      1  0.4877960000000  0.5428390000000  0.4296450000000 1.0
C      1  0.4892470000000  0.4235190000000  0.5010520000000 1.0
C      1  0.4532710000000  0.4519030000000  0.4920400000000 1.0
C      1  0.4511980000000  0.5309630000000  0.5466840000000 1.0
C      1  0.4383350000000  0.5264530000000  0.4497470000000 1.0
C      1  0.4932550000000  0.4226640000000  0.5600720000000 1.0
C      1  0.4934570000000  0.5911320000000  0.5260260000000 1.0
C      1  0.4928270000000  0.4821580000000  0.4000210000000 1.0
C      1  0.5194060000000  0.5465900000000  0.4419240000000 1.0
C      1  0.5218690000000  0.4337780000000  0.4963420000000 1.0
C      1  0.5225070000000  0.5354580000000  0.5707700000000 1.0
C      1  0.5336320000000  0.4241220000000  0.5330120000000 1.0
C      1  0.5319310000000  0.5692640000000  0.5527890000000 1.0
C      1  0.5369610000000  0.5124370000000  0.4053140000000 1.0
C      1  0.5734320000000  0.5551130000000  0.4896440000000 1.0
C      1  0.5685940000000  0.4725090000000  0.4580660000000 1.0
C      1  0.5697910000000  0.4792650000000  0.5696940000000 1.0
C      1  0.4620920000000  0.5585590000000  0.5763050000000 1.0
C      1  0.4579990000000  0.5440220000000  0.4200480000000 1.0
C      1  0.4643650000000  0.4068950000000  0.5171220000000 1.0
C      1  0.4808490000000  0.4508250000000  0.5675660000000 1.0
C      1  0.4819900000000  0.5792140000000  0.5000660000000 1.0
C      1  0.4770000000000  0.4622190000000  0.4226250000000 1.0
C      1  0.5783200000000  0.4526820000000  0.5146200000000 1.0
C      1  0.5741640000000  0.5393660000000  0.5365890000000 1.0
C      1  0.5806610000000  0.5034880000000  0.4359380000000 1.0
C      1  0.5198740000000  0.5373680000000  0.3926790000000 1.0
C      1  0.5144870000000  0.4013430000000  0.5224640000000 1.0
C      1  0.5130810000000  0.5735170000000  0.5802490000000 1.0
C      1  0.4980000000000  0.5747310000000  0.4305320000000 1.0
C      1  0.4957340000000  0.4072760000000  0.4725940000000 1.0
C      1  0.4947600000000  0.5248590000000  0.5984530000000 1.0
C      1  0.5510150000000  0.5183600000000  0.6081390000000 1.0
C      1  0.5499660000000  0.5709490000000  0.4335190000000 1.0
C      1  0.5528750000000  0.4143530000000  0.4583490000000 1.0
C      1  0.4484960000000  0.5209200000000  0.5165460000000 1.0
C      1  0.4420840000000  0.5029440000000  0.4742650000000 1.0
C      1  0.4505700000000  0.4790220000000  0.5051340000000 1.0
C      1  0.5187490000000  0.5392480000000  0.4915280000000 1.0
C      1  0.5064730000000  0.4736590000000  0.4570740000000 1.0
C      1  0.5143210000000  0.4894680000000  0.5488870000000 1.0
C      1  0.4163030000000  0.5444780000000  0.5179080000000 1.0
C      1  0.4107490000000  0.4974920000000  0.4501260000000 1.0
C      1  0.4157140000000  0.4673790000000  0.5289180000000 1.0
C      1  0.5279290000000  0.4972460000000  0.4584160000000 1.0
C      1  0.5372520000000  0.4745940000000  0.5323080000000 1.0
C      1  0.5375170000000  0.5322540000000  0.5190300000000 1.0
C      1  0.5798560000000  0.5243800000000  0.5147150000000 1.0
C      1  0.5877000000000  0.4947340000000  0.4649610000000 1.0
C      1  0.5817540000000  0.4810920000000  0.5149060000000 1.0
C      1  0.4940570000000  0.5172640000000  0.4513840000000 1.0
C      1  0.4898980000000  0.4545050000000  0.5076500000000 1.0
C      1  0.4906260000000  0.5241210000000  0.5437280000000 1.0
C      1  0.4848390000000  0.4730500000000  0.4795900000000 1.0
C      1  0.4912550000000  0.4953210000000  0.5284160000000 1.0
C      1  0.4973830000000  0.5175290000000  0.4845930000000 1.0
C      1  0.5592920000000  0.5296610000000  0.5852540000000 1.0
C      1  0.5595370000000  0.5446460000000  0.4363600000000 1.0
C      1  0.5577250000000  0.4280140000000  0.4805800000000 1.0
C      1  0.5336780000000  0.5166070000000  0.5469770000000 1.0
C      1  0.5311440000000  0.5294540000000  0.4631880000000 1.0
C      1  0.5277690000000  0.4666060000000  0.5036500000000 1.0
C      1  0.4299050000000  0.5153200000000  0.5675110000000 1.0
C      1  0.4192470000000  0.5477460000000  0.4568570000000 1.0
C      1  0.4229480000000  0.4278620000000  0.4827830000000 1.0
C      1  0.4890140000000  0.4056270000000  0.5367300000000 1.0
C      1  0.4933480000000  0.5786030000000  0.5552560000000 1.0
C      1  0.4982620000000  0.5138130000000  0.3953430000000 1.0
C      1  0.5192820000000  0.5586680000000  0.4109750000000 1.0
C      1  0.5195360000000  0.3996860000000  0.4922200000000 1.0
C      1  0.5154190000000  0.5504580000000  0.6006250000000 1.0
C      1  0.5141320000000  0.4826160000000  0.6037070000000 1.0
C      1  0.5284000000000  0.5881800000000  0.4782230000000 1.0
C      1  0.5103500000000  0.4247600000000  0.4330950000000 1.0
C      1  0.4653960000000  0.4805710000000  0.5295750000000 1.0
C      1  0.4674770000000  0.5295710000000  0.4936480000000 1.0
C      1  0.4589820000000  0.4820150000000  0.4662770000000 1.0
C      1  0.4398890000000  0.4277860000000  0.5122960000000 1.0
C      1  0.4474150000000  0.5642530000000  0.5517640000000 1.0
C      1  0.4403240000000  0.5194220000000  0.4177110000000 1.0
C      1  0.4673350000000  0.5315210000000  0.4624420000000 1.0
C      1  0.4615840000000  0.4310960000000  0.4733970000000 1.0
C      1  0.4691390000000  0.5089500000000  0.5656590000000 1.0
C      1  0.4898020000000  0.4975570000000  0.5978810000000 1.0
C      1  0.4779430000000  0.5887170000000  0.4474700000000 1.0
C      1  0.4879230000000  0.4161400000000  0.4475020000000 1.0
C      1  0.5637340000000  0.5094880000000  0.5607950000000 1.0
C      1  0.5630980000000  0.5371940000000  0.4662280000000 1.0
C      1  0.5543820000000  0.4600240000000  0.4834500000000 1.0
C      1  0.5387200000000  0.5875070000000  0.4521750000000 1.0
C      1  0.5353580000000  0.4130080000000  0.4376820000000 1.0
C      1  0.5357720000000  0.4965910000000  0.6144990000000 1.0
C      1  0.4540850000000  0.4766600000000  0.4390490000000 1.0
C      1  0.4585600000000  0.4592650000000  0.5466740000000 1.0
C      1  0.4609030000000  0.5574310000000  0.5060260000000 1.0
C      1  0.5550730000000  0.4325350000000  0.5123130000000 1.0
C      1  0.5547220000000  0.5483310000000  0.5589040000000 1.0
C      1  0.5619660000000  0.5202900000000  0.4219100000000 1.0
C      1  0.4584860000000  0.5609450000000  0.4496740000000 1.0
C      1  0.4577260000000  0.4057350000000  0.4842760000000 1.0
C      1  0.4535040000000  0.5310680000000  0.5863260000000 1.0
C      1  0.5479970000000  0.4800430000000  0.4397770000000 1.0
C      1  0.5520250000000  0.4617770000000  0.5583150000000 1.0
C      1  0.5544710000000  0.5598460000000  0.5085970000000 1.0
C      1  0.5054570000000  0.5529860000000  0.5378700000000 1.0
C      1  0.5094960000000  0.5098080000000  0.4257020000000 1.0
C      1  0.5073850000000  0.4462440000000  0.5311660000000 1.0
C      1  0.4115780000000  0.5139730000000  0.4764210000000 1.0
C      1  0.4195760000000  0.4749420000000  0.4996130000000 1.0
C      1  0.4183810000000  0.5166700000000  0.5292320000000 1.0
C      1  0.5310630000000  0.4498190000000  0.5733310000000 1.0
C      1  0.5393720000000  0.5838020000000  0.5064750000000 1.0
C      1  0.5333370000000  0.4666680000000  0.4197840000000 1.0
C      1  0.5908480000000  0.5005410000000  0.4933180000000 1.0
C      1  0.5038120000000  0.4907820000000  0.5000830000000 1.0
END
