TITL C-2782240-8521-926 -0.000388171273903701 125000 -388.03736584723 0 0 66 (C1) n - 1
REM
REM in /home/nfs/bkarasulu/CARBON/AIRSS/Generating-Clusters/REBO/Higher-Symm/SD-CG/HFTN-CG
REM
REM
REM
REM
REM
REM ./C.cell (12c818d87b63d06a65506943cc24bca4)
REM
REM compiler GCC version 9.2.1 20190827 (Red Hat 9.2.1-1)
REM options -cpp -mtune=generic -march=x86-64 -g -O0 -fpre-include=/usr/include/finclude/math-vector-fortran.h
REM seed 447441215 1564187034 -521054974 1015784940 -1585107863 -1322734933 76628782 1800095710 -34537260 1895889305 1200819603 -404905342 76354156 42735365 1832989870 -2044479137 599892779 367425374 1868971066 -1385291449 -312189833 -863623898 -1142605459 -1060009832 167009262 1057880257 -1114630357 -1017420091 -314404337 -252119397 856424566 1430281380 1713507124
REM
CELL 1.54180   50.00000   50.00000   50.00000   90.00000   90.00000   90.00000
LATT -1
SFAC C  
C      1  0.4802230000000  0.4781810000000  0.5722880000000 1.0
C      1  0.5628940000000  0.4774590000000  0.5414000000000 1.0
C      1  0.5576650000000  0.4779640000000  0.4537020000000 1.0
C      1  0.4724940000000  0.4774210000000  0.4300790000000 1.0
C      1  0.4246050000000  0.4775170000000  0.5033550000000 1.0
C      1  0.5059670000000  0.4307960000000  0.4763190000000 1.0
C      1  0.4789010000000  0.4312060000000  0.4870170000000 1.0
C      1  0.4806900000000  0.4323460000000  0.5159740000000 1.0
C      1  0.5087730000000  0.4323930000000  0.5232320000000 1.0
C      1  0.5244190000000  0.4315950000000  0.4988030000000 1.0
C      1  0.4627250000000  0.4538950000000  0.4761060000000 1.0
C      1  0.4664430000000  0.4565140000000  0.5267900000000 1.0
C      1  0.5156780000000  0.4563330000000  0.5399130000000 1.0
C      1  0.5433610000000  0.4548180000000  0.4973650000000 1.0
C      1  0.5107810000000  0.4534610000000  0.4572860000000 1.0
C      1  0.5047520000000  0.4663640000000  0.4277970000000 1.0
C      1  0.4321000000000  0.4654940000000  0.4723390000000 1.0
C      1  0.4532980000000  0.4666520000000  0.5547770000000 1.0
C      1  0.5380010000000  0.4657660000000  0.5616170000000 1.0
C      1  0.5704360000000  0.4657270000000  0.4829550000000 1.0
C      1  0.5691600000000  0.4614940000000  0.5168150000000 1.0
C      1  0.5367790000000  0.4619570000000  0.4389510000000 1.0
C      1  0.4528260000000  0.4610270000000  0.4455890000000 1.0
C      1  0.4340610000000  0.4618750000000  0.5269960000000 1.0
C      1  0.5053120000000  0.4619380000000  0.5706170000000 1.0
C      1  0.4486850000000  0.5152810000000  0.5308370000000 1.0
C      1  0.5163650000000  0.5157250000000  0.5644220000000 1.0
C      1  0.5671750000000  0.5159170000000  0.5060930000000 1.0
C      1  0.5210480000000  0.5144090000000  0.4458520000000 1.0
C      1  0.4409980000000  0.5156040000000  0.4524600000000 1.0
C      1  0.5389650000000  0.5337320000000  0.5459060000000 1.0
C      1  0.5551090000000  0.5340110000000  0.4795350000000 1.0
C      1  0.4908430000000  0.5300730000000  0.4491910000000 1.0
C      1  0.4432310000000  0.5315460000000  0.4826280000000 1.0
C      1  0.4729690000000  0.5327420000000  0.5473560000000 1.0
C      1  0.5105560000000  0.4810270000000  0.5227670000000 1.0
C      1  0.5262630000000  0.4804550000000  0.4962730000000 1.0
C      1  0.5054320000000  0.4786800000000  0.4736480000000 1.0
C      1  0.4767300000000  0.4803040000000  0.4849600000000 1.0
C      1  0.4803650000000  0.4808350000000  0.5150650000000 1.0
C      1  0.4814160000000  0.5121530000000  0.5221070000000 1.0
C      1  0.5201630000000  0.5097490000000  0.5315820000000 1.0
C      1  0.5366250000000  0.5098700000000  0.4942810000000 1.0
C      1  0.5024690000000  0.5114430000000  0.4737820000000 1.0
C      1  0.4631770000000  0.5047080000000  0.4759730000000 1.0
C      1  0.4771060000000  0.5623960000000  0.5447060000000 1.0
C      1  0.5345220000000  0.5622940000000  0.5369110000000 1.0
C      1  0.5456030000000  0.5625820000000  0.4796750000000 1.0
C      1  0.4917110000000  0.5601660000000  0.4524190000000 1.0
C      1  0.4524760000000  0.5591690000000  0.4904940000000 1.0
C      1  0.4991370000000  0.4985980000000  0.4266120000000 1.0
C      1  0.4240570000000  0.4974850000000  0.4755940000000 1.0
C      1  0.4563040000000  0.4988550000000  0.5591090000000 1.0
C      1  0.5442150000000  0.4977730000000  0.5616340000000 1.0
C      1  0.5711870000000  0.4978960000000  0.4780960000000 1.0
C      1  0.5622500000000  0.5110540000000  0.5356490000000 1.0
C      1  0.5492510000000  0.5109290000000  0.4551640000000 1.0
C      1  0.4681780000000  0.5106850000000  0.4359280000000 1.0
C      1  0.4322040000000  0.5105190000000  0.5064400000000 1.0
C      1  0.4866960000000  0.5114740000000  0.5692290000000 1.0
C      1  0.4756970000000  0.5739220000000  0.4964150000000 1.0
C      1  0.4885600000000  0.5754140000000  0.5225630000000 1.0
C      1  0.5175540000000  0.5754220000000  0.5185970000000 1.0
C      1  0.5225670000000  0.5752050000000  0.4897480000000 1.0
C      1  0.4966960000000  0.5744570000000  0.4761650000000 1.0
C      1  0.5058590000000  0.5212090000000  0.5034340000000 1.0
END
