TITL C-2782238-9940-325 -4.25837544156272e-07 125000 -160.295847201043 0 0 28 (C2h) n - 1
REM
REM in /home/nfs/bkarasulu/CARBON/AIRSS/Generating-Clusters/REBO/Higher-Symm/SD-CG/HFTN-CG
REM
REM
REM
REM
REM
REM ./C.cell (12c818d87b63d06a65506943cc24bca4)
REM
REM compiler GCC version 9.2.1 20190827 (Red Hat 9.2.1-1)
REM options -cpp -mtune=generic -march=x86-64 -g -O0 -fpre-include=/usr/include/finclude/math-vector-fortran.h
REM seed -2006084758 -961127457 1491789186 321622614 1395750877 -11880039 -1547929190 102597652 -1456799544 -273347032 532960433 228618123 -875815084 -1124809186 -1467279081 1766229761 -1103677381 823765109 -1174811284 -1704170583 -1731047135 599491066 -333784522 -243097244 -584887683 1611079175 -1110533408 -1561685 704991457 -33134159 -1553124193 359257578 -320543857
REM
CELL 1.54180   50.00000   50.00000   50.00000   90.00000   90.00000   90.00000
LATT -1
SFAC C  
C      1  0.5280110000000  0.5454030000000  0.4555830000000 1.0
C      1  0.4723780000000  0.5453320000000  0.5447310000000 1.0
C      1  0.5276220000000  0.4546680000000  0.4552690000000 1.0
C      1  0.4719890000000  0.4545970000000  0.5444170000000 1.0
C      1  0.4986050000000  0.4481560000000  0.5397360000000 1.0
C      1  0.5009520000000  0.4484230000000  0.4599050000000 1.0
C      1  0.4990480000000  0.5515770000000  0.5400950000000 1.0
C      1  0.5013950000000  0.5518440000000  0.4602640000000 1.0
C      1  0.4513990000000  0.5358380000000  0.4994500000000 1.0
C      1  0.5489070000000  0.5354150000000  0.5007970000000 1.0
C      1  0.4510930000000  0.4645850000000  0.4992030000000 1.0
C      1  0.5486010000000  0.4641620000000  0.5005500000000 1.0
C      1  0.5280850000000  0.4555570000000  0.5254530000000 1.0
C      1  0.4715360000000  0.4559770000000  0.4742400000000 1.0
C      1  0.5284640000000  0.5440230000000  0.5257600000000 1.0
C      1  0.4719150000000  0.5444430000000  0.4745470000000 1.0
C      1  0.4603530000000  0.4871160000000  0.4790520000000 1.0
C      1  0.5395340000000  0.4866320000000  0.5208570000000 1.0
C      1  0.4604660000000  0.5133680000000  0.4791430000000 1.0
C      1  0.5396470000000  0.5128840000000  0.5209480000000 1.0
C      1  0.5475720000000  0.4596730000000  0.4733310000000 1.0
C      1  0.4520830000000  0.4598980000000  0.5263900000000 1.0
C      1  0.5479170000000  0.5401020000000  0.4736100000000 1.0
C      1  0.4524280000000  0.5403270000000  0.5266690000000 1.0
C      1  0.4942820000000  0.5650320000000  0.4881120000000 1.0
C      1  0.5062740000000  0.5648960000000  0.5123380000000 1.0
C      1  0.4937260000000  0.4351040000000  0.4876620000000 1.0
C      1  0.5057180000000  0.4349680000000  0.5118880000000 1.0
END
