TITL C-2782232-2968-1160 -3.57746972356722e-07 125000 -73.3765347300278 0 0 14 (D7h) n - 1
REM
REM in /home/nfs/bkarasulu/CARBON/AIRSS/Generating-Clusters/REBO/Higher-Symm/SD-CG/HFTN-CG
REM
REM
REM
REM
REM
REM ./C.cell (12c818d87b63d06a65506943cc24bca4)
REM
REM compiler GCC version 9.2.1 20190827 (Red Hat 9.2.1-1)
REM options -cpp -mtune=generic -march=x86-64 -g -O0 -fpre-include=/usr/include/finclude/math-vector-fortran.h
REM seed 946400294 -1451305975 -819433811 1472144121 -1783907894 -1504439513 915952828 -1862177834 1571161973 82748045 -618358972 54121916 -943736612 -1197135646 1728548034 -1637961712 1520382142 65042684 652911257 -633982339 1991854155 -548367765 29083799 -337424764 -1478613785 1089417767 -58663399 1659413823 1576673017 1685227580 -2006568846 1182890762 -922805539
REM
CELL 1.54180   50.00000   50.00000   50.00000   90.00000   90.00000   90.00000
LATT -1
SFAC C  
C      1  0.5000030000000  0.4773900000000  0.5235260000000 1.0
C      1  0.5000070000000  0.4675090000000  0.4969910000000 1.0
C      1  0.5000050000000  0.4820950000000  0.4727210000000 1.0
C      1  0.5000000000000  0.5101640000000  0.4689930000000 1.0
C      1  0.4999950000000  0.5305790000000  0.4886140000000 1.0
C      1  0.4999930000000  0.5279680000000  0.5168080000000 1.0
C      1  0.4999970000000  0.5042960000000  0.5323460000000 1.0
C      1  0.4999940000000  0.5079170000000  0.5596060000000 1.0
C      1  0.5000050000000  0.4583340000000  0.5433540000000 1.0
C      1  0.5000120000000  0.4401260000000  0.4944550000000 1.0
C      1  0.5000100000000  0.4670050000000  0.4497320000000 1.0
C      1  0.5000000000000  0.5187290000000  0.4428610000000 1.0
C      1  0.4999910000000  0.5563500000000  0.4790180000000 1.0
C      1  0.4999880000000  0.5515380000000  0.5309740000000 1.0
END
