TITL C-2782235-7892-1354 0.00181033428998957 125000 -704.59948175373 0 0 123 (C1) n - 1
REM
REM in /home/nfs/bkarasulu/CARBON/AIRSS/Generating-Clusters/REBO/Higher-Symm/SD-CG/HFTN-CG
REM
REM
REM
REM
REM
REM ./C.cell (12c818d87b63d06a65506943cc24bca4)
REM
REM compiler GCC version 9.2.1 20190827 (Red Hat 9.2.1-1)
REM options -cpp -mtune=generic -march=x86-64 -g -O0 -fpre-include=/usr/include/finclude/math-vector-fortran.h
REM seed -1357272461 -2145732080 -285438202 -403528305 2135959231 -589994872 -904987454 -80267541 -980957154 103931626 554163861 1835107344 1753693749 1342050372 786456941 518850953 1610251755 -1507146036 738331822 81391770 -1899211544 223620391 507310098 250847761 1945914551 -1688668050 -2012856053 1159247393 817552574 775858356 125091091 -981372321 -36198361
REM
CELL 1.54180   50.00000   50.00000   50.00000   90.00000   90.00000   90.00000
LATT -1
SFAC C  
C      1  0.4683620000000  0.5249240000000  0.5419310000000 1.0
C      1  0.5215360000000  0.5326580000000  0.4690220000000 1.0
C      1  0.5230960000000  0.5297090000000  0.5387870000000 1.0
C      1  0.4657770000000  0.5280520000000  0.4658680000000 1.0
C      1  0.5185190000000  0.5089830000000  0.4045770000000 1.0
C      1  0.4684710000000  0.4826790000000  0.5813490000000 1.0
C      1  0.4682160000000  0.5098060000000  0.4017710000000 1.0
C      1  0.5220270000000  0.4910190000000  0.5798440000000 1.0
C      1  0.4604210000000  0.5638460000000  0.4837710000000 1.0
C      1  0.5241620000000  0.5699820000000  0.5312620000000 1.0
C      1  0.5298050000000  0.5695620000000  0.4816450000000 1.0
C      1  0.4607860000000  0.5640670000000  0.5284530000000 1.0
C      1  0.5684450000000  0.4795460000000  0.4650360000000 1.0
C      1  0.4249620000000  0.4672290000000  0.5251920000000 1.0
C      1  0.4204980000000  0.4752840000000  0.4579970000000 1.0
C      1  0.5694710000000  0.4752220000000  0.5309880000000 1.0
C      1  0.4703610000000  0.4519450000000  0.5687750000000 1.0
C      1  0.5372280000000  0.4512320000000  0.4305880000000 1.0
C      1  0.5271280000000  0.4563050000000  0.5606430000000 1.0
C      1  0.4678980000000  0.4557850000000  0.4370780000000 1.0
C      1  0.4859480000000  0.5000850000000  0.5383600000000 1.0
C      1  0.5101140000000  0.5085370000000  0.4623960000000 1.0
C      1  0.5126400000000  0.5043280000000  0.5390070000000 1.0
C      1  0.4836390000000  0.5075650000000  0.4603780000000 1.0
C      1  0.4751850000000  0.4753730000000  0.5368100000000 1.0
C      1  0.5284760000000  0.4828010000000  0.4679790000000 1.0
C      1  0.5292770000000  0.4831250000000  0.5414010000000 1.0
C      1  0.4721400000000  0.4798610000000  0.4588600000000 1.0
C      1  0.5617670000000  0.4437420000000  0.5255920000000 1.0
C      1  0.4276340000000  0.4426090000000  0.4645560000000 1.0
C      1  0.4363310000000  0.4355730000000  0.5299470000000 1.0
C      1  0.5711930000000  0.4463360000000  0.4652350000000 1.0
C      1  0.5194700000000  0.5598900000000  0.4537070000000 1.0
C      1  0.4648590000000  0.5542930000000  0.5578770000000 1.0
C      1  0.4664740000000  0.5576300000000  0.4541890000000 1.0
C      1  0.5164910000000  0.5555360000000  0.5577970000000 1.0
C      1  0.5765650000000  0.5486630000000  0.5210370000000 1.0
C      1  0.4140070000000  0.5377000000000  0.4880190000000 1.0
C      1  0.4118090000000  0.5339580000000  0.5219080000000 1.0
C      1  0.5744440000000  0.5492020000000  0.4869450000000 1.0
C      1  0.4420360000000  0.4982340000000  0.5662830000000 1.0
C      1  0.5420350000000  0.5085920000000  0.4275070000000 1.0
C      1  0.5505000000000  0.5072700000000  0.5704540000000 1.0
C      1  0.4443330000000  0.5082610000000  0.4240680000000 1.0
C      1  0.5621280000000  0.5073910000000  0.5384770000000 1.0
C      1  0.4215530000000  0.5083670000000  0.4495120000000 1.0
C      1  0.4227490000000  0.4976550000000  0.5381730000000 1.0
C      1  0.5631990000000  0.5114180000000  0.4541270000000 1.0
C      1  0.4376870000000  0.5826600000000  0.4936600000000 1.0
C      1  0.5328080000000  0.5949100000000  0.5311710000000 1.0
C      1  0.5444240000000  0.5914610000000  0.4839050000000 1.0
C      1  0.4381430000000  0.5822720000000  0.5195290000000 1.0
C      1  0.5531260000000  0.4322740000000  0.4484090000000 1.0
C      1  0.4609800000000  0.4286470000000  0.5524600000000 1.0
C      1  0.4526200000000  0.4307710000000  0.4518420000000 1.0
C      1  0.5360820000000  0.4329620000000  0.5433960000000 1.0
C      1  0.4665740000000  0.5139340000000  0.5924710000000 1.0
C      1  0.5188720000000  0.5376020000000  0.4132100000000 1.0
C      1  0.5135460000000  0.5203050000000  0.5764430000000 1.0
C      1  0.4677130000000  0.5379850000000  0.4118610000000 1.0
C      1  0.5677610000000  0.5382100000000  0.5523070000000 1.0
C      1  0.4148910000000  0.5414360000000  0.4542340000000 1.0
C      1  0.4180410000000  0.5273940000000  0.5545340000000 1.0
C      1  0.5728870000000  0.5443400000000  0.4531630000000 1.0
C      1  0.4588140000000  0.4105050000000  0.5237780000000 1.0
C      1  0.5300600000000  0.4123220000000  0.4624430000000 1.0
C      1  0.5321740000000  0.4151100000000  0.5148170000000 1.0
C      1  0.4754140000000  0.4172160000000  0.4732670000000 1.0
C      1  0.4858470000000  0.4297550000000  0.4433560000000 1.0
C      1  0.5122710000000  0.4095740000000  0.5389030000000 1.0
C      1  0.5148590000000  0.4302920000000  0.4391400000000 1.0
C      1  0.4854830000000  0.4075780000000  0.5427380000000 1.0
C      1  0.5438130000000  0.4792240000000  0.4410830000000 1.0
C      1  0.4472640000000  0.4689000000000  0.5504510000000 1.0
C      1  0.4466250000000  0.4799050000000  0.4384530000000 1.0
C      1  0.5551480000000  0.4755960000000  0.5614330000000 1.0
C      1  0.4433160000000  0.5406660000000  0.4355650000000 1.0
C      1  0.5413770000000  0.5396470000000  0.5726930000000 1.0
C      1  0.5431370000000  0.5417020000000  0.4367880000000 1.0
C      1  0.4446670000000  0.5316250000000  0.5732170000000 1.0
C      1  0.4431490000000  0.5212490000000  0.5243260000000 1.0
C      1  0.5493060000000  0.5291390000000  0.4795780000000 1.0
C      1  0.5476560000000  0.5318260000000  0.5190830000000 1.0
C      1  0.4394910000000  0.5188410000000  0.4754390000000 1.0
C      1  0.5285120000000  0.4573060000000  0.4854890000000 1.0
C      1  0.4770260000000  0.4547080000000  0.5047660000000 1.0
C      1  0.4212600000000  0.4708620000000  0.4917710000000 1.0
C      1  0.5742060000000  0.4692000000000  0.4975100000000 1.0
C      1  0.5655070000000  0.4990970000000  0.4996340000000 1.0
C      1  0.4442960000000  0.4943790000000  0.4948590000000 1.0
C      1  0.4927540000000  0.5642630000000  0.4409540000000 1.0
C      1  0.4893560000000  0.5632820000000  0.5697220000000 1.0
C      1  0.4991780000000  0.4686440000000  0.5756560000000 1.0
C      1  0.4936290000000  0.4991220000000  0.3960290000000 1.0
C      1  0.5722850000000  0.4360730000000  0.4955680000000 1.0
C      1  0.4292980000000  0.4394310000000  0.4968160000000 1.0
C      1  0.4132340000000  0.5066630000000  0.5022920000000 1.0
C      1  0.5835400000000  0.5204680000000  0.5031070000000 1.0
C      1  0.5341410000000  0.5028430000000  0.4937000000000 1.0
C      1  0.4734450000000  0.4845240000000  0.4914230000000 1.0
C      1  0.4615350000000  0.5368050000000  0.5044310000000 1.0
C      1  0.5234640000000  0.5515590000000  0.5055770000000 1.0
C      1  0.4600030000000  0.4293690000000  0.4984270000000 1.0
C      1  0.5418610000000  0.4273400000000  0.4893700000000 1.0
C      1  0.4932320000000  0.5502300000000  0.4164670000000 1.0
C      1  0.4864130000000  0.5234440000000  0.5707940000000 1.0
C      1  0.5159200000000  0.6141290000000  0.5004370000000 1.0
C      1  0.4951980000000  0.5333600000000  0.5037640000000 1.0
C      1  0.5071380000000  0.4706300000000  0.5071780000000 1.0
C      1  0.5082790000000  0.3636060000000  0.5169780000000 1.0
C      1  0.5053340000000  0.4095520000000  0.4839050000000 1.0
C      1  0.5096620000000  0.3420220000000  0.5325150000000 1.0
C      1  0.4864870000000  0.5665910000000  0.5059850000000 1.0
C      1  0.5525300000000  0.6843570000000  0.4899240000000 1.0
C      1  0.5645390000000  0.7073940000000  0.4864760000000 1.0
C      1  0.5124060000000  0.2991960000000  0.5633420000000 1.0
C      1  0.5069080000000  0.3849960000000  0.5015810000000 1.0
C      1  0.5038130000000  0.5909060000000  0.5039130000000 1.0
C      1  0.5403270000000  0.6609470000000  0.4934280000000 1.0
C      1  0.5281230000000  0.6375380000000  0.4969330000000 1.0
C      1  0.5110450000000  0.3204370000000  0.5480520000000 1.0
C      1  0.5008230000000  0.5029200000000  0.5008380000000 1.0
C      1  0.5041650000000  0.4376510000000  0.4972840000000 1.0
END
