TITL C-2782239-8622-1341 -8.52339852470925e-05 125000 -558.133289902884 0 0 95 (C1) n - 1
REM
REM in /home/nfs/bkarasulu/CARBON/AIRSS/Generating-Clusters/REBO/Higher-Symm/SD-CG/HFTN-CG
REM
REM
REM
REM
REM
REM ./C.cell (12c818d87b63d06a65506943cc24bca4)
REM
REM compiler GCC version 9.2.1 20190827 (Red Hat 9.2.1-1)
REM options -cpp -mtune=generic -march=x86-64 -g -O0 -fpre-include=/usr/include/finclude/math-vector-fortran.h
REM seed 410853084 351314621 15368727 -1777476461 -1942308583 -1672704420 1006957918 86501898 835042197 -937012885 39426638 524144581 -1383331021 1229477960 1436941022 1765631590 2051753064 1802443608 -1856794130 -1756493920 -1713994135 -835551980 1252083809 -100589617 1966396526 291088845 -1035707302 -1299155942 2082986758 1463497288 2065010844 -1887557140 1363955982
REM
CELL 1.54180   50.00000   50.00000   50.00000   90.00000   90.00000   90.00000
LATT -1
SFAC C  
C      1  0.4753420000000  0.4241000000000  0.5309630000000 1.0
C      1  0.4793930000000  0.4503290000000  0.4389080000000 1.0
C      1  0.4735610000000  0.5452240000000  0.4289190000000 1.0
C      1  0.4740410000000  0.5813230000000  0.5208010000000 1.0
C      1  0.4737590000000  0.5057690000000  0.5841260000000 1.0
C      1  0.5259130000000  0.4233800000000  0.5314740000000 1.0
C      1  0.5292660000000  0.4487540000000  0.4348130000000 1.0
C      1  0.5242810000000  0.5456680000000  0.4287370000000 1.0
C      1  0.5246120000000  0.5807860000000  0.5205860000000 1.0
C      1  0.5243420000000  0.5054870000000  0.5838390000000 1.0
C      1  0.5870030000000  0.5280830000000  0.5037940000000 1.0
C      1  0.5871030000000  0.5042790000000  0.5283400000000 1.0
C      1  0.5878180000000  0.4734920000000  0.5135770000000 1.0
C      1  0.5880460000000  0.4788910000000  0.4799300000000 1.0
C      1  0.5866230000000  0.5123220000000  0.4734180000000 1.0
C      1  0.4109260000000  0.5293250000000  0.5044290000000 1.0
C      1  0.4107660000000  0.5056920000000  0.5291810000000 1.0
C      1  0.4104540000000  0.4748980000000  0.5142880000000 1.0
C      1  0.4102210000000  0.4799090000000  0.4804160000000 1.0
C      1  0.4106840000000  0.5135330000000  0.4740760000000 1.0
C      1  0.4735010000000  0.5244750000000  0.4901630000000 1.0
C      1  0.4735690000000  0.5168840000000  0.5202490000000 1.0
C      1  0.4736910000000  0.4858450000000  0.5225990000000 1.0
C      1  0.4728870000000  0.4737490000000  0.4936580000000 1.0
C      1  0.4734070000000  0.4981870000000  0.4735670000000 1.0
C      1  0.5243360000000  0.5229680000000  0.4891860000000 1.0
C      1  0.5242420000000  0.5154010000000  0.5195650000000 1.0
C      1  0.5247000000000  0.4838680000000  0.5210850000000 1.0
C      1  0.5237170000000  0.4717820000000  0.4918930000000 1.0
C      1  0.5248110000000  0.4963970000000  0.4725550000000 1.0
C      1  0.4801440000000  0.4491030000000  0.4808150000000 1.0
C      1  0.4859210000000  0.4979990000000  0.4477410000000 1.0
C      1  0.4860910000000  0.5487150000000  0.4822390000000 1.0
C      1  0.4861380000000  0.5315890000000  0.5410590000000 1.0
C      1  0.4861210000000  0.4707870000000  0.5433650000000 1.0
C      1  0.5101500000000  0.4479970000000  0.4806130000000 1.0
C      1  0.5124540000000  0.4970690000000  0.4468850000000 1.0
C      1  0.5125090000000  0.5478810000000  0.4817280000000 1.0
C      1  0.5125230000000  0.5309400000000  0.5405730000000 1.0
C      1  0.5125050000000  0.4699860000000  0.5429160000000 1.0
C      1  0.5310170000000  0.5702100000000  0.4742180000000 1.0
C      1  0.5311750000000  0.5456670000000  0.5586760000000 1.0
C      1  0.5314590000000  0.4584590000000  0.5629750000000 1.0
C      1  0.5341070000000  0.4272210000000  0.4791650000000 1.0
C      1  0.5314030000000  0.4987300000000  0.4234110000000 1.0
C      1  0.4675000000000  0.5708610000000  0.4743760000000 1.0
C      1  0.4676400000000  0.5464330000000  0.5593680000000 1.0
C      1  0.4674220000000  0.4584940000000  0.5629960000000 1.0
C      1  0.4659510000000  0.4190230000000  0.4808210000000 1.0
C      1  0.4680510000000  0.4978370000000  0.4238110000000 1.0
C      1  0.4421140000000  0.4722830000000  0.5025870000000 1.0
C      1  0.4422490000000  0.4896460000000  0.4738160000000 1.0
C      1  0.4426590000000  0.5221960000000  0.4817830000000 1.0
C      1  0.4427410000000  0.5246060000000  0.5154580000000 1.0
C      1  0.4425140000000  0.4934040000000  0.5284320000000 1.0
C      1  0.5560760000000  0.4691960000000  0.5014960000000 1.0
C      1  0.5556930000000  0.4872170000000  0.4735160000000 1.0
C      1  0.5553160000000  0.5203500000000  0.4812550000000 1.0
C      1  0.5551080000000  0.5230510000000  0.5144720000000 1.0
C      1  0.5554090000000  0.4917900000000  0.5269400000000 1.0
C      1  0.4254040000000  0.4550780000000  0.4646310000000 1.0
C      1  0.4276560000000  0.5209790000000  0.4453120000000 1.0
C      1  0.4276720000000  0.5591020000000  0.5034310000000 1.0
C      1  0.4274110000000  0.5157500000000  0.5572920000000 1.0
C      1  0.4272400000000  0.4512760000000  0.5324960000000 1.0
C      1  0.5738110000000  0.4535380000000  0.4623040000000 1.0
C      1  0.5704900000000  0.5217830000000  0.4448130000000 1.0
C      1  0.5703280000000  0.5578780000000  0.5033790000000 1.0
C      1  0.5701250000000  0.5138610000000  0.5563630000000 1.0
C      1  0.5716150000000  0.4505060000000  0.5328460000000 1.0
C      1  0.4546580000000  0.4424410000000  0.4588280000000 1.0
C      1  0.4525210000000  0.5234200000000  0.4293910000000 1.0
C      1  0.4529020000000  0.5739670000000  0.5006920000000 1.0
C      1  0.4527120000000  0.5226540000000  0.5706610000000 1.0
C      1  0.4527570000000  0.4406440000000  0.5431480000000 1.0
C      1  0.5498220000000  0.4388100000000  0.4559600000000 1.0
C      1  0.5454580000000  0.5244680000000  0.4295460000000 1.0
C      1  0.5455100000000  0.5731600000000  0.5004900000000 1.0
C      1  0.5455240000000  0.5217400000000  0.5700990000000 1.0
C      1  0.5467690000000  0.4405470000000  0.5440130000000 1.0
C      1  0.4853510000000  0.4709190000000  0.4185080000000 1.0
C      1  0.4832260000000  0.5674980000000  0.4472020000000 1.0
C      1  0.4836700000000  0.5708350000000  0.5475360000000 1.0
C      1  0.4832080000000  0.4769750000000  0.5826680000000 1.0
C      1  0.4859170000000  0.4160280000000  0.5037030000000 1.0
C      1  0.5175740000000  0.4712490000000  0.4169570000000 1.0
C      1  0.5148790000000  0.5675760000000  0.4471620000000 1.0
C      1  0.5152310000000  0.5701840000000  0.5472220000000 1.0
C      1  0.5149030000000  0.4769350000000  0.5821390000000 1.0
C      1  0.5173070000000  0.4162250000000  0.5035820000000 1.0
C      1  0.4992250000000  0.5201430000000  0.5901030000000 1.0
C      1  0.4990000000000  0.5375490000000  0.4152530000000 1.0
C      1  0.4994210000000  0.5915340000000  0.5089280000000 1.0
C      1  0.5004860000000  0.4227900000000  0.5468830000000 1.0
C      1  0.5044370000000  0.4424200000000  0.4498170000000 1.0
END
