TITL C-2782232-2968-1305 0.000929653247207463 125000 -1130.17345068477 0 0 196 (C1) n - 1
REM
REM in /home/nfs/bkarasulu/CARBON/AIRSS/Generating-Clusters/REBO/Higher-Symm/SD-CG/HFTN-CG
REM
REM
REM
REM
REM
REM ./C.cell (12c818d87b63d06a65506943cc24bca4)
REM
REM compiler GCC version 9.2.1 20190827 (Red Hat 9.2.1-1)
REM options -cpp -mtune=generic -march=x86-64 -g -O0 -fpre-include=/usr/include/finclude/math-vector-fortran.h
REM seed -218104754 795109593 -504103456 -1913339262 -1101565388 -2100152109 -323721227 589289585 945262686 -928938417 -55347389 1008674844 -1087512191 -2015144417 560679324 -751278261 -78150984 -419222598 979949317 -1664309166 -505866707 951589307 1492035363 -229414745 -1037713973 -1536019575 -614491275 1714155467 1457657543 1830022503 689818399 -1126781708 1228138943
REM
CELL 1.54180   50.00000   50.00000   50.00000   90.00000   90.00000   90.00000
LATT -1
SFAC C  
C      1  0.4135280000000  0.4834030000000  0.4521780000000 1.0
C      1  0.4651280000000  0.4545590000000  0.3996320000000 1.0
C      1  0.4637230000000  0.4009920000000  0.4877860000000 1.0
C      1  0.6007940000000  0.4556350000000  0.5326650000000 1.0
C      1  0.5998670000000  0.5519890000000  0.4539440000000 1.0
C      1  0.4058590000000  0.5147320000000  0.5343270000000 1.0
C      1  0.5182040000000  0.4545530000000  0.5936850000000 1.0
C      1  0.5181530000000  0.5799430000000  0.4097600000000 1.0
C      1  0.4941730000000  0.6095830000000  0.6078970000000 1.0
C      1  0.5496760000000  0.3954850000000  0.5102060000000 1.0
C      1  0.5479570000000  0.6009370000000  0.4894250000000 1.0
C      1  0.4528950000000  0.5923130000000  0.5132040000000 1.0
C      1  0.4804150000000  0.4974900000000  0.4689350000000 1.0
C      1  0.5000520000000  0.4711770000000  0.4783030000000 1.0
C      1  0.4690340000000  0.4762890000000  0.4919290000000 1.0
C      1  0.5219740000000  0.4977220000000  0.5335400000000 1.0
C      1  0.5221890000000  0.5044990000000  0.4676770000000 1.0
C      1  0.4824030000000  0.5011610000000  0.5299700000000 1.0
C      1  0.5055680000000  0.4690120000000  0.5250840000000 1.0
C      1  0.5017010000000  0.5286960000000  0.4806030000000 1.0
C      1  0.4995230000000  0.5286890000000  0.5221100000000 1.0
C      1  0.5337240000000  0.4784060000000  0.5088930000000 1.0
C      1  0.5291550000000  0.5175820000000  0.4977660000000 1.0
C      1  0.4711960000000  0.5198630000000  0.5048850000000 1.0
C      1  0.4122790000000  0.4953170000000  0.5616150000000 1.0
C      1  0.4871350000000  0.5826040000000  0.4160610000000 1.0
C      1  0.5584130000000  0.4101520000000  0.4837830000000 1.0
C      1  0.5642400000000  0.4655260000000  0.4236240000000 1.0
C      1  0.5701170000000  0.5148830000000  0.5705120000000 1.0
C      1  0.4253550000000  0.5087910000000  0.4348510000000 1.0
C      1  0.4972320000000  0.5886220000000  0.5865320000000 1.0
C      1  0.4918270000000  0.4358180000000  0.4098280000000 1.0
C      1  0.4915210000000  0.4382890000000  0.5909850000000 1.0
C      1  0.4410490000000  0.4024270000000  0.5134990000000 1.0
C      1  0.4266530000000  0.5691240000000  0.4799450000000 1.0
C      1  0.5705670000000  0.5983790000000  0.5149150000000 1.0
C      1  0.4757050000000  0.5866280000000  0.5657440000000 1.0
C      1  0.5821790000000  0.5777250000000  0.4930360000000 1.0
C      1  0.5695730000000  0.5261470000000  0.6025860000000 1.0
C      1  0.5016630000000  0.5899970000000  0.4447630000000 1.0
C      1  0.5007100000000  0.4181890000000  0.5675040000000 1.0
C      1  0.4909210000000  0.4142050000000  0.4360600000000 1.0
C      1  0.3998350000000  0.5572990000000  0.4972840000000 1.0
C      1  0.4270860000000  0.4165580000000  0.4885850000000 1.0
C      1  0.5888940000000  0.4229970000000  0.4877910000000 1.0
C      1  0.4420750000000  0.5009090000000  0.4076410000000 1.0
C      1  0.4283260000000  0.5159800000000  0.5819170000000 1.0
C      1  0.5636990000000  0.4954000000000  0.4150500000000 1.0
C      1  0.4951140000000  0.5073770000000  0.6022040000000 1.0
C      1  0.5151430000000  0.6042480000000  0.4982720000000 1.0
C      1  0.6090630000000  0.4788780000000  0.5084100000000 1.0
C      1  0.5230590000000  0.5204940000000  0.3973660000000 1.0
C      1  0.5183970000000  0.4855020000000  0.6040410000000 1.0
C      1  0.4991760000000  0.5086330000000  0.3908890000000 1.0
C      1  0.4843620000000  0.6024230000000  0.5107140000000 1.0
C      1  0.4951460000000  0.3934220000000  0.5000340000000 1.0
C      1  0.5213200000000  0.3903540000000  0.5195080000000 1.0
C      1  0.4001560000000  0.4788910000000  0.4786980000000 1.0
C      1  0.3996980000000  0.5003540000000  0.5037330000000 1.0
C      1  0.6089190000000  0.5068030000000  0.4988350000000 1.0
C      1  0.6282020000000  0.4512530000000  0.5045610000000 1.0
C      1  0.4669930000000  0.5159230000000  0.6170080000000 1.0
C      1  0.5219910000000  0.6292020000000  0.4787900000000 1.0
C      1  0.3882320000000  0.4486960000000  0.4813800000000 1.0
C      1  0.3718070000000  0.5163680000000  0.5137050000000 1.0
C      1  0.6159560000000  0.5353140000000  0.4956490000000 1.0
C      1  0.5461550000000  0.5259880000000  0.3817610000000 1.0
C      1  0.5397890000000  0.4933680000000  0.6247030000000 1.0
C      1  0.4778860000000  0.4946260000000  0.3760610000000 1.0
C      1  0.4711890000000  0.6218240000000  0.5328380000000 1.0
C      1  0.4909240000000  0.3766380000000  0.4722380000000 1.0
C      1  0.5210280000000  0.3784590000000  0.5490060000000 1.0
C      1  0.4308280000000  0.5290720000000  0.5510670000000 1.0
C      1  0.5350780000000  0.5725510000000  0.4268000000000 1.0
C      1  0.5701660000000  0.4134570000000  0.5218070000000 1.0
C      1  0.5812410000000  0.5370940000000  0.4415430000000 1.0
C      1  0.5860960000000  0.4613750000000  0.5544120000000 1.0
C      1  0.4356800000000  0.4703090000000  0.4370530000000 1.0
C      1  0.4915790000000  0.6273620000000  0.6260190000000 1.0
C      1  0.4536260000000  0.4383640000000  0.4212380000000 1.0
C      1  0.5389450000000  0.4483950000000  0.5732840000000 1.0
C      1  0.4521390000000  0.4256850000000  0.4673160000000 1.0
C      1  0.4354140000000  0.5756440000000  0.5183720000000 1.0
C      1  0.5576210000000  0.5765450000000  0.4692430000000 1.0
C      1  0.5040220000000  0.5792360000000  0.4829450000000 1.0
C      1  0.5845420000000  0.4616180000000  0.4970380000000 1.0
C      1  0.4706340000000  0.4970930000000  0.5820790000000 1.0
C      1  0.4989110000000  0.5777530000000  0.5234210000000 1.0
C      1  0.4974430000000  0.4222490000000  0.4874730000000 1.0
C      1  0.5073610000000  0.4168050000000  0.5300160000000 1.0
C      1  0.4193260000000  0.4657940000000  0.4997800000000 1.0
C      1  0.4210200000000  0.5236900000000  0.4984710000000 1.0
C      1  0.5784430000000  0.5215200000000  0.4951310000000 1.0
C      1  0.5300150000000  0.5122360000000  0.4281460000000 1.0
C      1  0.5284820000000  0.4867890000000  0.5724750000000 1.0
C      1  0.4808280000000  0.5048420000000  0.4154750000000 1.0
C      1  0.5383260000000  0.5247810000000  0.5777880000000 1.0
C      1  0.5442420000000  0.5599560000000  0.5283680000000 1.0
C      1  0.5637760000000  0.5421800000000  0.5260350000000 1.0
C      1  0.4588380000000  0.5411390000000  0.4460050000000 1.0
C      1  0.4594700000000  0.4665860000000  0.5589400000000 1.0
C      1  0.5344750000000  0.4630640000000  0.4370280000000 1.0
C      1  0.4839340000000  0.5561310000000  0.4572660000000 1.0
C      1  0.4652660000000  0.4418780000000  0.5389330000000 1.0
C      1  0.5323060000000  0.4437070000000  0.4576530000000 1.0
C      1  0.4389190000000  0.5401160000000  0.4670140000000 1.0
C      1  0.4395090000000  0.4608860000000  0.5335450000000 1.0
C      1  0.5562500000000  0.4430600000000  0.4767690000000 1.0
C      1  0.5319340000000  0.4834370000000  0.4090830000000 1.0
C      1  0.4782220000000  0.4146570000000  0.5447880000000 1.0
C      1  0.4052520000000  0.5370810000000  0.4710080000000 1.0
C      1  0.4517620000000  0.4713030000000  0.5903700000000 1.0
C      1  0.4588750000000  0.5294120000000  0.4159630000000 1.0
C      1  0.5127900000000  0.5322900000000  0.5942580000000 1.0
C      1  0.5113930000000  0.4198100000000  0.4595270000000 1.0
C      1  0.5277460000000  0.5845390000000  0.5330890000000 1.0
C      1  0.4766040000000  0.5876440000000  0.4664670000000 1.0
C      1  0.5897810000000  0.5252790000000  0.5276870000000 1.0
C      1  0.5882560000000  0.4475370000000  0.4661400000000 1.0
C      1  0.4062970000000  0.4564270000000  0.5274030000000 1.0
C      1  0.5157960000000  0.3927350000000  0.5695050000000 1.0
C      1  0.3901410000000  0.5409670000000  0.5190270000000 1.0
C      1  0.5691090000000  0.5128490000000  0.3899240000000 1.0
C      1  0.4753870000000  0.3957260000000  0.4551760000000 1.0
C      1  0.4648470000000  0.6100530000000  0.5567600000000 1.0
C      1  0.5285790000000  0.6031910000000  0.4608630000000 1.0
C      1  0.6056550000000  0.5577190000000  0.4812730000000 1.0
C      1  0.6053210000000  0.4302320000000  0.5104630000000 1.0
C      1  0.3977440000000  0.4257810000000  0.4840540000000 1.0
C      1  0.4433010000000  0.5174830000000  0.6036630000000 1.0
C      1  0.4579470000000  0.4815040000000  0.3924430000000 1.0
C      1  0.5596490000000  0.5116550000000  0.6225560000000 1.0
C      1  0.5087870000000  0.4688160000000  0.5575230000000 1.0
C      1  0.4666620000000  0.5508860000000  0.5177130000000 1.0
C      1  0.5559900000000  0.5022310000000  0.4711810000000 1.0
C      1  0.4875900000000  0.4646040000000  0.4476730000000 1.0
C      1  0.4871860000000  0.5331690000000  0.5533730000000 1.0
C      1  0.5106810000000  0.5378050000000  0.4487490000000 1.0
C      1  0.5352850000000  0.5489520000000  0.4873480000000 1.0
C      1  0.5377090000000  0.4470740000000  0.5169350000000 1.0
C      1  0.4749650000000  0.4444270000000  0.4939030000000 1.0
C      1  0.4493530000000  0.5013100000000  0.5324940000000 1.0
C      1  0.4489380000000  0.5024190000000  0.4565600000000 1.0
C      1  0.5534940000000  0.4949970000000  0.5424600000000 1.0
C      1  0.4673870000000  0.4543530000000  0.6080670000000 1.0
C      1  0.4493790000000  0.5934630000000  0.4735830000000 1.0
C      1  0.5893210000000  0.4490760000000  0.4371960000000 1.0
C      1  0.5160930000000  0.4583180000000  0.4018640000000 1.0
C      1  0.5099900000000  0.5596280000000  0.5925720000000 1.0
C      1  0.4681970000000  0.5565280000000  0.4051480000000 1.0
C      1  0.5414330000000  0.6078720000000  0.5281370000000 1.0
C      1  0.5395290000000  0.4044010000000  0.4591000000000 1.0
C      1  0.4611610000000  0.3931550000000  0.5369470000000 1.0
C      1  0.3972230000000  0.4666200000000  0.5537970000000 1.0
C      1  0.4102940000000  0.5340650000000  0.4398250000000 1.0
C      1  0.5926470000000  0.5113750000000  0.5505700000000 1.0
C      1  0.5626960000000  0.5479150000000  0.5771820000000 1.0
C      1  0.5286460000000  0.5803900000000  0.5761110000000 1.0
C      1  0.5688310000000  0.5857070000000  0.5465310000000 1.0
C      1  0.4128670000000  0.5563220000000  0.4244440000000 1.0
C      1  0.4227720000000  0.4646930000000  0.5740120000000 1.0
C      1  0.5715150000000  0.4349880000000  0.4137050000000 1.0
C      1  0.4530790000000  0.5821920000000  0.4159920000000 1.0
C      1  0.4611500000000  0.4304540000000  0.5772550000000 1.0
C      1  0.5248300000000  0.4280770000000  0.4048100000000 1.0
C      1  0.4246140000000  0.5911290000000  0.4542010000000 1.0
C      1  0.4320030000000  0.4198960000000  0.5415490000000 1.0
C      1  0.5485100000000  0.3981850000000  0.4341090000000 1.0
C      1  0.5139150000000  0.5148820000000  0.5583380000000 1.0
C      1  0.5160440000000  0.5516550000000  0.5139500000000 1.0
C      1  0.5541820000000  0.5121610000000  0.5152740000000 1.0
C      1  0.4838120000000  0.5181860000000  0.4451390000000 1.0
C      1  0.4836420000000  0.4846940000000  0.5545360000000 1.0
C      1  0.5132040000000  0.4867740000000  0.4439700000000 1.0
C      1  0.4836260000000  0.5549760000000  0.4911020000000 1.0
C      1  0.4907710000000  0.4437950000000  0.5204900000000 1.0
C      1  0.5184240000000  0.4474900000000  0.4888510000000 1.0
C      1  0.4492550000000  0.5152600000000  0.4864810000000 1.0
C      1  0.4456420000000  0.4819670000000  0.5083040000000 1.0
C      1  0.5558750000000  0.4755190000000  0.4879340000000 1.0
C      1  0.5672010000000  0.5480500000000  0.4854480000000 1.0
C      1  0.5589580000000  0.4729670000000  0.5651680000000 1.0
C      1  0.4800320000000  0.5643330000000  0.5452150000000 1.0
C      1  0.4336650000000  0.5429010000000  0.5215850000000 1.0
C      1  0.4414530000000  0.4460400000000  0.4912950000000 1.0
C      1  0.5670640000000  0.4403500000000  0.5162490000000 1.0
C      1  0.4661780000000  0.4831670000000  0.4344770000000 1.0
C      1  0.4616020000000  0.5175740000000  0.5598470000000 1.0
C      1  0.5608540000000  0.5143820000000  0.4415940000000 1.0
C      1  0.5260980000000  0.5667120000000  0.4593080000000 1.0
C      1  0.5235490000000  0.4394620000000  0.5460270000000 1.0
C      1  0.4641820000000  0.4417420000000  0.4461040000000 1.0
C      1  0.4363450000000  0.4346360000000  0.5653520000000 1.0
C      1  0.5494180000000  0.4170030000000  0.4127300000000 1.0
C      1  0.4275860000000  0.5805170000000  0.4279740000000 1.0
C      1  0.5540860000000  0.5741490000000  0.5668370000000 1.0
END
