TITL C-2782229-3092-251 -0.00136808066802402 125000 -431.268760391636 0 0 79 (C1) n - 1
REM
REM in /home/nfs/bkarasulu/CARBON/AIRSS/Generating-Clusters/REBO/Higher-Symm/SD-CG/HFTN-CG
REM
REM
REM
REM
REM
REM ./C.cell (12c818d87b63d06a65506943cc24bca4)
REM
REM compiler GCC version 9.2.1 20190827 (Red Hat 9.2.1-1)
REM options -cpp -mtune=generic -march=x86-64 -g -O0 -fpre-include=/usr/include/finclude/math-vector-fortran.h
REM seed 739285112 -2035868288 -423103834 2116659556 -1818300425 -1407484340 633956305 -1248121823 155476185 -692350098 -544945574 -1260159060 1351067431 1449088830 -1381277895 -355723051 -129732907 -1897205827 -922487166 -977745661 197262206 348999020 202196281 518830301 1897393439 -1355810121 1990420097 -1196688467 -71296887 -2043052336 1087836598 -1090709625 -762852678
REM
CELL 1.54180   50.00000   50.00000   50.00000   90.00000   90.00000   90.00000
LATT -1
SFAC C  
C      1  0.5254000000000  0.4649660000000  0.4478050000000 1.0
C      1  0.4645580000000  0.4481660000000  0.5251870000000 1.0
C      1  0.4480740000000  0.5257850000000  0.4645790000000 1.0
C      1  0.4754360000000  0.5366500000000  0.4485710000000 1.0
C      1  0.5246070000000  0.5364060000000  0.5514570000000 1.0
C      1  0.4751860000000  0.4652590000000  0.5523820000000 1.0
C      1  0.5366830000000  0.5525040000000  0.5245470000000 1.0
C      1  0.4642980000000  0.5529440000000  0.4762590000000 1.0
C      1  0.5361510000000  0.4484500000000  0.4751750000000 1.0
C      1  0.5527610000000  0.4755860000000  0.4642930000000 1.0
C      1  0.4476970000000  0.4751130000000  0.5356730000000 1.0
C      1  0.5524510000000  0.5252110000000  0.5357780000000 1.0
C      1  0.5206410000000  0.5212130000000  0.4242560000000 1.0
C      1  0.5206260000000  0.4250140000000  0.5207290000000 1.0
C      1  0.4245480000000  0.5206130000000  0.5201210000000 1.0
C      1  0.4798910000000  0.4805230000000  0.4243690000000 1.0
C      1  0.5199450000000  0.4825470000000  0.5759680000000 1.0
C      1  0.4780630000000  0.5220340000000  0.5752100000000 1.0
C      1  0.4805140000000  0.5763250000000  0.5217660000000 1.0
C      1  0.5200750000000  0.5763850000000  0.4797850000000 1.0
C      1  0.4801090000000  0.4248710000000  0.4796310000000 1.0
C      1  0.5764100000000  0.4799790000000  0.5204650000000 1.0
C      1  0.4244870000000  0.4800100000000  0.4790910000000 1.0
C      1  0.5763190000000  0.5209470000000  0.4798760000000 1.0
C      1  0.5108670000000  0.5147300000000  0.5694220000000 1.0
C      1  0.5127070000000  0.5699260000000  0.5126530000000 1.0
C      1  0.5699740000000  0.5126950000000  0.5122960000000 1.0
C      1  0.4870760000000  0.4897000000000  0.5692230000000 1.0
C      1  0.5126590000000  0.4887220000000  0.4305660000000 1.0
C      1  0.4879710000000  0.5129590000000  0.4309130000000 1.0
C      1  0.4881830000000  0.4311190000000  0.5124410000000 1.0
C      1  0.5125060000000  0.4312640000000  0.4879190000000 1.0
C      1  0.4877760000000  0.5702200000000  0.4887870000000 1.0
C      1  0.4307610000000  0.4878130000000  0.5116140000000 1.0
C      1  0.5700400000000  0.4881520000000  0.4880100000000 1.0
C      1  0.4307990000000  0.5126560000000  0.4876590000000 1.0
C      1  0.4525970000000  0.4368910000000  0.4960550000000 1.0
C      1  0.4370410000000  0.4967280000000  0.4519640000000 1.0
C      1  0.4964740000000  0.4530490000000  0.4363100000000 1.0
C      1  0.5480680000000  0.5645590000000  0.4956410000000 1.0
C      1  0.4525530000000  0.5642990000000  0.5060960000000 1.0
C      1  0.5480760000000  0.4371430000000  0.5042680000000 1.0
C      1  0.5642750000000  0.5044930000000  0.4523930000000 1.0
C      1  0.4359230000000  0.5035830000000  0.5474700000000 1.0
C      1  0.5641970000000  0.4964180000000  0.5479330000000 1.0
C      1  0.5042970000000  0.5485290000000  0.4368770000000 1.0
C      1  0.4997120000000  0.5518330000000  0.5597330000000 1.0
C      1  0.5043490000000  0.4542970000000  0.5646030000000 1.0
C      1  0.4463390000000  0.4431930000000  0.4673800000000 1.0
C      1  0.4431000000000  0.4679550000000  0.4458320000000 1.0
C      1  0.4679090000000  0.4465620000000  0.4426610000000 1.0
C      1  0.5545720000000  0.5579660000000  0.4672130000000 1.0
C      1  0.4476980000000  0.5573870000000  0.5355400000000 1.0
C      1  0.5541650000000  0.4429210000000  0.5331090000000 1.0
C      1  0.5579920000000  0.5330810000000  0.4459080000000 1.0
C      1  0.4413790000000  0.5319850000000  0.5545550000000 1.0
C      1  0.5579960000000  0.4677560000000  0.5542740000000 1.0
C      1  0.5332020000000  0.5545520000000  0.4424080000000 1.0
C      1  0.4674230000000  0.5519180000000  0.5628190000000 1.0
C      1  0.5326190000000  0.4468690000000  0.5578950000000 1.0
C      1  0.4570900000000  0.5221720000000  0.5191790000000 1.0
C      1  0.5221890000000  0.5189240000000  0.4566810000000 1.0
C      1  0.5187180000000  0.4575020000000  0.5219600000000 1.0
C      1  0.5439680000000  0.4787260000000  0.5185180000000 1.0
C      1  0.4569710000000  0.4790200000000  0.4816060000000 1.0
C      1  0.5438460000000  0.5222600000000  0.4816430000000 1.0
C      1  0.4787670000000  0.4822810000000  0.4568170000000 1.0
C      1  0.5225490000000  0.4827290000000  0.5435170000000 1.0
C      1  0.4796730000000  0.5194130000000  0.5432240000000 1.0
C      1  0.4826850000000  0.5438410000000  0.5219470000000 1.0
C      1  0.5188200000000  0.5439370000000  0.4781610000000 1.0
C      1  0.4819690000000  0.4573410000000  0.4785060000000 1.0
C      1  0.5002550000000  0.4672590000000  0.5003040000000 1.0
C      1  0.5005530000000  0.5340030000000  0.4999370000000 1.0
C      1  0.5007870000000  0.5008020000000  0.5333330000000 1.0
C      1  0.5339380000000  0.5004650000000  0.5000150000000 1.0
C      1  0.5005270000000  0.5005400000000  0.4667770000000 1.0
C      1  0.4669200000000  0.5006030000000  0.5002920000000 1.0
C      1  0.5004830000000  0.5005880000000  0.5000460000000 1.0
END
