TITL C-2782232-2968-933 -5.98139591741302e-05 125000 -240.97965390471 0 0 45 (C2v) n - 1
REM
REM in /home/nfs/bkarasulu/CARBON/AIRSS/Generating-Clusters/REBO/Higher-Symm/SD-CG/HFTN-CG
REM
REM
REM
REM
REM
REM ./C.cell (12c818d87b63d06a65506943cc24bca4)
REM
REM compiler GCC version 9.2.1 20190827 (Red Hat 9.2.1-1)
REM options -cpp -mtune=generic -march=x86-64 -g -O0 -fpre-include=/usr/include/finclude/math-vector-fortran.h
REM seed 1892843436 -1707325877 164406112 -1517526866 1556021417 -583270834 499325156 159858316 -42973129 207502072 -472158102 -72170754 -2015451904 986256676 -393634046 -157334178 -145318436 -1791040938 -2090807624 -1786025776 502790288 -1551093050 -1252611902 93568773 -1270019772 714605887 419904076 -537147964 1191658635 -1446309864 -1587237010 1606284046 -980326390
REM
CELL 1.54180   50.00000   50.00000   50.00000   90.00000   90.00000   90.00000
LATT -1
SFAC C  
C      1  0.4440710000000  0.5460840000000  0.4868030000000 1.0
C      1  0.4852890000000  0.4437430000000  0.5431880000000 1.0
C      1  0.5372050000000  0.4875410000000  0.4560050000000 1.0
C      1  0.5540920000000  0.5528620000000  0.5121300000000 1.0
C      1  0.4440770000000  0.4536040000000  0.5121480000000 1.0
C      1  0.5540970000000  0.4468370000000  0.4868150000000 1.0
C      1  0.5103780000000  0.4428740000000  0.4567720000000 1.0
C      1  0.4852810000000  0.5559490000000  0.4557600000000 1.0
C      1  0.5103740000000  0.5568210000000  0.5421750000000 1.0
C      1  0.4506220000000  0.4871360000000  0.5517750000000 1.0
C      1  0.5372060000000  0.5121570000000  0.5429400000000 1.0
C      1  0.4506180000000  0.5125520000000  0.4471760000000 1.0
C      1  0.4440760000000  0.4536040000000  0.4868040000000 1.0
C      1  0.4852830000000  0.5559500000000  0.5431870000000 1.0
C      1  0.5372040000000  0.5121560000000  0.4560050000000 1.0
C      1  0.5540980000000  0.4468380000000  0.5121310000000 1.0
C      1  0.4440720000000  0.5460840000000  0.5121470000000 1.0
C      1  0.5540920000000  0.5528620000000  0.4868140000000 1.0
C      1  0.5103710000000  0.5568200000000  0.4567710000000 1.0
C      1  0.4852870000000  0.4437420000000  0.4557610000000 1.0
C      1  0.5103800000000  0.4428750000000  0.5421770000000 1.0
C      1  0.4506210000000  0.5125530000000  0.5517740000000 1.0
C      1  0.5372070000000  0.4875420000000  0.5429410000000 1.0
C      1  0.4506190000000  0.4871350000000  0.4471760000000 1.0
C      1  0.5172640000000  0.4718390000000  0.4994740000000 1.0
C      1  0.4872340000000  0.5316380000000  0.4994740000000 1.0
C      1  0.4955570000000  0.4873160000000  0.4576190000000 1.0
C      1  0.4655280000000  0.4998450000000  0.4862610000000 1.0
C      1  0.4872380000000  0.4680540000000  0.4994740000000 1.0
C      1  0.4955590000000  0.4873170000000  0.5413300000000 1.0
C      1  0.4955580000000  0.5123770000000  0.5413290000000 1.0
C      1  0.4955550000000  0.5123760000000  0.4576180000000 1.0
C      1  0.5623240000000  0.4998500000000  0.5143890000000 1.0
C      1  0.4655280000000  0.4998450000000  0.5126890000000 1.0
C      1  0.5623230000000  0.4998500000000  0.4845550000000 1.0
C      1  0.5172600000000  0.5278570000000  0.4994730000000 1.0
C      1  0.4687750000000  0.5302160000000  0.4701850000000 1.0
C      1  0.4687800000000  0.4694750000000  0.5287640000000 1.0
C      1  0.5304650000000  0.4611810000000  0.4714610000000 1.0
C      1  0.5304620000000  0.5385160000000  0.5274850000000 1.0
C      1  0.4687770000000  0.5302160000000  0.5287630000000 1.0
C      1  0.5304670000000  0.4611820000000  0.5274860000000 1.0
C      1  0.5304610000000  0.5385150000000  0.4714600000000 1.0
C      1  0.4687790000000  0.4694740000000  0.4701860000000 1.0
C      1  0.5313520000000  0.4998490000000  0.4994730000000 1.0
END
