TITL C-2782236-320-417 -0.0034977452166411 125000 -1018.63814078542 0 0 172 (C1) n - 1
REM
REM in /home/nfs/bkarasulu/CARBON/AIRSS/Generating-Clusters/REBO/Higher-Symm/SD-CG/HFTN-CG
REM
REM
REM
REM
REM
REM ./C.cell (12c818d87b63d06a65506943cc24bca4)
REM
REM compiler GCC version 9.2.1 20190827 (Red Hat 9.2.1-1)
REM options -cpp -mtune=generic -march=x86-64 -g -O0 -fpre-include=/usr/include/finclude/math-vector-fortran.h
REM seed -2072459634 -1118200168 1945519084 -1717742775 -77208705 654563170 2117752697 -1922832550 -1491708989 -739714250 2104765924 -625033058 -1137440415 1986401063 -1628582205 447872041 -1435864932 644758952 -386012769 1662294556 -744765069 2028597087 -1513229656 1863104215 1609197712 1692410931 -410530892 -619005522 252539813 2140308820 -469940286 801927942 1416452853
REM
CELL 1.54180   50.00000   50.00000   50.00000   90.00000   90.00000   90.00000
LATT -1
SFAC C  
C      1  0.4599040000000  0.4316500000000  0.5172860000000 1.0
C      1  0.4611170000000  0.4383430000000  0.4873580000000 1.0
C      1  0.4809960000000  0.4260410000000  0.4719830000000 1.0
C      1  0.5022880000000  0.4428560000000  0.4632070000000 1.0
C      1  0.5228910000000  0.4513630000000  0.4801030000000 1.0
C      1  0.5337140000000  0.4337900000000  0.4992560000000 1.0
C      1  0.5336890000000  0.4413350000000  0.5269390000000 1.0
C      1  0.5075450000000  0.4346400000000  0.5420730000000 1.0
C      1  0.4788240000000  0.4436150000000  0.5383470000000 1.0
C      1  0.4206840000000  0.5594550000000  0.5060760000000 1.0
C      1  0.4285000000000  0.5604370000000  0.4551690000000 1.0
C      1  0.4838940000000  0.5577260000000  0.4228290000000 1.0
C      1  0.5321110000000  0.5631160000000  0.4226350000000 1.0
C      1  0.5689520000000  0.5619480000000  0.4608650000000 1.0
C      1  0.5689990000000  0.5573440000000  0.5099890000000 1.0
C      1  0.5409360000000  0.5494530000000  0.5534210000000 1.0
C      1  0.4985260000000  0.5509080000000  0.5842950000000 1.0
C      1  0.4473050000000  0.5583960000000  0.5584810000000 1.0
C      1  0.5595580000000  0.5668670000000  0.4311080000000 1.0
C      1  0.5608130000000  0.5695330000000  0.4857730000000 1.0
C      1  0.5466420000000  0.5472570000000  0.5249690000000 1.0
C      1  0.5161210000000  0.5629890000000  0.5594540000000 1.0
C      1  0.4778670000000  0.5514650000000  0.5588240000000 1.0
C      1  0.4398050000000  0.5660700000000  0.5298970000000 1.0
C      1  0.4313420000000  0.5701980000000  0.4815770000000 1.0
C      1  0.4544850000000  0.5674290000000  0.4372560000000 1.0
C      1  0.5063900000000  0.5723530000000  0.4314490000000 1.0
C      1  0.4882930000000  0.3999140000000  0.5445510000000 1.0
C      1  0.4690110000000  0.4023030000000  0.5228210000000 1.0
C      1  0.4717810000000  0.3871320000000  0.4989070000000 1.0
C      1  0.4830870000000  0.3975090000000  0.4748560000000 1.0
C      1  0.5046810000000  0.3854750000000  0.4611560000000 1.0
C      1  0.5300980000000  0.3977680000000  0.4631400000000 1.0
C      1  0.5382170000000  0.4045570000000  0.4901160000000 1.0
C      1  0.5417380000000  0.4010970000000  0.5207270000000 1.0
C      1  0.5176320000000  0.4027760000000  0.5357200000000 1.0
C      1  0.5142540000000  0.4755420000000  0.5340420000000 1.0
C      1  0.4891740000000  0.4875300000000  0.5301600000000 1.0
C      1  0.4633180000000  0.4888170000000  0.5203000000000 1.0
C      1  0.4591970000000  0.5051050000000  0.4976870000000 1.0
C      1  0.4634940000000  0.4878920000000  0.4738990000000 1.0
C      1  0.4892760000000  0.4999070000000  0.4573410000000 1.0
C      1  0.5198740000000  0.5002110000000  0.4660830000000 1.0
C      1  0.5270110000000  0.4985320000000  0.4962480000000 1.0
C      1  0.5330100000000  0.4789560000000  0.5136620000000 1.0
C      1  0.5853210000000  0.4809810000000  0.5690070000000 1.0
C      1  0.5220190000000  0.4733470000000  0.6049270000000 1.0
C      1  0.4516010000000  0.4800130000000  0.5883950000000 1.0
C      1  0.4069870000000  0.4831330000000  0.5326620000000 1.0
C      1  0.3949980000000  0.4736690000000  0.4704830000000 1.0
C      1  0.4510200000000  0.4780020000000  0.4115180000000 1.0
C      1  0.5214970000000  0.4741880000000  0.3988350000000 1.0
C      1  0.5768050000000  0.4818240000000  0.4333000000000 1.0
C      1  0.6046280000000  0.4740670000000  0.4931480000000 1.0
C      1  0.4131010000000  0.5369730000000  0.4512330000000 1.0
C      1  0.4656710000000  0.5361640000000  0.4139740000000 1.0
C      1  0.5299570000000  0.5376320000000  0.4093740000000 1.0
C      1  0.5810400000000  0.5371400000000  0.4467010000000 1.0
C      1  0.5929550000000  0.5423200000000  0.5136100000000 1.0
C      1  0.5583100000000  0.5364980000000  0.5720300000000 1.0
C      1  0.5153810000000  0.5319930000000  0.6007960000000 1.0
C      1  0.4474210000000  0.5388550000000  0.5811230000000 1.0
C      1  0.4032570000000  0.5375360000000  0.5103170000000 1.0
C      1  0.4937480000000  0.6534620000000  0.4744220000000 1.0
C      1  0.5142230000000  0.6359360000000  0.4695580000000 1.0
C      1  0.5395970000000  0.6250920000000  0.4844250000000 1.0
C      1  0.5447820000000  0.6190300000000  0.5108590000000 1.0
C      1  0.5285840000000  0.6170010000000  0.5381850000000 1.0
C      1  0.5027840000000  0.6211380000000  0.5465220000000 1.0
C      1  0.4750600000000  0.6315180000000  0.5356060000000 1.0
C      1  0.4675520000000  0.6510950000000  0.5177770000000 1.0
C      1  0.4752340000000  0.6597170000000  0.4932060000000 1.0
C      1  0.4885200000000  0.4700610000000  0.5768670000000 1.0
C      1  0.4416500000000  0.4740900000000  0.5504520000000 1.0
C      1  0.4215980000000  0.4669050000000  0.4992870000000 1.0
C      1  0.4408540000000  0.4671000000000  0.4484420000000 1.0
C      1  0.4883250000000  0.4661490000000  0.4195060000000 1.0
C      1  0.5367560000000  0.4668520000000  0.4350140000000 1.0
C      1  0.5678420000000  0.4743950000000  0.4775910000000 1.0
C      1  0.5761040000000  0.4692160000000  0.5323650000000 1.0
C      1  0.5424300000000  0.4607530000000  0.5733460000000 1.0
C      1  0.5472390000000  0.4984880000000  0.4368010000000 1.0
C      1  0.5849410000000  0.5006270000000  0.4859180000000 1.0
C      1  0.5800200000000  0.4991780000000  0.5401240000000 1.0
C      1  0.5406270000000  0.4911300000000  0.5825130000000 1.0
C      1  0.4792930000000  0.4997400000000  0.5838110000000 1.0
C      1  0.4315920000000  0.5045290000000  0.5429390000000 1.0
C      1  0.4161710000000  0.4964360000000  0.4831750000000 1.0
C      1  0.4426820000000  0.4983630000000  0.4377830000000 1.0
C      1  0.5022330000000  0.4969180000000  0.4154070000000 1.0
C      1  0.3943460000000  0.4537160000000  0.5047960000000 1.0
C      1  0.4166270000000  0.4520150000000  0.4324550000000 1.0
C      1  0.4845340000000  0.4475190000000  0.3912490000000 1.0
C      1  0.5546740000000  0.4523380000000  0.4180790000000 1.0
C      1  0.5851990000000  0.4567820000000  0.4629920000000 1.0
C      1  0.6050960000000  0.4533920000000  0.5368980000000 1.0
C      1  0.5613160000000  0.4429560000000  0.5934380000000 1.0
C      1  0.4809130000000  0.4516120000000  0.6070400000000 1.0
C      1  0.4189370000000  0.4592870000000  0.5710300000000 1.0
C      1  0.5831810000000  0.4483560000000  0.4318420000000 1.0
C      1  0.6014210000000  0.4509130000000  0.5076350000000 1.0
C      1  0.5811790000000  0.4519800000000  0.5698690000000 1.0
C      1  0.5096690000000  0.4474040000000  0.6019400000000 1.0
C      1  0.4560700000000  0.4510910000000  0.5902840000000 1.0
C      1  0.4069420000000  0.4562370000000  0.5425640000000 1.0
C      1  0.4063390000000  0.4490520000000  0.4608060000000 1.0
C      1  0.4518970000000  0.4508000000000  0.4137490000000 1.0
C      1  0.5142930000000  0.4471180000000  0.3960060000000 1.0
C      1  0.4258580000000  0.5126290000000  0.4585680000000 1.0
C      1  0.4696620000000  0.5057910000000  0.4179690000000 1.0
C      1  0.5233580000000  0.5158460000000  0.4294670000000 1.0
C      1  0.5747600000000  0.5083010000000  0.4546460000000 1.0
C      1  0.5873020000000  0.5143590000000  0.5144740000000 1.0
C      1  0.5632010000000  0.5070390000000  0.5687800000000 1.0
C      1  0.5104770000000  0.5031590000000  0.5931110000000 1.0
C      1  0.4487220000000  0.5093930000000  0.5715040000000 1.0
C      1  0.4150880000000  0.5095860000000  0.5132690000000 1.0
C      1  0.4231680000000  0.4262830000000  0.5024490000000 1.0
C      1  0.4448910000000  0.4221550000000  0.4546190000000 1.0
C      1  0.4874620000000  0.4191910000000  0.4268050000000 1.0
C      1  0.5412680000000  0.4133070000000  0.4415830000000 1.0
C      1  0.5726750000000  0.4211370000000  0.4757890000000 1.0
C      1  0.5649720000000  0.4166640000000  0.5296370000000 1.0
C      1  0.5381170000000  0.4199830000000  0.5707290000000 1.0
C      1  0.4850090000000  0.4159820000000  0.5692500000000 1.0
C      1  0.4394030000000  0.4227150000000  0.5504180000000 1.0
C      1  0.4843690000000  0.5404920000000  0.5342160000000 1.0
C      1  0.4648310000000  0.5507220000000  0.5144000000000 1.0
C      1  0.4581830000000  0.5322560000000  0.4928860000000 1.0
C      1  0.4615190000000  0.5408630000000  0.4663130000000 1.0
C      1  0.4815260000000  0.5303480000000  0.4516210000000 1.0
C      1  0.5135800000000  0.5315130000000  0.4580360000000 1.0
C      1  0.5183840000000  0.5501600000000  0.4822980000000 1.0
C      1  0.5258650000000  0.5362590000000  0.5091670000000 1.0
C      1  0.5048930000000  0.5250360000000  0.5238410000000 1.0
C      1  0.5322230000000  0.5396640000000  0.6195180000000 1.0
C      1  0.4685000000000  0.5466170000000  0.5976350000000 1.0
C      1  0.3757100000000  0.5403760000000  0.5103170000000 1.0
C      1  0.3870410000000  0.5378550000000  0.4435050000000 1.0
C      1  0.4379810000000  0.5465800000000  0.4154650000000 1.0
C      1  0.5346880000000  0.5326130000000  0.3827310000000 1.0
C      1  0.5812370000000  0.5476680000000  0.4171870000000 1.0
C      1  0.6179400000000  0.5528090000000  0.5127940000000 1.0
C      1  0.5678980000000  0.5493760000000  0.5945840000000 1.0
C      1  0.4205340000000  0.4325140000000  0.5305980000000 1.0
C      1  0.4236630000000  0.4290290000000  0.4737620000000 1.0
C      1  0.4608040000000  0.4291140000000  0.4311650000000 1.0
C      1  0.5205460000000  0.4243750000000  0.4205720000000 1.0
C      1  0.5660600000000  0.4245770000000  0.4491290000000 1.0
C      1  0.5747620000000  0.4335700000000  0.5046050000000 1.0
C      1  0.5646870000000  0.4243310000000  0.5582130000000 1.0
C      1  0.5118410000000  0.4256270000000  0.5816200000000 1.0
C      1  0.4580670000000  0.4282100000000  0.5715890000000 1.0
C      1  0.4561940000000  0.5852160000000  0.4841810000000 1.0
C      1  0.4706770000000  0.5854900000000  0.4595110000000 1.0
C      1  0.4981030000000  0.5893100000000  0.4526520000000 1.0
C      1  0.5191230000000  0.6023920000000  0.4689770000000 1.0
C      1  0.5318550000000  0.5803880000000  0.4881840000000 1.0
C      1  0.5311030000000  0.5894720000000  0.5184680000000 1.0
C      1  0.5083760000000  0.5821500000000  0.5399590000000 1.0
C      1  0.4810330000000  0.5984690000000  0.5329280000000 1.0
C      1  0.4636170000000  0.5841560000000  0.5146030000000 1.0
C      1  0.4736090000000  0.4743180000000  0.4442640000000 1.0
C      1  0.5096800000000  0.4512390000000  0.4354200000000 1.0
C      1  0.5386760000000  0.4739650000000  0.4669550000000 1.0
C      1  0.5596760000000  0.4635510000000  0.5052870000000 1.0
C      1  0.5495500000000  0.4579350000000  0.5433010000000 1.0
C      1  0.5139800000000  0.4600550000000  0.5614190000000 1.0
C      1  0.4697720000000  0.4623730000000  0.5544540000000 1.0
C      1  0.4453500000000  0.4619760000000  0.5199990000000 1.0
C      1  0.4456310000000  0.4619220000000  0.4793500000000 1.0
C      1  0.4934560000000  0.5694700000000  0.4880230000000 1.0
END
