TITL C-2782228-2999-903 0.0511364283883313 125000 -309.81479899864 0 0 53 (C1) n - 1
REM
REM in /home/nfs/bkarasulu/CARBON/AIRSS/Generating-Clusters/REBO/Higher-Symm/SD-CG/HFTN-CG
REM
REM
REM
REM
REM
REM ./C.cell (12c818d87b63d06a65506943cc24bca4)
REM
REM compiler GCC version 9.2.1 20190827 (Red Hat 9.2.1-1)
REM options -cpp -mtune=generic -march=x86-64 -g -O0 -fpre-include=/usr/include/finclude/math-vector-fortran.h
REM seed 1338050217 -727394244 2049047192 1046728900 933157721 -1465313949 -1170180077 -1639965958 64257378 58108684 -523898748 1588935903 -19947025 1542497046 -584358189 1677615397 360470031 -1750653295 892918189 375699739 1800322294 1514448137 1181627956 -1665892867 1774094660 112928054 1273187760 -146010132 1474741059 214777281 789644581 1811179439 -451913631
REM
CELL 1.54180   50.00000   50.00000   50.00000   90.00000   90.00000   90.00000
LATT -1
SFAC C  
C      1  0.5688630000000  0.5198880000000  0.5163130000000 1.0
C      1  0.4267960000000  0.5116290000000  0.4895080000000 1.0
C      1  0.5217320000000  0.4558940000000  0.5439190000000 1.0
C      1  0.4798780000000  0.4665630000000  0.4634410000000 1.0
C      1  0.5343800000000  0.4993680000000  0.4287480000000 1.0
C      1  0.4696720000000  0.4923050000000  0.5573090000000 1.0
C      1  0.4609380000000  0.5140810000000  0.6006720000000 1.0
C      1  0.5492250000000  0.5214950000000  0.3900140000000 1.0
C      1  0.4449250000000  0.4509170000000  0.5221990000000 1.0
C      1  0.5344840000000  0.4789280000000  0.4768000000000 1.0
C      1  0.5184360000000  0.4895600000000  0.4046300000000 1.0
C      1  0.4753630000000  0.4732800000000  0.5840430000000 1.0
C      1  0.4430650000000  0.5528210000000  0.5396550000000 1.0
C      1  0.5551210000000  0.5491510000000  0.4588620000000 1.0
C      1  0.5157710000000  0.5014390000000  0.5314960000000 1.0
C      1  0.4769660000000  0.4956880000000  0.5020410000000 1.0
C      1  0.5632930000000  0.5432480000000  0.4327740000000 1.0
C      1  0.4504660000000  0.5446890000000  0.5652690000000 1.0
C      1  0.4389430000000  0.5524010000000  0.5129910000000 1.0
C      1  0.5478460000000  0.5489210000000  0.4846310000000 1.0
C      1  0.5503590000000  0.4754260000000  0.5066780000000 1.0
C      1  0.4410720000000  0.4653220000000  0.4981240000000 1.0
C      1  0.5514660000000  0.5213040000000  0.4192610000000 1.0
C      1  0.4597550000000  0.5190160000000  0.5720410000000 1.0
C      1  0.5195270000000  0.5259500000000  0.5173250000000 1.0
C      1  0.4737500000000  0.5233450000000  0.4975400000000 1.0
C      1  0.4647350000000  0.4616360000000  0.5473470000000 1.0
C      1  0.5249390000000  0.4842690000000  0.4519580000000 1.0
C      1  0.4462220000000  0.5316790000000  0.4952640000000 1.0
C      1  0.5456660000000  0.5344860000000  0.5086740000000 1.0
C      1  0.5811850000000  0.5592220000000  0.4198050000000 1.0
C      1  0.4476900000000  0.5628290000000  0.5856230000000 1.0
C      1  0.4964110000000  0.4428630000000  0.5515090000000 1.0
C      1  0.4995140000000  0.4711060000000  0.4440890000000 1.0
C      1  0.4976610000000  0.4726630000000  0.4152210000000 1.0
C      1  0.4856550000000  0.4487400000000  0.5789030000000 1.0
C      1  0.4745060000000  0.4354020000000  0.5277110000000 1.0
C      1  0.5212900000000  0.4592070000000  0.4994160000000 1.0
C      1  0.4663620000000  0.4740830000000  0.4867260000000 1.0
C      1  0.5325280000000  0.4784260000000  0.5325560000000 1.0
C      1  0.5742850000000  0.4937300000000  0.5104130000000 1.0
C      1  0.4209140000000  0.4850030000000  0.4933290000000 1.0
C      1  0.4693320000000  0.4884600000000  0.6072060000000 1.0
C      1  0.5293650000000  0.5032070000000  0.3816510000000 1.0
C      1  0.4876990000000  0.4896380000000  0.5305550000000 1.0
C      1  0.4995580000000  0.4348360000000  0.4965840000000 1.0
C      1  0.4929580000000  0.4617120000000  0.5164800000000 1.0
C      1  0.4851940000000  0.3889110000000  0.4766490000000 1.0
C      1  0.4967930000000  0.5668930000000  0.5009780000000 1.0
C      1  0.4963430000000  0.5393240000000  0.5054480000000 1.0
C      1  0.4972220000000  0.5931770000000  0.4967160000000 1.0
C      1  0.4976450000000  0.6190430000000  0.4925220000000 1.0
C      1  0.4924210000000  0.4120190000000  0.4866800000000 1.0
END
