TITL C-2782225-7408-21 -0.0021073768155935 125000 -804.117335418424 0 0 135 (C1) n - 1
REM
REM in /home/nfs/bkarasulu/CARBON/AIRSS/Generating-Clusters/REBO/Higher-Symm/SD-CG/HFTN-CG
REM
REM
REM
REM
REM
REM ./C.cell (12c818d87b63d06a65506943cc24bca4)
REM
REM compiler GCC version 9.2.1 20190827 (Red Hat 9.2.1-1)
REM options -cpp -mtune=generic -march=x86-64 -g -O0 -fpre-include=/usr/include/finclude/math-vector-fortran.h
REM seed 1617106058 926177993 758803729 1698177467 -832032209 226189423 -1512635459 1266060289 -496987257 2104385221 1469345301 -1583919014 239199434 -1783774327 1000141324 714294527 -1798710762 558604439 2015060765 -714901220 -1884598433 1882420455 -981883486 -1752050088 1146958369 -934335651 228261613 964239156 1532185862 1041705761 -450605615 689290889 -736759953
REM
CELL 1.54180   50.00000   50.00000   50.00000   90.00000   90.00000   90.00000
LATT -1
SFAC C  
C      1  0.4698550000000  0.5712910000000  0.5357980000000 1.0
C      1  0.5252200000000  0.5754830000000  0.5450950000000 1.0
C      1  0.5556890000000  0.5793060000000  0.4958980000000 1.0
C      1  0.5114850000000  0.5757340000000  0.4524770000000 1.0
C      1  0.4602880000000  0.5700590000000  0.4814190000000 1.0
C      1  0.4683270000000  0.4265670000000  0.4624600000000 1.0
C      1  0.5249520000000  0.4275580000000  0.4583260000000 1.0
C      1  0.5455510000000  0.4300140000000  0.5104850000000 1.0
C      1  0.5034440000000  0.4306350000000  0.5467670000000 1.0
C      1  0.4558630000000  0.4272460000000  0.5180500000000 1.0
C      1  0.4182950000000  0.4770380000000  0.4740960000000 1.0
C      1  0.4485400000000  0.4766000000000  0.5734400000000 1.0
C      1  0.5493810000000  0.4786580000000  0.5694130000000 1.0
C      1  0.5801690000000  0.4783210000000  0.4722590000000 1.0
C      1  0.4976230000000  0.4767280000000  0.4130750000000 1.0
C      1  0.4203280000000  0.5227600000000  0.5262960000000 1.0
C      1  0.4463250000000  0.5229480000000  0.4269530000000 1.0
C      1  0.5489710000000  0.5235370000000  0.4297690000000 1.0
C      1  0.5787340000000  0.5253120000000  0.5273320000000 1.0
C      1  0.4981540000000  0.5249260000000  0.5900300000000 1.0
C      1  0.5190920000000  0.6051700000000  0.4828520000000 1.0
C      1  0.4908490000000  0.6032330000000  0.4780460000000 1.0
C      1  0.4774850000000  0.6057580000000  0.5036360000000 1.0
C      1  0.4975830000000  0.6080960000000  0.5244170000000 1.0
C      1  0.5233070000000  0.6086420000000  0.5112740000000 1.0
C      1  0.5158890000000  0.3940250000000  0.5188230000000 1.0
C      1  0.4869730000000  0.3938060000000  0.5213310000000 1.0
C      1  0.4757210000000  0.3933340000000  0.4946150000000 1.0
C      1  0.4976150000000  0.3927830000000  0.4755960000000 1.0
C      1  0.5224710000000  0.3932030000000  0.4905640000000 1.0
C      1  0.5710700000000  0.5597270000000  0.4748830000000 1.0
C      1  0.4960830000000  0.5560490000000  0.4304850000000 1.0
C      1  0.4334720000000  0.5544970000000  0.4774460000000 1.0
C      1  0.4601710000000  0.5544660000000  0.5606880000000 1.0
C      1  0.5444580000000  0.5573240000000  0.5619380000000 1.0
C      1  0.5686790000000  0.4465200000000  0.5239910000000 1.0
C      1  0.4970160000000  0.4475280000000  0.5725000000000 1.0
C      1  0.4301310000000  0.4445040000000  0.5226810000000 1.0
C      1  0.4571960000000  0.4444060000000  0.4383830000000 1.0
C      1  0.5440540000000  0.4456950000000  0.4405830000000 1.0
C      1  0.4342300000000  0.4523430000000  0.5557300000000 1.0
C      1  0.5297050000000  0.4543450000000  0.5772940000000 1.0
C      1  0.5824070000000  0.4543180000000  0.4939960000000 1.0
C      1  0.5195350000000  0.4531980000000  0.4182220000000 1.0
C      1  0.4291850000000  0.4525680000000  0.4558760000000 1.0
C      1  0.4325390000000  0.5473480000000  0.4441400000000 1.0
C      1  0.5285640000000  0.5482170000000  0.4235440000000 1.0
C      1  0.5806680000000  0.5498450000000  0.5061200000000 1.0
C      1  0.5199560000000  0.5493870000000  0.5844930000000 1.0
C      1  0.4314920000000  0.5473020000000  0.5440080000000 1.0
C      1  0.4791760000000  0.5251420000000  0.4653950000000 1.0
C      1  0.4592040000000  0.5265270000000  0.5120650000000 1.0
C      1  0.4972960000000  0.5297560000000  0.5396020000000 1.0
C      1  0.5400310000000  0.5334190000000  0.5185730000000 1.0
C      1  0.5307090000000  0.5296290000000  0.4648310000000 1.0
C      1  0.4808840000000  0.4722580000000  0.5356420000000 1.0
C      1  0.4554690000000  0.4714770000000  0.4876930000000 1.0
C      1  0.4942160000000  0.4701570000000  0.4537840000000 1.0
C      1  0.5414800000000  0.4719200000000  0.4798510000000 1.0
C      1  0.5277890000000  0.4751220000000  0.5343030000000 1.0
C      1  0.5298590000000  0.4838210000000  0.4040470000000 1.0
C      1  0.4176290000000  0.4821020000000  0.4403590000000 1.0
C      1  0.4182040000000  0.4835150000000  0.5590760000000 1.0
C      1  0.5296300000000  0.4842020000000  0.5962930000000 1.0
C      1  0.5983070000000  0.4851910000000  0.5002590000000 1.0
C      1  0.5309810000000  0.5183890000000  0.5971680000000 1.0
C      1  0.4198010000000  0.5177060000000  0.5595770000000 1.0
C      1  0.4161620000000  0.5162970000000  0.4416050000000 1.0
C      1  0.5275710000000  0.5179960000000  0.4049100000000 1.0
C      1  0.5973020000000  0.5193680000000  0.4994380000000 1.0
C      1  0.4527520000000  0.4841730000000  0.5403100000000 1.0
C      1  0.5152350000000  0.4872140000000  0.5601020000000 1.0
C      1  0.5592610000000  0.4876550000000  0.4999080000000 1.0
C      1  0.5175390000000  0.4861110000000  0.4410240000000 1.0
C      1  0.4506940000000  0.4858730000000  0.4606920000000 1.0
C      1  0.4509150000000  0.5158370000000  0.4601510000000 1.0
C      1  0.5151720000000  0.5156700000000  0.4418640000000 1.0
C      1  0.5582580000000  0.5171440000000  0.4987600000000 1.0
C      1  0.5150270000000  0.5173080000000  0.5612470000000 1.0
C      1  0.4531150000000  0.5141960000000  0.5395130000000 1.0
C      1  0.4697430000000  0.5138730000000  0.4129060000000 1.0
C      1  0.4153290000000  0.5133310000000  0.5006230000000 1.0
C      1  0.4711250000000  0.5145680000000  0.5894100000000 1.0
C      1  0.5681970000000  0.5150210000000  0.5511220000000 1.0
C      1  0.5686770000000  0.5153450000000  0.4477230000000 1.0
C      1  0.4705650000000  0.4870170000000  0.5891940000000 1.0
C      1  0.4151950000000  0.4867650000000  0.5001850000000 1.0
C      1  0.4709660000000  0.4864940000000  0.4132240000000 1.0
C      1  0.5700640000000  0.4883740000000  0.4480010000000 1.0
C      1  0.5683270000000  0.4883850000000  0.5514660000000 1.0
C      1  0.4755070000000  0.4155500000000  0.5413920000000 1.0
C      1  0.5299220000000  0.4170620000000  0.5345970000000 1.0
C      1  0.5433780000000  0.4148220000000  0.4813100000000 1.0
C      1  0.4956770000000  0.4130430000000  0.4510900000000 1.0
C      1  0.4522380000000  0.4141290000000  0.4887260000000 1.0
C      1  0.4792930000000  0.5811740000000  0.4566500000000 1.0
C      1  0.5395490000000  0.5858450000000  0.4673410000000 1.0
C      1  0.5450590000000  0.5904670000000  0.5243770000000 1.0
C      1  0.4950250000000  0.5866570000000  0.5479070000000 1.0
C      1  0.4563410000000  0.5841180000000  0.5094880000000 1.0
C      1  0.5129730000000  0.4506210000000  0.5210210000000 1.0
C      1  0.5251980000000  0.4485970000000  0.4923110000000 1.0
C      1  0.5017640000000  0.4461500000000  0.4722690000000 1.0
C      1  0.4748770000000  0.4468960000000  0.4876390000000 1.0
C      1  0.4818900000000  0.4465040000000  0.5171930000000 1.0
C      1  0.5161800000000  0.5548720000000  0.4769550000000 1.0
C      1  0.5299150000000  0.5605610000000  0.5026020000000 1.0
C      1  0.5081690000000  0.5565750000000  0.5252670000000 1.0
C      1  0.4789780000000  0.5512550000000  0.5114570000000 1.0
C      1  0.4866280000000  0.5504120000000  0.4811090000000 1.0
C      1  0.5486760000000  0.4761510000000  0.4317030000000 1.0
C      1  0.4492200000000  0.4742040000000  0.4294970000000 1.0
C      1  0.4228980000000  0.4754610000000  0.5260440000000 1.0
C      1  0.4978520000000  0.4757360000000  0.5870300000000 1.0
C      1  0.5774000000000  0.4769080000000  0.5260630000000 1.0
C      1  0.5472650000000  0.5263500000000  0.5680580000000 1.0
C      1  0.4507640000000  0.5260700000000  0.5713120000000 1.0
C      1  0.4212200000000  0.5248200000000  0.4744140000000 1.0
C      1  0.4963740000000  0.5266350000000  0.4156800000000 1.0
C      1  0.5768200000000  0.5279910000000  0.4733530000000 1.0
C      1  0.5588820000000  0.4437370000000  0.4714480000000 1.0
C      1  0.4911250000000  0.4424040000000  0.4339890000000 1.0
C      1  0.4351340000000  0.4438590000000  0.4885500000000 1.0
C      1  0.4678130000000  0.4464280000000  0.5545230000000 1.0
C      1  0.5429620000000  0.4465510000000  0.5466380000000 1.0
C      1  0.5585080000000  0.5595370000000  0.5304940000000 1.0
C      1  0.4944030000000  0.5553680000000  0.5626580000000 1.0
C      1  0.4392560000000  0.5544970000000  0.5113550000000 1.0
C      1  0.4664170000000  0.5512080000000  0.4467080000000 1.0
C      1  0.5466300000000  0.5568070000000  0.4513580000000 1.0
C      1  0.4722080000000  0.4998680000000  0.4961040000000 1.0
C      1  0.4951880000000  0.4982290000000  0.4717990000000 1.0
C      1  0.4918420000000  0.5009770000000  0.5233810000000 1.0
C      1  0.5253080000000  0.5010110000000  0.4824800000000 1.0
C      1  0.5246360000000  0.5032380000000  0.5151710000000 1.0
END
