TITL C-2782228-2999-466 0.000220976651618577 125000 -358.74940215525 0 0 64 (S4) n - 1
REM
REM in /home/nfs/bkarasulu/CARBON/AIRSS/Generating-Clusters/REBO/Higher-Symm/SD-CG/HFTN-CG
REM
REM
REM
REM
REM
REM ./C.cell (12c818d87b63d06a65506943cc24bca4)
REM
REM compiler GCC version 9.2.1 20190827 (Red Hat 9.2.1-1)
REM options -cpp -mtune=generic -march=x86-64 -g -O0 -fpre-include=/usr/include/finclude/math-vector-fortran.h
REM seed 887091903 -322703868 199914368 -648400530 22878879 88858317 44670016 -1283951361 233902136 -1558687686 -1157865798 588522062 1535113082 -70208210 2140992566 -710701840 89686302 1862437416 1374600207 1032632936 -2138505089 1830245991 1001962884 1646905713 1956646134 304926487 -1889606550 -973940358 -959216064 1206610990 -739235206 -705533584 -1960911435
REM
CELL 1.54180   50.00000   50.00000   50.00000   90.00000   90.00000   90.00000
LATT -1
SFAC C  
C      1  0.5341890000000  0.4766140000000  0.5133010000000 1.0
C      1  0.4658110000000  0.4866990000000  0.4766140000000 1.0
C      1  0.5341890000000  0.5233860000000  0.4866990000000 1.0
C      1  0.4658110000000  0.5133010000000  0.5233860000000 1.0
C      1  0.5655970000000  0.4831030000000  0.5135850000000 1.0
C      1  0.4344030000000  0.4864150000000  0.4831030000000 1.0
C      1  0.5655970000000  0.5168970000000  0.4864160000000 1.0
C      1  0.4344030000000  0.5135840000000  0.5168960000000 1.0
C      1  0.5543190000000  0.5093550000000  0.5236630000000 1.0
C      1  0.4456810000000  0.4763370000000  0.5093550000000 1.0
C      1  0.5543190000000  0.4906450000000  0.4763370000000 1.0
C      1  0.4456810000000  0.5236630000000  0.4906440000000 1.0
C      1  0.4980490000000  0.5261070000000  0.5721300000000 1.0
C      1  0.5019500000000  0.4278700000000  0.5261070000000 1.0
C      1  0.4980510000000  0.4738930000000  0.4278700000000 1.0
C      1  0.5019500000000  0.5721300000000  0.4738930000000 1.0
C      1  0.5256610000000  0.4155420000000  0.5045270000000 1.0
C      1  0.4743400000000  0.4954730000000  0.4155420000000 1.0
C      1  0.5256600000000  0.5844580000000  0.4954730000000 1.0
C      1  0.4743390000000  0.5045270000000  0.5844580000000 1.0
C      1  0.5337210000000  0.5606140000000  0.4725410000000 1.0
C      1  0.4662780000000  0.5274590000000  0.5606140000000 1.0
C      1  0.5337210000000  0.4393860000000  0.5274590000000 1.0
C      1  0.4662800000000  0.4725410000000  0.4393860000000 1.0
C      1  0.4797360000000  0.5205080000000  0.4932510000000 1.0
C      1  0.5202630000000  0.5067490000000  0.5205090000000 1.0
C      1  0.4797360000000  0.4794920000000  0.5067490000000 1.0
C      1  0.5202640000000  0.4932510000000  0.4794920000000 1.0
C      1  0.5311570000000  0.4655720000000  0.5442560000000 1.0
C      1  0.4688430000000  0.4557440000000  0.4655720000000 1.0
C      1  0.5311580000000  0.5344280000000  0.4557440000000 1.0
C      1  0.4688420000000  0.5442560000000  0.5344270000000 1.0
C      1  0.4584530000000  0.4470240000000  0.5162840000000 1.0
C      1  0.5415470000000  0.4837160000000  0.4470240000000 1.0
C      1  0.4584530000000  0.5529760000000  0.4837150000000 1.0
C      1  0.5415460000000  0.5162850000000  0.5529770000000 1.0
C      1  0.4995950000000  0.4727040000000  0.5525810000000 1.0
C      1  0.5004050000000  0.4474190000000  0.4727040000000 1.0
C      1  0.4995960000000  0.5272960000000  0.4474190000000 1.0
C      1  0.5004040000000  0.5525810000000  0.5272960000000 1.0
C      1  0.5173920000000  0.5397270000000  0.5524260000000 1.0
C      1  0.4826070000000  0.4475740000000  0.5397260000000 1.0
C      1  0.5173930000000  0.4602740000000  0.4475740000000 1.0
C      1  0.4826070000000  0.5524260000000  0.4602730000000 1.0
C      1  0.4559220000000  0.5050920000000  0.4417590000000 1.0
C      1  0.5440780000000  0.5582410000000  0.5050920000000 1.0
C      1  0.4559210000000  0.4949080000000  0.5582400000000 1.0
C      1  0.5440780000000  0.4417590000000  0.4949090000000 1.0
C      1  0.5330270000000  0.5098910000000  0.4346500000000 1.0
C      1  0.4669730000000  0.5653500000000  0.5098900000000 1.0
C      1  0.5330260000000  0.4901100000000  0.5653500000000 1.0
C      1  0.4669730000000  0.4346500000000  0.4901090000000 1.0
C      1  0.4924260000000  0.4946650000000  0.5311780000000 1.0
C      1  0.5075740000000  0.4688220000000  0.4946650000000 1.0
C      1  0.4924270000000  0.5053350000000  0.4688220000000 1.0
C      1  0.5075730000000  0.5311780000000  0.5053350000000 1.0
C      1  0.4583740000000  0.4718090000000  0.5403420000000 1.0
C      1  0.5416260000000  0.4596580000000  0.4718100000000 1.0
C      1  0.4583740000000  0.5281910000000  0.4596580000000 1.0
C      1  0.5416260000000  0.5403420000000  0.5281910000000 1.0
C      1  0.5044270000000  0.5068160000000  0.4211200000000 1.0
C      1  0.4955740000000  0.5788800000000  0.5068160000000 1.0
C      1  0.5044250000000  0.4931840000000  0.5788800000000 1.0
C      1  0.4955740000000  0.4211200000000  0.4931840000000 1.0
END
