TITL C-2782238-9940-283 -0.000858911935350932 125000 -773.753029888749 0 0 129 (C1) n - 1
REM
REM in /home/nfs/bkarasulu/CARBON/AIRSS/Generating-Clusters/REBO/Higher-Symm/SD-CG/HFTN-CG
REM
REM
REM
REM
REM
REM ./C.cell (12c818d87b63d06a65506943cc24bca4)
REM
REM compiler GCC version 9.2.1 20190827 (Red Hat 9.2.1-1)
REM options -cpp -mtune=generic -march=x86-64 -g -O0 -fpre-include=/usr/include/finclude/math-vector-fortran.h
REM seed 1394411174 1490785011 -1271802519 -1337588439 -1940930607 -1241162173 1239725629 445294854 -724728399 481111002 1145380850 814966205 497795244 -119589838 -229842553 -631647237 1570302680 2105792849 1346546519 1969080279 1335711356 -658372358 1962011106 1147851673 1694226478 -868316994 180163401 -1759257643 -1523225846 -1205573539 422301158 -1468470360 -312330703
REM
CELL 1.54180   50.00000   50.00000   50.00000   90.00000   90.00000   90.00000
LATT -1
SFAC C  
C      1  0.4914740000000  0.4407000000000  0.4761460000000 1.0
C      1  0.4935890000000  0.4568720000000  0.5471410000000 1.0
C      1  0.4967690000000  0.5259940000000  0.5451330000000 1.0
C      1  0.4787840000000  0.5556170000000  0.4759600000000 1.0
C      1  0.4973180000000  0.5041280000000  0.4389160000000 1.0
C      1  0.4326430000000  0.4845020000000  0.5269810000000 1.0
C      1  0.4138820000000  0.5373540000000  0.5329200000000 1.0
C      1  0.4458700000000  0.5454920000000  0.4960540000000 1.0
C      1  0.4310900000000  0.5004300000000  0.4770950000000 1.0
C      1  0.4308990000000  0.4638060000000  0.4928440000000 1.0
C      1  0.4750820000000  0.4171680000000  0.4637620000000 1.0
C      1  0.4773850000000  0.4421640000000  0.5721530000000 1.0
C      1  0.4832080000000  0.5427030000000  0.5654240000000 1.0
C      1  0.4676690000000  0.5855750000000  0.4759140000000 1.0
C      1  0.4772400000000  0.5025580000000  0.4142180000000 1.0
C      1  0.5705550000000  0.4568280000000  0.4736260000000 1.0
C      1  0.5761740000000  0.4676130000000  0.5255630000000 1.0
C      1  0.5828890000000  0.5121020000000  0.5581590000000 1.0
C      1  0.5788240000000  0.5416290000000  0.5126110000000 1.0
C      1  0.5782220000000  0.5099690000000  0.4640990000000 1.0
C      1  0.5723970000000  0.5692230000000  0.5188780000000 1.0
C      1  0.5712390000000  0.5363920000000  0.4444930000000 1.0
C      1  0.5673260000000  0.4568190000000  0.4405970000000 1.0
C      1  0.5688340000000  0.4354720000000  0.5195180000000 1.0
C      1  0.5742550000000  0.5119320000000  0.5863950000000 1.0
C      1  0.5146020000000  0.4115100000000  0.4616120000000 1.0
C      1  0.5171880000000  0.4390360000000  0.5739010000000 1.0
C      1  0.5166320000000  0.5573980000000  0.5832770000000 1.0
C      1  0.5171830000000  0.5928100000000  0.4735390000000 1.0
C      1  0.5139830000000  0.5060860000000  0.3988950000000 1.0
C      1  0.5525350000000  0.4930270000000  0.5915600000000 1.0
C      1  0.5493120000000  0.5758180000000  0.5418080000000 1.0
C      1  0.5486520000000  0.5623980000000  0.4412170000000 1.0
C      1  0.5441400000000  0.4665770000000  0.4176670000000 1.0
C      1  0.5438410000000  0.4172560000000  0.5049160000000 1.0
C      1  0.5275190000000  0.5630590000000  0.4981920000000 1.0
C      1  0.5417440000000  0.5242900000000  0.4333190000000 1.0
C      1  0.5362140000000  0.4519810000000  0.4538690000000 1.0
C      1  0.5387680000000  0.4465920000000  0.5310750000000 1.0
C      1  0.5372650000000  0.5247170000000  0.5732570000000 1.0
C      1  0.5090380000000  0.5984710000000  0.4999000000000 1.0
C      1  0.5028470000000  0.5318900000000  0.4051720000000 1.0
C      1  0.5042750000000  0.4218780000000  0.4370330000000 1.0
C      1  0.5059570000000  0.4198210000000  0.5557160000000 1.0
C      1  0.5065680000000  0.5343370000000  0.5967860000000 1.0
C      1  0.4258550000000  0.5721980000000  0.5177520000000 1.0
C      1  0.4334340000000  0.5332210000000  0.4508990000000 1.0
C      1  0.4354670000000  0.4581020000000  0.4436500000000 1.0
C      1  0.4361070000000  0.4361630000000  0.5210920000000 1.0
C      1  0.4432400000000  0.5060870000000  0.5588960000000 1.0
C      1  0.4522190000000  0.4408310000000  0.5491740000000 1.0
C      1  0.4514190000000  0.5366170000000  0.5676930000000 1.0
C      1  0.4379290000000  0.5842990000000  0.4925830000000 1.0
C      1  0.4476840000000  0.5145940000000  0.4260110000000 1.0
C      1  0.4462890000000  0.4303190000000  0.4544820000000 1.0
C      1  0.4965850000000  0.5697880000000  0.5663420000000 1.0
C      1  0.4954710000000  0.5860470000000  0.4562930000000 1.0
C      1  0.4955820000000  0.4831040000000  0.3962030000000 1.0
C      1  0.4963790000000  0.4016100000000  0.4828760000000 1.0
C      1  0.5001910000000  0.4574880000000  0.5915070000000 1.0
C      1  0.5198220000000  0.4182480000000  0.5258330000000 1.0
C      1  0.5234230000000  0.5059070000000  0.5980440000000 1.0
C      1  0.5253170000000  0.5828190000000  0.5250400000000 1.0
C      1  0.5224840000000  0.5512610000000  0.4251000000000 1.0
C      1  0.5194100000000  0.4476940000000  0.4242010000000 1.0
C      1  0.5386930000000  0.5000060000000  0.4139530000000 1.0
C      1  0.5388640000000  0.4261160000000  0.4723720000000 1.0
C      1  0.5383160000000  0.4524880000000  0.5613020000000 1.0
C      1  0.5441890000000  0.5559050000000  0.5692420000000 1.0
C      1  0.5417250000000  0.5750560000000  0.4719190000000 1.0
C      1  0.4837270000000  0.4787240000000  0.4456570000000 1.0
C      1  0.4875720000000  0.4393800000000  0.5033040000000 1.0
C      1  0.4947900000000  0.4824320000000  0.5581410000000 1.0
C      1  0.4851980000000  0.5282370000000  0.5183710000000 1.0
C      1  0.4846120000000  0.5216780000000  0.4725080000000 1.0
C      1  0.4979990000000  0.5808090000000  0.5413820000000 1.0
C      1  0.4975280000000  0.5683360000000  0.4342830000000 1.0
C      1  0.4970750000000  0.4560850000000  0.4040350000000 1.0
C      1  0.4977750000000  0.4014140000000  0.5106130000000 1.0
C      1  0.5009500000000  0.4842180000000  0.6011280000000 1.0
C      1  0.4203430000000  0.5284850000000  0.4819720000000 1.0
C      1  0.4163090000000  0.4728250000000  0.4656230000000 1.0
C      1  0.4126750000000  0.4594150000000  0.5200200000000 1.0
C      1  0.4193320000000  0.5107550000000  0.5380850000000 1.0
C      1  0.4073070000000  0.5468820000000  0.5054270000000 1.0
C      1  0.5009980000000  0.4543690000000  0.5211350000000 1.0
C      1  0.5116810000000  0.5029270000000  0.5519710000000 1.0
C      1  0.4991880000000  0.5489360000000  0.4975960000000 1.0
C      1  0.5132520000000  0.5168720000000  0.4603120000000 1.0
C      1  0.4993650000000  0.4638830000000  0.4636410000000 1.0
C      1  0.4750900000000  0.5775420000000  0.5239010000000 1.0
C      1  0.4741800000000  0.5534310000000  0.4283160000000 1.0
C      1  0.4722310000000  0.4465520000000  0.4133880000000 1.0
C      1  0.4726430000000  0.3984380000000  0.5272840000000 1.0
C      1  0.4750120000000  0.4983460000000  0.5983710000000 1.0
C      1  0.5574830000000  0.4862010000000  0.4653850000000 1.0
C      1  0.5563900000000  0.4684200000000  0.5010010000000 1.0
C      1  0.5699260000000  0.4855880000000  0.5474680000000 1.0
C      1  0.5833370000000  0.5352860000000  0.5419780000000 1.0
C      1  0.5693340000000  0.5343660000000  0.4843570000000 1.0
C      1  0.4418730000000  0.4335570000000  0.4869750000000 1.0
C      1  0.4469840000000  0.4718000000000  0.5527210000000 1.0
C      1  0.4337050000000  0.5560460000000  0.5468250000000 1.0
C      1  0.4363740000000  0.5621730000000  0.4688830000000 1.0
C      1  0.4345610000000  0.4925440000000  0.4443740000000 1.0
C      1  0.5708830000000  0.5618020000000  0.4669110000000 1.0
C      1  0.5641060000000  0.4898170000000  0.4328190000000 1.0
C      1  0.5697800000000  0.4283690000000  0.4867850000000 1.0
C      1  0.5525270000000  0.4738290000000  0.5703900000000 1.0
C      1  0.5742380000000  0.5582610000000  0.5570930000000 1.0
C      1  0.5436330000000  0.5060080000000  0.5478000000000 1.0
C      1  0.5254300000000  0.5289170000000  0.5030830000000 1.0
C      1  0.5415530000000  0.5235920000000  0.4674730000000 1.0
C      1  0.5262380000000  0.4793150000000  0.4719200000000 1.0
C      1  0.5260990000000  0.4715730000000  0.5110440000000 1.0
C      1  0.4706810000000  0.4212730000000  0.4316750000000 1.0
C      1  0.4735490000000  0.4144100000000  0.5538520000000 1.0
C      1  0.4731770000000  0.5293450000000  0.5937430000000 1.0
C      1  0.4807410000000  0.5954730000000  0.5024410000000 1.0
C      1  0.4687820000000  0.5328330000000  0.4056280000000 1.0
C      1  0.4644660000000  0.5390500000000  0.4527600000000 1.0
C      1  0.4620800000000  0.4673050000000  0.4302330000000 1.0
C      1  0.4634500000000  0.4220380000000  0.5089620000000 1.0
C      1  0.4678450000000  0.4882850000000  0.5707680000000 1.0
C      1  0.4639170000000  0.5515730000000  0.5159730000000 1.0
C      1  0.5455290000000  0.5223500000000  0.5220860000000 1.0
C      1  0.4516180000000  0.4900020000000  0.5001560000000 1.0
C      1  0.5128910000000  0.4991270000000  0.4961310000000 1.0
C      1  0.4790480000000  0.5027390000000  0.4985970000000 1.0
END
