TITL C-2782232-2968-1113 2.65837039092141e-05 125000 -490.848204964647 0 0 88 (D2) n - 1
REM
REM in /home/nfs/bkarasulu/CARBON/AIRSS/Generating-Clusters/REBO/Higher-Symm/SD-CG/HFTN-CG
REM
REM
REM
REM
REM
REM ./C.cell (12c818d87b63d06a65506943cc24bca4)
REM
REM compiler GCC version 9.2.1 20190827 (Red Hat 9.2.1-1)
REM options -cpp -mtune=generic -march=x86-64 -g -O0 -fpre-include=/usr/include/finclude/math-vector-fortran.h
REM seed 587340897 -1122339024 954982031 -1830670633 -1137713198 -1440534891 -88756677 -1605772466 289534098 1104813154 -733145787 564633556 82416703 -128845543 53102014 249520461 1512260525 361262582 1551129594 -463985493 1038971791 1489259936 1992432219 -1458504686 1253332761 1758944178 2007253673 -779236700 -485583440 680692291 661171447 366240295 353963412
REM
CELL 1.54180   50.00000   50.00000   50.00000   90.00000   90.00000   90.00000
LATT -1
SFAC C  
C      1  0.5238330000000  0.4432590000000  0.4723240000000 1.0
C      1  0.4678890000000  0.4424250000000  0.4743240000000 1.0
C      1  0.4761590000000  0.4433410000000  0.5278380000000 1.0
C      1  0.5321030000000  0.4424940000000  0.5258400000000 1.0
C      1  0.5237130000000  0.5567380000000  0.5277860000000 1.0
C      1  0.4677780000000  0.5575790000000  0.5255270000000 1.0
C      1  0.4762960000000  0.5566620000000  0.4720520000000 1.0
C      1  0.5322300000000  0.5575020000000  0.4743090000000 1.0
C      1  0.5435590000000  0.4260820000000  0.5768120000000 1.0
C      1  0.5736500000000  0.4241310000000  0.4607890000000 1.0
C      1  0.4564300000000  0.4258700000000  0.4233990000000 1.0
C      1  0.4263390000000  0.4242540000000  0.5394270000000 1.0
C      1  0.5439250000000  0.5739110000000  0.4233910000000 1.0
C      1  0.5734790000000  0.5758590000000  0.5395520000000 1.0
C      1  0.4560860000000  0.5741360000000  0.5763990000000 1.0
C      1  0.4265330000000  0.5757570000000  0.4602330000000 1.0
C      1  0.4685560000000  0.4533270000000  0.5582500000000 1.0
C      1  0.5623110000000  0.4534330000000  0.5334840000000 1.0
C      1  0.5314370000000  0.4531570000000  0.4418830000000 1.0
C      1  0.4376820000000  0.4533470000000  0.4666490000000 1.0
C      1  0.4688330000000  0.5466770000000  0.4416050000000 1.0
C      1  0.5624720000000  0.5465580000000  0.4668050000000 1.0
C      1  0.5311740000000  0.5468390000000  0.5582620000000 1.0
C      1  0.4375350000000  0.5466620000000  0.5330620000000 1.0
C      1  0.4901280000000  0.4887220000000  0.5406520000000 1.0
C      1  0.5442890000000  0.4884020000000  0.5096430000000 1.0
C      1  0.5098700000000  0.4886040000000  0.4593810000000 1.0
C      1  0.4557100000000  0.4883810000000  0.4903900000000 1.0
C      1  0.4903180000000  0.5112800000000  0.4593030000000 1.0
C      1  0.5443350000000  0.5115920000000  0.4905620000000 1.0
C      1  0.5096830000000  0.5113940000000  0.5406650000000 1.0
C      1  0.4556670000000  0.5116250000000  0.5094050000000 1.0
C      1  0.4301340000000  0.4721300000000  0.5218800000000 1.0
C      1  0.5236880000000  0.4727020000000  0.5696370000000 1.0
C      1  0.5698620000000  0.4720580000000  0.4782000000000 1.0
C      1  0.4763080000000  0.4725070000000  0.4304410000000 1.0
C      1  0.4302400000000  0.5278800000000  0.4777970000000 1.0
C      1  0.5240140000000  0.5272950000000  0.4304740000000 1.0
C      1  0.5697640000000  0.5279320000000  0.5221240000000 1.0
C      1  0.4759900000000  0.5274960000000  0.5694480000000 1.0
C      1  0.5078280000000  0.5309280000000  0.5183210000000 1.0
C      1  0.5229120000000  0.5319830000000  0.4898840000000 1.0
C      1  0.4921770000000  0.5308770000000  0.4815910000000 1.0
C      1  0.4770920000000  0.5320160000000  0.5100250000000 1.0
C      1  0.5079080000000  0.4690700000000  0.4817150000000 1.0
C      1  0.5228610000000  0.4680130000000  0.5102220000000 1.0
C      1  0.4920870000000  0.4691240000000  0.5183730000000 1.0
C      1  0.4771350000000  0.4679880000000  0.4898690000000 1.0
C      1  0.4756890000000  0.4983280000000  0.5872660000000 1.0
C      1  0.5890750000000  0.4998780000000  0.5249750000000 1.0
C      1  0.5243110000000  0.4980750000000  0.4127390000000 1.0
C      1  0.4109250000000  0.4998200000000  0.4750250000000 1.0
C      1  0.4760930000000  0.5016760000000  0.4126230000000 1.0
C      1  0.5891900000000  0.5001090000000  0.4754370000000 1.0
C      1  0.5239070000000  0.5019210000000  0.5873720000000 1.0
C      1  0.4108100000000  0.5001920000000  0.5245620000000 1.0
C      1  0.5127320000000  0.5809940000000  0.5150300000000 1.0
C      1  0.5184480000000  0.5817960000000  0.4844910000000 1.0
C      1  0.4872800000000  0.5809520000000  0.4847390000000 1.0
C      1  0.4815640000000  0.5818420000000  0.5152760000000 1.0
C      1  0.5127900000000  0.4190050000000  0.4850290000000 1.0
C      1  0.5183640000000  0.4182020000000  0.5155950000000 1.0
C      1  0.4871980000000  0.4190490000000  0.5152020000000 1.0
C      1  0.4816240000000  0.4181600000000  0.4846380000000 1.0
C      1  0.4639550000000  0.4992800000000  0.5554520000000 1.0
C      1  0.5570990000000  0.4998410000000  0.5364780000000 1.0
C      1  0.5360450000000  0.4991170000000  0.4445500000000 1.0
C      1  0.4429010000000  0.4997460000000  0.4635230000000 1.0
C      1  0.4642120000000  0.5007250000000  0.4443810000000 1.0
C      1  0.5572670000000  0.5001510000000  0.4637870000000 1.0
C      1  0.5357880000000  0.5008780000000  0.5556160000000 1.0
C      1  0.4427330000000  0.5002620000000  0.5362130000000 1.0
C      1  0.4901840000000  0.5269860000000  0.4292810000000 1.0
C      1  0.4259500000000  0.5268260000000  0.5115480000000 1.0
C      1  0.5098200000000  0.5271860000000  0.5706420000000 1.0
C      1  0.5740540000000  0.5267820000000  0.4883760000000 1.0
C      1  0.4898530000000  0.4730150000000  0.5706720000000 1.0
C      1  0.4260010000000  0.4731840000000  0.4881100000000 1.0
C      1  0.5101430000000  0.4728130000000  0.4294050000000 1.0
C      1  0.5739960000000  0.4732070000000  0.5119670000000 1.0
C      1  0.4438150000000  0.4486310000000  0.5352110000000 1.0
C      1  0.5388410000000  0.4492610000000  0.5579310000000 1.0
C      1  0.5561770000000  0.4485220000000  0.4649360000000 1.0
C      1  0.4611520000000  0.4491020000000  0.4422140000000 1.0
C      1  0.4439860000000  0.5513770000000  0.4645290000000 1.0
C      1  0.5391160000000  0.5507340000000  0.4422500000000 1.0
C      1  0.5560220000000  0.5514700000000  0.5353240000000 1.0
C      1  0.4608920000000  0.5509040000000  0.5576050000000 1.0
END
