TITL C-2782225-7408-285 0.000933996206576565 125000 -731.657885094178 0 0 124 (C1) n - 1
REM
REM in /home/nfs/bkarasulu/CARBON/AIRSS/Generating-Clusters/REBO/Higher-Symm/SD-CG/HFTN-CG
REM
REM
REM
REM
REM
REM ./C.cell (12c818d87b63d06a65506943cc24bca4)
REM
REM compiler GCC version 9.2.1 20190827 (Red Hat 9.2.1-1)
REM options -cpp -mtune=generic -march=x86-64 -g -O0 -fpre-include=/usr/include/finclude/math-vector-fortran.h
REM seed -1272621003 -859335811 -161549596 -1817531539 101402028 -2133635707 -2146492286 -386071944 489575647 -657850741 358515951 -672269491 317280846 2096596981 -343246117 -639288123 -1781868036 -922956708 -1740803132 475267403 1581150489 -190358092 822586955 -775337930 -1463487968 -1228676439 -426795191 -442008441 226344441 -1976584745 460264457 -560381785 858159013
REM
CELL 1.54180   50.00000   50.00000   50.00000   90.00000   90.00000   90.00000
LATT -1
SFAC C  
C      1  0.5174860000000  0.4656180000000  0.4612490000000 1.0
C      1  0.4519890000000  0.5581630000000  0.4906020000000 1.0
C      1  0.5149590000000  0.5012250000000  0.5715850000000 1.0
C      1  0.4237570000000  0.4538650000000  0.4670580000000 1.0
C      1  0.5186140000000  0.5284310000000  0.5849990000000 1.0
C      1  0.4870670000000  0.4118650000000  0.5362690000000 1.0
C      1  0.5081030000000  0.5899360000000  0.5051040000000 1.0
C      1  0.5944230000000  0.5104320000000  0.4935600000000 1.0
C      1  0.5195490000000  0.4457290000000  0.4410080000000 1.0
C      1  0.5571200000000  0.5692050000000  0.4400550000000 1.0
C      1  0.5168810000000  0.4909180000000  0.4151240000000 1.0
C      1  0.5993750000000  0.5172270000000  0.4641540000000 1.0
C      1  0.5571510000000  0.4867750000000  0.5206130000000 1.0
C      1  0.5925720000000  0.4683710000000  0.5222900000000 1.0
C      1  0.4936860000000  0.4146570000000  0.4904480000000 1.0
C      1  0.5483390000000  0.4621810000000  0.5015900000000 1.0
C      1  0.5055990000000  0.5344530000000  0.6086140000000 1.0
C      1  0.5185940000000  0.5389040000000  0.3968250000000 1.0
C      1  0.5691300000000  0.5138960000000  0.5763390000000 1.0
C      1  0.5098680000000  0.5373200000000  0.5397430000000 1.0
C      1  0.5236410000000  0.5520610000000  0.4266750000000 1.0
C      1  0.5296070000000  0.5051250000000  0.4844900000000 1.0
C      1  0.4579000000000  0.5669540000000  0.5615980000000 1.0
C      1  0.5120980000000  0.4429810000000  0.5348210000000 1.0
C      1  0.5806650000000  0.4748250000000  0.4469410000000 1.0
C      1  0.5088930000000  0.5730710000000  0.4489220000000 1.0
C      1  0.4177260000000  0.4627370000000  0.5152730000000 1.0
C      1  0.4618790000000  0.4599950000000  0.4763420000000 1.0
C      1  0.5618110000000  0.4385160000000  0.4725010000000 1.0
C      1  0.4775910000000  0.4760010000000  0.5093310000000 1.0
C      1  0.4375730000000  0.5209990000000  0.5525170000000 1.0
C      1  0.4822600000000  0.5232050000000  0.3947590000000 1.0
C      1  0.4465040000000  0.5093750000000  0.4297440000000 1.0
C      1  0.5358270000000  0.5338450000000  0.4703690000000 1.0
C      1  0.5606540000000  0.5140220000000  0.4316980000000 1.0
C      1  0.4714850000000  0.4979230000000  0.4839510000000 1.0
C      1  0.5451680000000  0.4918480000000  0.4217150000000 1.0
C      1  0.5057080000000  0.4069900000000  0.5156620000000 1.0
C      1  0.5105210000000  0.5042410000000  0.5398650000000 1.0
C      1  0.4692560000000  0.4385970000000  0.4324180000000 1.0
C      1  0.5379710000000  0.5858260000000  0.4425740000000 1.0
C      1  0.5475230000000  0.5378730000000  0.4989670000000 1.0
C      1  0.4427080000000  0.5382030000000  0.4451460000000 1.0
C      1  0.5091130000000  0.5503980000000  0.4714910000000 1.0
C      1  0.4312900000000  0.4660980000000  0.5443400000000 1.0
C      1  0.5084930000000  0.4698430000000  0.5054450000000 1.0
C      1  0.5176260000000  0.4478610000000  0.5740370000000 1.0
C      1  0.4786080000000  0.5491130000000  0.5770590000000 1.0
C      1  0.5213980000000  0.4410080000000  0.5020860000000 1.0
C      1  0.5863250000000  0.5658070000000  0.5102310000000 1.0
C      1  0.4669340000000  0.5073820000000  0.5476930000000 1.0
C      1  0.4272510000000  0.5572390000000  0.5220110000000 1.0
C      1  0.5535400000000  0.4376390000000  0.5248150000000 1.0
C      1  0.5596730000000  0.5369230000000  0.5625250000000 1.0
C      1  0.5753470000000  0.4773540000000  0.5450250000000 1.0
C      1  0.4675990000000  0.5855150000000  0.5276230000000 1.0
C      1  0.4931890000000  0.4301400000000  0.5608150000000 1.0
C      1  0.4336900000000  0.4051920000000  0.5252270000000 1.0
C      1  0.4365940000000  0.5509280000000  0.5489260000000 1.0
C      1  0.4755020000000  0.5403030000000  0.4417310000000 1.0
C      1  0.5096800000000  0.4175960000000  0.4674700000000 1.0
C      1  0.5597580000000  0.4673080000000  0.4278940000000 1.0
C      1  0.5842160000000  0.5038370000000  0.4446820000000 1.0
C      1  0.5359230000000  0.4785520000000  0.4778320000000 1.0
C      1  0.4581130000000  0.5104460000000  0.3987790000000 1.0
C      1  0.4622880000000  0.4167050000000  0.5241970000000 1.0
C      1  0.4916260000000  0.5758350000000  0.5655920000000 1.0
C      1  0.4023290000000  0.4901190000000  0.5113650000000 1.0
C      1  0.5658750000000  0.5127640000000  0.5094960000000 1.0
C      1  0.4042590000000  0.5066980000000  0.5359540000000 1.0
C      1  0.4921640000000  0.5431640000000  0.4186860000000 1.0
C      1  0.4886660000000  0.4634140000000  0.5392240000000 1.0
C      1  0.4915340000000  0.6000150000000  0.4856380000000 1.0
C      1  0.4665780000000  0.4415680000000  0.5722080000000 1.0
C      1  0.5351560000000  0.4135660000000  0.5184180000000 1.0
C      1  0.5253980000000  0.4835820000000  0.5262050000000 1.0
C      1  0.4345780000000  0.5361310000000  0.4739340000000 1.0
C      1  0.5079580000000  0.5577850000000  0.5031440000000 1.0
C      1  0.4851050000000  0.5137220000000  0.5196490000000 1.0
C      1  0.4620870000000  0.5635340000000  0.4609280000000 1.0
C      1  0.4525460000000  0.5187690000000  0.4971010000000 1.0
C      1  0.4719500000000  0.5417190000000  0.5091430000000 1.0
C      1  0.4176760000000  0.5373500000000  0.5021930000000 1.0
C      1  0.4313690000000  0.4918450000000  0.5665680000000 1.0
C      1  0.4359500000000  0.5083360000000  0.5227090000000 1.0
C      1  0.4330090000000  0.4198340000000  0.4979460000000 1.0
C      1  0.4694210000000  0.5100510000000  0.4542850000000 1.0
C      1  0.5481590000000  0.5382450000000  0.4428800000000 1.0
C      1  0.4843360000000  0.5853500000000  0.4630300000000 1.0
C      1  0.4456860000000  0.4813440000000  0.5094360000000 1.0
C      1  0.4878350000000  0.5609880000000  0.5289270000000 1.0
C      1  0.4949360000000  0.4271220000000  0.4413310000000 1.0
C      1  0.5681740000000  0.5374810000000  0.5329120000000 1.0
C      1  0.4966180000000  0.4743790000000  0.5704730000000 1.0
C      1  0.4481520000000  0.4407710000000  0.4521880000000 1.0
C      1  0.4163310000000  0.4419130000000  0.4926350000000 1.0
C      1  0.5380050000000  0.4247110000000  0.4695990000000 1.0
C      1  0.5652730000000  0.4865660000000  0.5696200000000 1.0
C      1  0.4700880000000  0.4676460000000  0.5851860000000 1.0
C      1  0.5055490000000  0.5253270000000  0.4950160000000 1.0
C      1  0.4882510000000  0.4762560000000  0.4638220000000 1.0
C      1  0.5356070000000  0.5468030000000  0.5297630000000 1.0
C      1  0.4478070000000  0.4849690000000  0.5879840000000 1.0
C      1  0.4449760000000  0.5800390000000  0.5119750000000 1.0
C      1  0.4353710000000  0.4822100000000  0.4776370000000 1.0
C      1  0.5441970000000  0.4439380000000  0.4277460000000 1.0
C      1  0.4518750000000  0.4816860000000  0.4107530000000 1.0
C      1  0.5340730000000  0.5480900000000  0.5696810000000 1.0
C      1  0.5904360000000  0.4775750000000  0.4954310000000 1.0
C      1  0.5323680000000  0.5796850000000  0.5259460000000 1.0
C      1  0.5097010000000  0.5089720000000  0.3935940000000 1.0
C      1  0.5795190000000  0.4619840000000  0.4729910000000 1.0
C      1  0.4728990000000  0.4642610000000  0.4186020000000 1.0
C      1  0.5589010000000  0.5689020000000  0.5072140000000 1.0
C      1  0.5203360000000  0.5717630000000  0.5569360000000 1.0
C      1  0.5363130000000  0.4762760000000  0.5739970000000 1.0
C      1  0.5394140000000  0.4597990000000  0.5450260000000 1.0
C      1  0.4140800000000  0.5059630000000  0.4895400000000 1.0
C      1  0.4429240000000  0.4393810000000  0.5582470000000 1.0
C      1  0.4621490000000  0.4777510000000  0.5460020000000 1.0
C      1  0.5960310000000  0.5380430000000  0.5133510000000 1.0
C      1  0.4866430000000  0.5273170000000  0.5612200000000 1.0
C      1  0.4955430000000  0.4788530000000  0.4306960000000 1.0
C      1  0.4648300000000  0.4302710000000  0.4927810000000 1.0
END
