TITL C-2782225-7408-959 0.0310869303793368 125000 -1070.47034254438 0 0 183 (C1) n - 1
REM
REM in /home/nfs/bkarasulu/CARBON/AIRSS/Generating-Clusters/REBO/Higher-Symm/SD-CG/HFTN-CG
REM
REM
REM
REM
REM
REM ./C.cell (12c818d87b63d06a65506943cc24bca4)
REM
REM compiler GCC version 9.2.1 20190827 (Red Hat 9.2.1-1)
REM options -cpp -mtune=generic -march=x86-64 -g -O0 -fpre-include=/usr/include/finclude/math-vector-fortran.h
REM seed 695473322 -2033447160 188061867 -202416438 -752612965 1215884068 1483880206 1097816061 -1096072651 1842250497 -1648369314 772121312 -2022142343 -2097288051 1863476733 -682346090 -1662156620 448680600 1389522134 -250862158 -780814610 479626222 1573178519 783919401 1190931232 -251365453 -1935439913 32422776 1897568233 -2110094458 -1204818300 1872482064 -1261948166
REM
CELL 1.54180   50.00000   50.00000   50.00000   90.00000   90.00000   90.00000
LATT -1
SFAC C  
C      1  0.4831120000000  0.5583520000000  0.5585330000000 1.0
C      1  0.4820560000000  0.5233650000000  0.4181680000000 1.0
C      1  0.4862530000000  0.4274660000000  0.5243960000000 1.0
C      1  0.5147920000000  0.5595950000000  0.5540000000000 1.0
C      1  0.5137140000000  0.5190320000000  0.4223930000000 1.0
C      1  0.5180030000000  0.4211990000000  0.5216840000000 1.0
C      1  0.4845150000000  0.4408530000000  0.5523520000000 1.0
C      1  0.4835640000000  0.4932430000000  0.4258030000000 1.0
C      1  0.4854660000000  0.5687470000000  0.5287950000000 1.0
C      1  0.5164240000000  0.4395620000000  0.5471710000000 1.0
C      1  0.5151980000000  0.4883340000000  0.4231360000000 1.0
C      1  0.5171570000000  0.5745860000000  0.5274400000000 1.0
C      1  0.5112360000000  0.5317260000000  0.3916850000000 1.0
C      1  0.5227470000000  0.3892140000000  0.5314560000000 1.0
C      1  0.5138510000000  0.5780540000000  0.5815590000000 1.0
C      1  0.4775700000000  0.5306190000000  0.3857980000000 1.0
C      1  0.4891370000000  0.3942260000000  0.5277060000000 1.0
C      1  0.4799230000000  0.5830190000000  0.5815680000000 1.0
C      1  0.5185660000000  0.4685780000000  0.3971870000000 1.0
C      1  0.5220300000000  0.6073860000000  0.5279660000000 1.0
C      1  0.5132950000000  0.4237660000000  0.5759920000000 1.0
C      1  0.4845420000000  0.4730500000000  0.3996670000000 1.0
C      1  0.4884030000000  0.6020620000000  0.5240690000000 1.0
C      1  0.4795950000000  0.4261260000000  0.5815260000000 1.0
C      1  0.4312720000000  0.4880160000000  0.5861660000000 1.0
C      1  0.4352360000000  0.5790550000000  0.4715990000000 1.0
C      1  0.4357400000000  0.4366190000000  0.4468860000000 1.0
C      1  0.5652690000000  0.4795860000000  0.5834160000000 1.0
C      1  0.5660150000000  0.5794470000000  0.4709690000000 1.0
C      1  0.5674770000000  0.4344350000000  0.4456480000000 1.0
C      1  0.4311880000000  0.5222620000000  0.5854650000000 1.0
C      1  0.4341500000000  0.4184620000000  0.4758560000000 1.0
C      1  0.4320710000000  0.5642040000000  0.4408430000000 1.0
C      1  0.5624430000000  0.5136760000000  0.5815000000000 1.0
C      1  0.5692730000000  0.4163990000000  0.4746910000000 1.0
C      1  0.5674410000000  0.5640860000000  0.4403580000000 1.0
C      1  0.4546470000000  0.5464420000000  0.5638140000000 1.0
C      1  0.4543660000000  0.5334550000000  0.4280270000000 1.0
C      1  0.4593870000000  0.4256020000000  0.5087720000000 1.0
C      1  0.5407350000000  0.5460390000000  0.5638040000000 1.0
C      1  0.5416700000000  0.5335660000000  0.4281630000000 1.0
C      1  0.5459600000000  0.4234330000000  0.5076970000000 1.0
C      1  0.4567950000000  0.4533940000000  0.5633600000000 1.0
C      1  0.4573210000000  0.4788150000000  0.4350780000000 1.0
C      1  0.4590590000000  0.5694850000000  0.5126860000000 1.0
C      1  0.5418340000000  0.4540300000000  0.5587280000000 1.0
C      1  0.5427550000000  0.4731500000000  0.4286690000000 1.0
C      1  0.5432770000000  0.5785270000000  0.5102460000000 1.0
C      1  0.4866090000000  0.3968910000000  0.4570960000000 1.0
C      1  0.4816920000000  0.5181730000000  0.6116440000000 1.0
C      1  0.4828030000000  0.5882960000000  0.4277310000000 1.0
C      1  0.5185480000000  0.3944490000000  0.4605910000000 1.0
C      1  0.5130040000000  0.5125920000000  0.6112840000000 1.0
C      1  0.5153740000000  0.5901100000000  0.4312470000000 1.0
C      1  0.4854130000000  0.6038150000000  0.4535750000000 1.0
C      1  0.4820320000000  0.4876780000000  0.6140440000000 1.0
C      1  0.4837900000000  0.4091970000000  0.4295570000000 1.0
C      1  0.5178370000000  0.6062700000000  0.4569720000000 1.0
C      1  0.5150430000000  0.4825310000000  0.6128150000000 1.0
C      1  0.5166570000000  0.4075450000000  0.4331710000000 1.0
C      1  0.5756940000000  0.4250940000000  0.5235570000000 1.0
C      1  0.5685910000000  0.5594230000000  0.5522180000000 1.0
C      1  0.5686820000000  0.5155370000000  0.4189010000000 1.0
C      1  0.4316330000000  0.4252980000000  0.5282300000000 1.0
C      1  0.4256680000000  0.5603450000000  0.5537790000000 1.0
C      1  0.4250360000000  0.5173560000000  0.4226150000000 1.0
C      1  0.5728360000000  0.5733240000000  0.5240040000000 1.0
C      1  0.5710520000000  0.4390290000000  0.5514070000000 1.0
C      1  0.5726190000000  0.4840270000000  0.4209610000000 1.0
C      1  0.4297520000000  0.5756080000000  0.5264030000000 1.0
C      1  0.4270920000000  0.4420960000000  0.5548290000000 1.0
C      1  0.4269280000000  0.4857150000000  0.4248520000000 1.0
C      1  0.4441920000000  0.4832600000000  0.4757010000000 1.0
C      1  0.4416370000000  0.4846440000000  0.5321010000000 1.0
C      1  0.4428510000000  0.5315850000000  0.4999800000000 1.0
C      1  0.5590120000000  0.4820750000000  0.4719200000000 1.0
C      1  0.5547390000000  0.4819820000000  0.5270540000000 1.0
C      1  0.5565460000000  0.5298150000000  0.4962250000000 1.0
C      1  0.4444230000000  0.5169080000000  0.4714600000000 1.0
C      1  0.4406300000000  0.5154840000000  0.5298660000000 1.0
C      1  0.4446580000000  0.4678680000000  0.5026250000000 1.0
C      1  0.5560880000000  0.5155650000000  0.4687340000000 1.0
C      1  0.5531590000000  0.5135580000000  0.5259340000000 1.0
C      1  0.5587400000000  0.4662520000000  0.4973990000000 1.0
C      1  0.4022100000000  0.4858280000000  0.5287670000000 1.0
C      1  0.4033180000000  0.5315720000000  0.5008140000000 1.0
C      1  0.4046420000000  0.4851590000000  0.4766040000000 1.0
C      1  0.5943200000000  0.4850930000000  0.5251770000000 1.0
C      1  0.5959530000000  0.5296820000000  0.4981400000000 1.0
C      1  0.5984460000000  0.4844680000000  0.4718200000000 1.0
C      1  0.4011910000000  0.5163340000000  0.5276290000000 1.0
C      1  0.4050230000000  0.4699090000000  0.5025520000000 1.0
C      1  0.4049040000000  0.5156100000000  0.4755560000000 1.0
C      1  0.5928090000000  0.5147830000000  0.5251990000000 1.0
C      1  0.5981180000000  0.4701210000000  0.4987900000000 1.0
C      1  0.5956900000000  0.5152450000000  0.4712050000000 1.0
C      1  0.5390920000000  0.5657590000000  0.4836540000000 1.0
C      1  0.5418760000000  0.4531460000000  0.4504710000000 1.0
C      1  0.5409050000000  0.4848110000000  0.5644630000000 1.0
C      1  0.4608630000000  0.5635170000000  0.4840700000000 1.0
C      1  0.4607030000000  0.4552370000000  0.4525730000000 1.0
C      1  0.4573050000000  0.4827720000000  0.5689230000000 1.0
C      1  0.5435910000000  0.4350510000000  0.4775730000000 1.0
C      1  0.5424680000000  0.5516560000000  0.4549560000000 1.0
C      1  0.5354820000000  0.5169190000000  0.5631340000000 1.0
C      1  0.4587610000000  0.4379700000000  0.4795350000000 1.0
C      1  0.4579280000000  0.5516650000000  0.4537890000000 1.0
C      1  0.4565060000000  0.5141700000000  0.5677930000000 1.0
C      1  0.4704490000000  0.4744870000000  0.5323420000000 1.0
C      1  0.4740700000000  0.5278130000000  0.4959930000000 1.0
C      1  0.4752350000000  0.4872270000000  0.4714210000000 1.0
C      1  0.5232660000000  0.4748170000000  0.5300750000000 1.0
C      1  0.5257860000000  0.5249110000000  0.4991100000000 1.0
C      1  0.5287450000000  0.4864640000000  0.4682630000000 1.0
C      1  0.4712690000000  0.5143100000000  0.5220450000000 1.0
C      1  0.4766660000000  0.4637800000000  0.5041660000000 1.0
C      1  0.4737070000000  0.5152720000000  0.4582220000000 1.0
C      1  0.5212250000000  0.5143740000000  0.5260800000000 1.0
C      1  0.5294210000000  0.4619040000000  0.5035560000000 1.0
C      1  0.5259400000000  0.5158240000000  0.4601600000000 1.0
C      1  0.4232810000000  0.4683300000000  0.4532460000000 1.0
C      1  0.4204470000000  0.4751110000000  0.5559370000000 1.0
C      1  0.4235800000000  0.5592050000000  0.4973740000000 1.0
C      1  0.5791880000000  0.4668110000000  0.4494130000000 1.0
C      1  0.5764470000000  0.4722380000000  0.5514800000000 1.0
C      1  0.5762020000000  0.5575970000000  0.4955970000000 1.0
C      1  0.4220770000000  0.5327890000000  0.4513280000000 1.0
C      1  0.4206930000000  0.5284010000000  0.5532020000000 1.0
C      1  0.4239740000000  0.4413410000000  0.4996120000000 1.0
C      1  0.5764920000000  0.5316160000000  0.4477030000000 1.0
C      1  0.5724950000000  0.5256550000000  0.5507870000000 1.0
C      1  0.5798350000000  0.4411540000000  0.4961850000000 1.0
C      1  0.4581930000000  0.5718600000000  0.4196190000000 1.0
C      1  0.4621480000000  0.3985080000000  0.4772580000000 1.0
C      1  0.4587990000000  0.5351730000000  0.6014310000000 1.0
C      1  0.5399490000000  0.5728480000000  0.4215410000000 1.0
C      1  0.5423860000000  0.3954920000000  0.4796470000000 1.0
C      1  0.5379100000000  0.5278540000000  0.6010500000000 1.0
C      1  0.4604420000000  0.4284000000000  0.4240410000000 1.0
C      1  0.4613410000000  0.6014770000000  0.4732330000000 1.0
C      1  0.4546850000000  0.4733170000000  0.6069620000000 1.0
C      1  0.5424040000000  0.4233900000000  0.4246520000000 1.0
C      1  0.5422620000000  0.6040770000000  0.4752340000000 1.0
C      1  0.5376810000000  0.4662740000000  0.5993370000000 1.0
C      1  0.4808120000000  0.5192150000000  0.5507920000000 1.0
C      1  0.4872710000000  0.5429440000000  0.4525710000000 1.0
C      1  0.4891500000000  0.4410010000000  0.4869580000000 1.0
C      1  0.5063680000000  0.5189630000000  0.5531710000000 1.0
C      1  0.5124090000000  0.5440730000000  0.4534030000000 1.0
C      1  0.5144370000000  0.4402020000000  0.4867020000000 1.0
C      1  0.4865360000000  0.4798890000000  0.5604360000000 1.0
C      1  0.4890340000000  0.4642420000000  0.4545270000000 1.0
C      1  0.4895670000000  0.5541490000000  0.4907610000000 1.0
C      1  0.5113010000000  0.4797570000000  0.5583550000000 1.0
C      1  0.5135520000000  0.4629220000000  0.4538860000000 1.0
C      1  0.5146090000000  0.5522890000000  0.4924660000000 1.0
C      1  0.4485940000000  0.5173320000000  0.3976640000000 1.0
C      1  0.4569090000000  0.4029840000000  0.5350330000000 1.0
C      1  0.4510450000000  0.5811870000000  0.5636440000000 1.0
C      1  0.5432830000000  0.5203900000000  0.3960930000000 1.0
C      1  0.5510860000000  0.4063750000000  0.5378990000000 1.0
C      1  0.5457930000000  0.5793620000000  0.5691790000000 1.0
C      1  0.4527240000000  0.4851730000000  0.4018360000000 1.0
C      1  0.4566320000000  0.5955600000000  0.5348270000000 1.0
C      1  0.4521850000000  0.4196130000000  0.5621940000000 1.0
C      1  0.5466290000000  0.4881490000000  0.3985220000000 1.0
C      1  0.5500760000000  0.5929370000000  0.5406760000000 1.0
C      1  0.5459020000000  0.4209640000000  0.5664330000000 1.0
C      1  0.5164320000000  0.5504320000000  0.5998180000000 1.0
C      1  0.5157420000000  0.5621000000000  0.4035220000000 1.0
C      1  0.5167700000000  0.3879160000000  0.4995540000000 1.0
C      1  0.4853330000000  0.5553400000000  0.5982960000000 1.0
C      1  0.4838140000000  0.5593130000000  0.4010010000000 1.0
C      1  0.4854210000000  0.3887440000000  0.4957260000000 1.0
C      1  0.5097550000000  0.4467870000000  0.5976110000000 1.0
C      1  0.5199280000000  0.4381140000000  0.4081610000000 1.0
C      1  0.5163660000000  0.6104710000000  0.4963210000000 1.0
C      1  0.4770090000000  0.4500720000000  0.6031970000000 1.0
C      1  0.4875850000000  0.4426700000000  0.4091080000000 1.0
C      1  0.4849100000000  0.6089620000000  0.4927780000000 1.0
C      1  0.5030730000000  0.4784180000000  0.4891020000000 1.0
C      1  0.5001120000000  0.5170960000000  0.4801400000000 1.0
C      1  0.4960730000000  0.4935750000000  0.5241780000000 1.0
END
