TITL C-2782232-2968-235 0.00145720945932358 125000 -869.014011193634 0 0 149 (C1) n - 1
REM
REM in /home/nfs/bkarasulu/CARBON/AIRSS/Generating-Clusters/REBO/Higher-Symm/SD-CG/HFTN-CG
REM
REM
REM
REM
REM
REM ./C.cell (12c818d87b63d06a65506943cc24bca4)
REM
REM compiler GCC version 9.2.1 20190827 (Red Hat 9.2.1-1)
REM options -cpp -mtune=generic -march=x86-64 -g -O0 -fpre-include=/usr/include/finclude/math-vector-fortran.h
REM seed -1965046346 -1588328467 -2043414738 847499039 -931372028 1835569874 673873508 1794196999 -1907839759 1878638377 1035517272 530728951 183770117 347297393 -1906694566 -1868774938 -1312333042 -1841008988 -705797471 -1306885902 1267888687 247676471 1475249265 -1283327380 815116797 1223360113 1713854479 -1527100660 1048472385 -354025892 -908255710 -543574612 567445356
REM
CELL 1.54180   50.00000   50.00000   50.00000   90.00000   90.00000   90.00000
LATT -1
SFAC C  
C      1  0.5295980000000  0.4641160000000  0.5964620000000 1.0
C      1  0.4961510000000  0.4944050000000  0.3880340000000 1.0
C      1  0.5356780000000  0.4643650000000  0.4140010000000 1.0
C      1  0.5046160000000  0.4850560000000  0.5542140000000 1.0
C      1  0.4462050000000  0.4220200000000  0.4697480000000 1.0
C      1  0.5408840000000  0.4106850000000  0.4890780000000 1.0
C      1  0.5071900000000  0.5770660000000  0.4657650000000 1.0
C      1  0.4801070000000  0.5706470000000  0.5662570000000 1.0
C      1  0.5779190000000  0.4770910000000  0.5760300000000 1.0
C      1  0.5181710000000  0.4389100000000  0.4725670000000 1.0
C      1  0.5063220000000  0.4419690000000  0.5849980000000 1.0
C      1  0.5157980000000  0.4158420000000  0.4402730000000 1.0
C      1  0.5398220000000  0.6072720000000  0.4850590000000 1.0
C      1  0.5815870000000  0.4997300000000  0.5217110000000 1.0
C      1  0.5199700000000  0.4259110000000  0.5615470000000 1.0
C      1  0.4795310000000  0.5091060000000  0.4352010000000 1.0
C      1  0.4603210000000  0.5072150000000  0.5689580000000 1.0
C      1  0.4488300000000  0.5865200000000  0.5369260000000 1.0
C      1  0.4553040000000  0.5473090000000  0.5704940000000 1.0
C      1  0.4979730000000  0.4658140000000  0.4291440000000 1.0
C      1  0.6041910000000  0.5210520000000  0.4966540000000 1.0
C      1  0.4115640000000  0.5093780000000  0.4669260000000 1.0
C      1  0.4672100000000  0.4747070000000  0.4240700000000 1.0
C      1  0.5016180000000  0.4739280000000  0.5817080000000 1.0
C      1  0.5719780000000  0.5653610000000  0.4367010000000 1.0
C      1  0.5901770000000  0.5081350000000  0.4489950000000 1.0
C      1  0.4793570000000  0.4443540000000  0.4693310000000 1.0
C      1  0.4981400000000  0.5902000000000  0.5199370000000 1.0
C      1  0.5678880000000  0.5287410000000  0.5699580000000 1.0
C      1  0.5715780000000  0.4468980000000  0.5613300000000 1.0
C      1  0.4886820000000  0.4385900000000  0.5017340000000 1.0
C      1  0.5301670000000  0.5458180000000  0.4259430000000 1.0
C      1  0.4589150000000  0.4635810000000  0.4675090000000 1.0
C      1  0.4686480000000  0.4077730000000  0.4807330000000 1.0
C      1  0.4868050000000  0.5801870000000  0.4927250000000 1.0
C      1  0.5673040000000  0.5319070000000  0.4577780000000 1.0
C      1  0.5226660000000  0.5630720000000  0.4912140000000 1.0
C      1  0.4926270000000  0.4822390000000  0.4777960000000 1.0
C      1  0.5975900000000  0.5431650000000  0.5054730000000 1.0
C      1  0.4040370000000  0.4817640000000  0.5245110000000 1.0
C      1  0.4775400000000  0.5266210000000  0.5865950000000 1.0
C      1  0.4621840000000  0.4245370000000  0.5563430000000 1.0
C      1  0.4994430000000  0.4105300000000  0.4763210000000 1.0
C      1  0.4081230000000  0.4698770000000  0.4721750000000 1.0
C      1  0.4216290000000  0.4601670000000  0.5442360000000 1.0
C      1  0.5202100000000  0.4930470000000  0.4034990000000 1.0
C      1  0.5203000000000  0.4997910000000  0.4551090000000 1.0
C      1  0.5310300000000  0.5121050000000  0.5669360000000 1.0
C      1  0.4924630000000  0.5105550000000  0.5260460000000 1.0
C      1  0.5459760000000  0.5688930000000  0.4244700000000 1.0
C      1  0.4317580000000  0.4969000000000  0.5809740000000 1.0
C      1  0.5098260000000  0.4680790000000  0.4571630000000 1.0
C      1  0.4698780000000  0.5888370000000  0.4577870000000 1.0
C      1  0.5179750000000  0.5147620000000  0.4267670000000 1.0
C      1  0.4451300000000  0.5424390000000  0.4221910000000 1.0
C      1  0.4576880000000  0.5381020000000  0.4707860000000 1.0
C      1  0.5555070000000  0.5695180000000  0.5315940000000 1.0
C      1  0.4931780000000  0.5465090000000  0.4869490000000 1.0
C      1  0.5652880000000  0.4857500000000  0.4702450000000 1.0
C      1  0.4360830000000  0.4654050000000  0.4349310000000 1.0
C      1  0.4926510000000  0.5372010000000  0.4211920000000 1.0
C      1  0.5629670000000  0.4525800000000  0.5094290000000 1.0
C      1  0.4888650000000  0.5462550000000  0.5456320000000 1.0
C      1  0.5736990000000  0.5633790000000  0.5032900000000 1.0
C      1  0.4903640000000  0.4703850000000  0.5064370000000 1.0
C      1  0.5479140000000  0.5907990000000  0.4639480000000 1.0
C      1  0.5417030000000  0.5312100000000  0.5266270000000 1.0
C      1  0.4094670000000  0.5203040000000  0.5403060000000 1.0
C      1  0.5244610000000  0.5407590000000  0.5827990000000 1.0
C      1  0.4026500000000  0.4933290000000  0.4949050000000 1.0
C      1  0.5641220000000  0.4614220000000  0.4325830000000 1.0
C      1  0.4376280000000  0.5623730000000  0.5453120000000 1.0
C      1  0.4508630000000  0.4485490000000  0.4095170000000 1.0
C      1  0.5110780000000  0.5600660000000  0.5676330000000 1.0
C      1  0.4670480000000  0.4059780000000  0.5098360000000 1.0
C      1  0.5615510000000  0.4566900000000  0.4615180000000 1.0
C      1  0.4785750000000  0.4826040000000  0.5956170000000 1.0
C      1  0.4179920000000  0.5419020000000  0.4706290000000 1.0
C      1  0.4440460000000  0.5098570000000  0.4707870000000 1.0
C      1  0.5566920000000  0.5465250000000  0.5517220000000 1.0
C      1  0.4316150000000  0.4969910000000  0.4419210000000 1.0
C      1  0.4855530000000  0.5286980000000  0.4593710000000 1.0
C      1  0.5306930000000  0.5830150000000  0.5287450000000 1.0
C      1  0.4127980000000  0.4909490000000  0.5560620000000 1.0
C      1  0.4695820000000  0.4995920000000  0.4042470000000 1.0
C      1  0.5158320000000  0.5143850000000  0.4809250000000 1.0
C      1  0.5909360000000  0.4689500000000  0.4989780000000 1.0
C      1  0.4729570000000  0.4460590000000  0.5804600000000 1.0
C      1  0.4424110000000  0.4500870000000  0.5649820000000 1.0
C      1  0.5075050000000  0.5501050000000  0.4495240000000 1.0
C      1  0.5894050000000  0.4699060000000  0.5326550000000 1.0
C      1  0.5254200000000  0.6063170000000  0.5085910000000 1.0
C      1  0.5274880000000  0.4010320000000  0.4639470000000 1.0
C      1  0.5570450000000  0.4544620000000  0.5892560000000 1.0
C      1  0.5679270000000  0.5639050000000  0.4700030000000 1.0
C      1  0.5511200000000  0.4950260000000  0.4164890000000 1.0
C      1  0.5964400000000  0.4956720000000  0.4800180000000 1.0
C      1  0.5147340000000  0.4774650000000  0.5237340000000 1.0
C      1  0.5330740000000  0.5909380000000  0.4388810000000 1.0
C      1  0.5505400000000  0.5039080000000  0.4478880000000 1.0
C      1  0.4262990000000  0.5583980000000  0.4933000000000 1.0
C      1  0.4847720000000  0.5082010000000  0.4947250000000 1.0
C      1  0.4916270000000  0.4139920000000  0.5491560000000 1.0
C      1  0.4737500000000  0.5814900000000  0.4261760000000 1.0
C      1  0.4295180000000  0.4390790000000  0.5194500000000 1.0
C      1  0.4743320000000  0.4918320000000  0.5470200000000 1.0
C      1  0.5490370000000  0.5049390000000  0.5439980000000 1.0
C      1  0.5806950000000  0.5014390000000  0.5549640000000 1.0
C      1  0.4364300000000  0.5494530000000  0.4480700000000 1.0
C      1  0.4973990000000  0.4434320000000  0.5343730000000 1.0
C      1  0.4437720000000  0.5141710000000  0.4180770000000 1.0
C      1  0.5281700000000  0.4542660000000  0.5439650000000 1.0
C      1  0.4996230000000  0.5963730000000  0.4417550000000 1.0
C      1  0.4235040000000  0.4352490000000  0.4886280000000 1.0
C      1  0.4697260000000  0.5558830000000  0.4153500000000 1.0
C      1  0.4489790000000  0.5218320000000  0.5404250000000 1.0
C      1  0.4519250000000  0.5052350000000  0.5010010000000 1.0
C      1  0.5618050000000  0.4994270000000  0.4995730000000 1.0
C      1  0.5495520000000  0.4407230000000  0.4847700000000 1.0
C      1  0.4879330000000  0.4307030000000  0.4445570000000 1.0
C      1  0.4984750000000  0.4087320000000  0.5162510000000 1.0
C      1  0.4234350000000  0.5138520000000  0.5108540000000 1.0
C      1  0.5290860000000  0.4067120000000  0.5148030000000 1.0
C      1  0.4536610000000  0.5770820000000  0.4852730000000 1.0
C      1  0.5817430000000  0.4886030000000  0.4284900000000 1.0
C      1  0.4517460000000  0.4726420000000  0.5870380000000 1.0
C      1  0.5331890000000  0.4920220000000  0.5090410000000 1.0
C      1  0.4762080000000  0.5899930000000  0.5415760000000 1.0
C      1  0.4369960000000  0.4724100000000  0.4827220000000 1.0
C      1  0.4496250000000  0.4182010000000  0.5286000000000 1.0
C      1  0.5624240000000  0.5040950000000  0.5898850000000 1.0
C      1  0.4228090000000  0.5460180000000  0.5224670000000 1.0
C      1  0.5149750000000  0.4398320000000  0.4166580000000 1.0
C      1  0.5301500000000  0.4972430000000  0.5969760000000 1.0
C      1  0.4657540000000  0.4815730000000  0.5197430000000 1.0
C      1  0.5146970000000  0.5269620000000  0.5115250000000 1.0
C      1  0.5635320000000  0.4343470000000  0.5374120000000 1.0
C      1  0.4807400000000  0.4387790000000  0.4136350000000 1.0
C      1  0.5412560000000  0.4169380000000  0.5385890000000 1.0
C      1  0.4640770000000  0.5486770000000  0.5009780000000 1.0
C      1  0.5481030000000  0.5228170000000  0.4829280000000 1.0
C      1  0.5553340000000  0.4732660000000  0.5362560000000 1.0
C      1  0.4658690000000  0.5401210000000  0.5281940000000 1.0
C      1  0.4269790000000  0.5283150000000  0.5683600000000 1.0
C      1  0.5047660000000  0.5202300000000  0.5957630000000 1.0
C      1  0.4402070000000  0.4681240000000  0.5101710000000 1.0
C      1  0.5021470000000  0.5190750000000  0.5559890000000 1.0
C      1  0.5461710000000  0.5479760000000  0.4995080000000 1.0
C      1  0.4252620000000  0.4453000000000  0.4559720000000 1.0
END
