TITL C-2782239-8622-14 0.000983625430114756 125000 -406.311186274015 0 0 70 (C1) n - 1
REM
REM in /home/nfs/bkarasulu/CARBON/AIRSS/Generating-Clusters/REBO/Higher-Symm/SD-CG/HFTN-CG
REM
REM
REM
REM
REM
REM ./C.cell (12c818d87b63d06a65506943cc24bca4)
REM
REM compiler GCC version 9.2.1 20190827 (Red Hat 9.2.1-1)
REM options -cpp -mtune=generic -march=x86-64 -g -O0 -fpre-include=/usr/include/finclude/math-vector-fortran.h
REM seed 410714967 666168038 118930301 1019015951 -377826643 1273131460 -705235248 1736465664 141922192 -2137350720 -1572976589 29251102 -10126091 -1153437239 122970553 39297993 -1266235757 -418414641 -348729147 1942449194 410918887 -1342993656 -1498597940 -285094627 -1272256531 -488795079 1933032245 -403372576 -1070748997 -1126998179 -1405202730 685290648 317845997
REM
CELL 1.54180   50.00000   50.00000   50.00000   90.00000   90.00000   90.00000
LATT -1
SFAC C  
C      1  0.5552510000000  0.4452010000000  0.5047170000000 1.0
C      1  0.5136460000000  0.5422510000000  0.4533980000000 1.0
C      1  0.5222340000000  0.5635560000000  0.5321820000000 1.0
C      1  0.4818750000000  0.4427510000000  0.4614190000000 1.0
C      1  0.4743840000000  0.4618110000000  0.4997230000000 1.0
C      1  0.4979220000000  0.4718070000000  0.5303560000000 1.0
C      1  0.4665450000000  0.5636890000000  0.5273200000000 1.0
C      1  0.4857500000000  0.5583900000000  0.4644790000000 1.0
C      1  0.4696810000000  0.4933590000000  0.4947420000000 1.0
C      1  0.5424620000000  0.4248150000000  0.5177730000000 1.0
C      1  0.5572130000000  0.4759920000000  0.4602350000000 1.0
C      1  0.5610500000000  0.4877170000000  0.4892280000000 1.0
C      1  0.4593350000000  0.5467290000000  0.4571500000000 1.0
C      1  0.4787740000000  0.4302950000000  0.5145250000000 1.0
C      1  0.5756850000000  0.5178460000000  0.5289610000000 1.0
C      1  0.4973170000000  0.4899590000000  0.5598330000000 1.0
C      1  0.4670740000000  0.5327890000000  0.5727200000000 1.0
C      1  0.5124810000000  0.4249440000000  0.5136570000000 1.0
C      1  0.5758960000000  0.5216080000000  0.5044200000000 1.0
C      1  0.5453870000000  0.5192840000000  0.4419560000000 1.0
C      1  0.4521480000000  0.5185810000000  0.5540350000000 1.0
C      1  0.4869610000000  0.4749270000000  0.4187660000000 1.0
C      1  0.4917180000000  0.4710130000000  0.4517200000000 1.0
C      1  0.4681500000000  0.5024350000000  0.4408330000000 1.0
C      1  0.4561660000000  0.4769080000000  0.4307610000000 1.0
C      1  0.4977600000000  0.4505920000000  0.5570050000000 1.0
C      1  0.5071630000000  0.5151900000000  0.4711940000000 1.0
C      1  0.5002390000000  0.5227060000000  0.5350750000000 1.0
C      1  0.4456180000000  0.5166920000000  0.5005820000000 1.0
C      1  0.5278270000000  0.5675150000000  0.5033230000000 1.0
C      1  0.4950090000000  0.4244170000000  0.4851640000000 1.0
C      1  0.5294960000000  0.5318530000000  0.5744320000000 1.0
C      1  0.4957220000000  0.5617590000000  0.5423260000000 1.0
C      1  0.4714900000000  0.4439250000000  0.5413670000000 1.0
C      1  0.5575870000000  0.4725880000000  0.5130120000000 1.0
C      1  0.4607040000000  0.5289120000000  0.4352500000000 1.0
C      1  0.4930580000000  0.5393410000000  0.5628700000000 1.0
C      1  0.5277980000000  0.5019040000000  0.5696280000000 1.0
C      1  0.4300470000000  0.4888760000000  0.4967420000000 1.0
C      1  0.5317590000000  0.5726860000000  0.4746720000000 1.0
C      1  0.4526160000000  0.4653070000000  0.5387610000000 1.0
C      1  0.5298470000000  0.5345410000000  0.5000000000000 1.0
C      1  0.4820290000000  0.5375640000000  0.5136900000000 1.0
C      1  0.4521430000000  0.5893420000000  0.5239560000000 1.0
C      1  0.5171990000000  0.4799770000000  0.4319050000000 1.0
C      1  0.5482180000000  0.4470200000000  0.4727730000000 1.0
C      1  0.4521970000000  0.4435900000000  0.4657290000000 1.0
C      1  0.4511090000000  0.5332350000000  0.5269790000000 1.0
C      1  0.4436300000000  0.5378230000000  0.4776790000000 1.0
C      1  0.5546440000000  0.5260210000000  0.4819350000000 1.0
C      1  0.5407010000000  0.5434050000000  0.5470530000000 1.0
C      1  0.5425930000000  0.4880780000000  0.5352350000000 1.0
C      1  0.4839520000000  0.4973270000000  0.4679010000000 1.0
C      1  0.5574300000000  0.5119740000000  0.5543710000000 1.0
C      1  0.5297740000000  0.5186190000000  0.5268020000000 1.0
C      1  0.5085500000000  0.5809750000000  0.4619460000000 1.0
C      1  0.5255990000000  0.4701380000000  0.5586140000000 1.0
C      1  0.4243950000000  0.4818920000000  0.4692250000000 1.0
C      1  0.4394810000000  0.4647330000000  0.4513480000000 1.0
C      1  0.5154840000000  0.4425600000000  0.4667080000000 1.0
C      1  0.4648350000000  0.4911080000000  0.5492730000000 1.0
C      1  0.5255600000000  0.4701640000000  0.4838520000000 1.0
C      1  0.4986370000000  0.5411530000000  0.4899470000000 1.0
C      1  0.4832750000000  0.4988840000000  0.5235890000000 1.0
C      1  0.4373910000000  0.4663680000000  0.5138440000000 1.0
C      1  0.5458550000000  0.5481480000000  0.4595160000000 1.0
C      1  0.5065300000000  0.4571490000000  0.5049950000000 1.0
C      1  0.5416630000000  0.4909760000000  0.4412310000000 1.0
C      1  0.5319610000000  0.5008480000000  0.4787370000000 1.0
C      1  0.4463180000000  0.4434670000000  0.4948510000000 1.0
END
