TITL C-2782232-2968-95 -0.000368442039423847 125000 -626.768185561824 0 0 107 (C1) n - 1
REM
REM in /home/nfs/bkarasulu/CARBON/AIRSS/Generating-Clusters/REBO/Higher-Symm/SD-CG/HFTN-CG
REM
REM
REM
REM
REM
REM ./C.cell (12c818d87b63d06a65506943cc24bca4)
REM
REM compiler GCC version 9.2.1 20190827 (Red Hat 9.2.1-1)
REM options -cpp -mtune=generic -march=x86-64 -g -O0 -fpre-include=/usr/include/finclude/math-vector-fortran.h
REM seed -233928771 -1012179648 334311588 143695550 347744151 -1584694766 -1902369760 1135551722 219728658 390606331 -772412471 -973964521 719857811 44782566 -1881315659 -1183038584 -888680504 -44900083 1721773046 67371754 -1147886704 323405154 72372847 705889320 -1670567936 1808431203 -1552285531 929699589 -777905097 -1029443746 -611656740 -604942653 443882170
REM
CELL 1.54180   50.00000   50.00000   50.00000   90.00000   90.00000   90.00000
LATT -1
SFAC C  
C      1  0.4933190000000  0.5397060000000  0.5430880000000 1.0
C      1  0.5059450000000  0.4787750000000  0.5408660000000 1.0
C      1  0.4946910000000  0.4485340000000  0.5173040000000 1.0
C      1  0.5058880000000  0.4876390000000  0.4531250000000 1.0
C      1  0.4997720000000  0.5513040000000  0.4826210000000 1.0
C      1  0.5310730000000  0.4167580000000  0.4888340000000 1.0
C      1  0.5259420000000  0.4791480000000  0.4299860000000 1.0
C      1  0.5258860000000  0.5701450000000  0.4677900000000 1.0
C      1  0.5473640000000  0.5701880000000  0.5596410000000 1.0
C      1  0.5266980000000  0.4737110000000  0.5666690000000 1.0
C      1  0.5504590000000  0.4468700000000  0.4518910000000 1.0
C      1  0.5366510000000  0.5203120000000  0.4538800000000 1.0
C      1  0.5422030000000  0.5687740000000  0.5082440000000 1.0
C      1  0.5403400000000  0.5242560000000  0.5502190000000 1.0
C      1  0.5287510000000  0.4460620000000  0.5378520000000 1.0
C      1  0.4400250000000  0.4955050000000  0.4456330000000 1.0
C      1  0.4317990000000  0.5504120000000  0.4791130000000 1.0
C      1  0.4279710000000  0.5350530000000  0.5286400000000 1.0
C      1  0.4128580000000  0.4729600000000  0.5387440000000 1.0
C      1  0.4374220000000  0.4443030000000  0.4853740000000 1.0
C      1  0.5266380000000  0.5854840000000  0.5746570000000 1.0
C      1  0.5119300000000  0.4685550000000  0.5942010000000 1.0
C      1  0.5103070000000  0.4099590000000  0.4698540000000 1.0
C      1  0.5086620000000  0.4830760000000  0.4038580000000 1.0
C      1  0.5015320000000  0.5885540000000  0.4687320000000 1.0
C      1  0.5913500000000  0.4721280000000  0.4348120000000 1.0
C      1  0.6050640000000  0.5670750000000  0.4615210000000 1.0
C      1  0.6097890000000  0.5483340000000  0.5462930000000 1.0
C      1  0.6018350000000  0.4639230000000  0.5560080000000 1.0
C      1  0.5836580000000  0.4480530000000  0.4472940000000 1.0
C      1  0.5565120000000  0.5415810000000  0.4981160000000 1.0
C      1  0.5450580000000  0.5139590000000  0.5219120000000 1.0
C      1  0.5371200000000  0.4769480000000  0.5270840000000 1.0
C      1  0.5468750000000  0.4677120000000  0.4761930000000 1.0
C      1  0.5499700000000  0.5160790000000  0.4807650000000 1.0
C      1  0.5846040000000  0.5377720000000  0.5429590000000 1.0
C      1  0.5761360000000  0.4672590000000  0.5466560000000 1.0
C      1  0.5799730000000  0.4456790000000  0.4783730000000 1.0
C      1  0.5764910000000  0.4945970000000  0.4433380000000 1.0
C      1  0.5852620000000  0.5561430000000  0.4749020000000 1.0
C      1  0.5276260000000  0.5764320000000  0.5357310000000 1.0
C      1  0.5285980000000  0.5041430000000  0.5732410000000 1.0
C      1  0.5187720000000  0.4245480000000  0.5151230000000 1.0
C      1  0.5266940000000  0.4474060000000  0.4335570000000 1.0
C      1  0.5193830000000  0.5477760000000  0.4479600000000 1.0
C      1  0.4944140000000  0.4420730000000  0.4228280000000 1.0
C      1  0.4856290000000  0.5456220000000  0.4444620000000 1.0
C      1  0.4935030000000  0.5800250000000  0.5336880000000 1.0
C      1  0.5033310000000  0.5168460000000  0.5922850000000 1.0
C      1  0.4854530000000  0.4172960000000  0.5126950000000 1.0
C      1  0.4775610000000  0.5334880000000  0.5840580000000 1.0
C      1  0.4553290000000  0.4158850000000  0.5217830000000 1.0
C      1  0.4712870000000  0.4245110000000  0.4362850000000 1.0
C      1  0.4661720000000  0.5367840000000  0.4229390000000 1.0
C      1  0.4641310000000  0.5768830000000  0.5290890000000 1.0
C      1  0.5605330000000  0.5456350000000  0.5558710000000 1.0
C      1  0.5524060000000  0.4570560000000  0.5581480000000 1.0
C      1  0.5540230000000  0.4287360000000  0.4802680000000 1.0
C      1  0.5490400000000  0.4993900000000  0.4353690000000 1.0
C      1  0.5550740000000  0.5689150000000  0.4782580000000 1.0
C      1  0.4362850000000  0.4665000000000  0.4639510000000 1.0
C      1  0.4340960000000  0.5242930000000  0.4592060000000 1.0
C      1  0.4145640000000  0.5429760000000  0.5008780000000 1.0
C      1  0.4203720000000  0.5061390000000  0.5371060000000 1.0
C      1  0.4232710000000  0.4547070000000  0.5119110000000 1.0
C      1  0.4825100000000  0.4732860000000  0.5069110000000 1.0
C      1  0.4873480000000  0.4906670000000  0.4808450000000 1.0
C      1  0.4877730000000  0.5235350000000  0.4901780000000 1.0
C      1  0.4819580000000  0.5232650000000  0.5233610000000 1.0
C      1  0.4788920000000  0.4944520000000  0.5322050000000 1.0
C      1  0.5867640000000  0.5271830000000  0.4911210000000 1.0
C      1  0.5781260000000  0.5169230000000  0.5209470000000 1.0
C      1  0.5703270000000  0.4837300000000  0.5208880000000 1.0
C      1  0.5760660000000  0.4748870000000  0.4921810000000 1.0
C      1  0.5793650000000  0.5009790000000  0.4733320000000 1.0
C      1  0.5102090000000  0.4211120000000  0.4444920000000 1.0
C      1  0.5031900000000  0.5191190000000  0.4537210000000 1.0
C      1  0.5099050000000  0.5669950000000  0.5076020000000 1.0
C      1  0.5110410000000  0.5312090000000  0.5623170000000 1.0
C      1  0.4979680000000  0.4476410000000  0.5513140000000 1.0
C      1  0.4450570000000  0.4310400000000  0.5412280000000 1.0
C      1  0.4585250000000  0.4163910000000  0.4554760000000 1.0
C      1  0.4591900000000  0.5141940000000  0.4155660000000 1.0
C      1  0.4532870000000  0.5844040000000  0.5052560000000 1.0
C      1  0.4623840000000  0.5438300000000  0.5680920000000 1.0
C      1  0.4849920000000  0.4680890000000  0.4097520000000 1.0
C      1  0.4758570000000  0.5680860000000  0.4653150000000 1.0
C      1  0.5022160000000  0.5904180000000  0.5631860000000 1.0
C      1  0.5015760000000  0.4884530000000  0.6060350000000 1.0
C      1  0.4857410000000  0.4066200000000  0.4827450000000 1.0
C      1  0.4487770000000  0.4885060000000  0.5438730000000 1.0
C      1  0.4501070000000  0.4727980000000  0.5149100000000 1.0
C      1  0.4670290000000  0.4801480000000  0.4583370000000 1.0
C      1  0.4548530000000  0.5180970000000  0.4835250000000 1.0
C      1  0.4554610000000  0.5355400000000  0.5101070000000 1.0
C      1  0.4540670000000  0.4179880000000  0.4880150000000 1.0
C      1  0.4645330000000  0.4839620000000  0.4246210000000 1.0
C      1  0.4507280000000  0.5705750000000  0.4807660000000 1.0
C      1  0.4516630000000  0.5526330000000  0.5420100000000 1.0
C      1  0.4382530000000  0.4565380000000  0.5494300000000 1.0
C      1  0.4090320000000  0.4810250000000  0.4718340000000 1.0
C      1  0.4066330000000  0.5092800000000  0.4678110000000 1.0
C      1  0.3975550000000  0.5210330000000  0.4933490000000 1.0
C      1  0.3979860000000  0.4995820000000  0.5133510000000 1.0
C      1  0.4019940000000  0.4748450000000  0.4993590000000 1.0
C      1  0.4490740000000  0.4914970000000  0.4922040000000 1.0
C      1  0.5387660000000  0.4910080000000  0.4974740000000 1.0
END
