TITL C-2782226-7400-1223 0.00199099659206336 125000 -1094.37650252764 0 0 189 (C1) n - 1
REM
REM in /home/nfs/bkarasulu/CARBON/AIRSS/Generating-Clusters/REBO/Higher-Symm/SD-CG/HFTN-CG
REM
REM
REM
REM
REM
REM ./C.cell (12c818d87b63d06a65506943cc24bca4)
REM
REM compiler GCC version 9.2.1 20190827 (Red Hat 9.2.1-1)
REM options -cpp -mtune=generic -march=x86-64 -g -O0 -fpre-include=/usr/include/finclude/math-vector-fortran.h
REM seed -1527433096 2071573877 367124293 -1458228457 -1941828298 -1548105756 453598775 -1627742544 1571069881 -779158535 521946379 -1320921279 1894895834 501455032 595521089 1934124132 -1009542367 234760491 -861802748 492629370 343278907 -1264806701 330652936 -674935514 2008669941 1941093376 2138000386 -850301255 1612435581 -931095735 768685061 1814225222 -1399938830
REM
CELL 1.54180   50.00000   50.00000   50.00000   90.00000   90.00000   90.00000
LATT -1
SFAC C  
C      1  0.4730680000000  0.3969600000000  0.4519860000000 1.0
C      1  0.5397340000000  0.4126440000000  0.4493190000000 1.0
C      1  0.5408650000000  0.4012840000000  0.5199440000000 1.0
C      1  0.5194590000000  0.6092240000000  0.5139850000000 1.0
C      1  0.4120680000000  0.5647140000000  0.4629160000000 1.0
C      1  0.3908850000000  0.5001320000000  0.5593410000000 1.0
C      1  0.4155850000000  0.5390180000000  0.5722210000000 1.0
C      1  0.5258280000000  0.5024570000000  0.4946810000000 1.0
C      1  0.5504990000000  0.5470360000000  0.5415130000000 1.0
C      1  0.5473660000000  0.5001410000000  0.4356450000000 1.0
C      1  0.4802380000000  0.5731060000000  0.4372520000000 1.0
C      1  0.4590370000000  0.4443460000000  0.5206040000000 1.0
C      1  0.3980570000000  0.4949910000000  0.4517670000000 1.0
C      1  0.5542240000000  0.5031230000000  0.3964210000000 1.0
C      1  0.5457730000000  0.4799930000000  0.5095250000000 1.0
C      1  0.4351780000000  0.5102640000000  0.5525200000000 1.0
C      1  0.4380430000000  0.4758950000000  0.5888980000000 1.0
C      1  0.5655430000000  0.5218110000000  0.5251170000000 1.0
C      1  0.5284280000000  0.4332890000000  0.5432860000000 1.0
C      1  0.4658700000000  0.5943460000000  0.5105940000000 1.0
C      1  0.4348610000000  0.4277300000000  0.4210350000000 1.0
C      1  0.4951220000000  0.5782080000000  0.5190280000000 1.0
C      1  0.5270800000000  0.5123550000000  0.5246810000000 1.0
C      1  0.4744220000000  0.5116410000000  0.3795960000000 1.0
C      1  0.4022780000000  0.5512140000000  0.4930850000000 1.0
C      1  0.5492850000000  0.5486220000000  0.5893390000000 1.0
C      1  0.4635730000000  0.4049870000000  0.4836480000000 1.0
C      1  0.4681960000000  0.4135080000000  0.5134550000000 1.0
C      1  0.5137130000000  0.4596840000000  0.5919560000000 1.0
C      1  0.5841140000000  0.4815600000000  0.4676460000000 1.0
C      1  0.4386330000000  0.4779240000000  0.5120460000000 1.0
C      1  0.4872430000000  0.5269740000000  0.4846230000000 1.0
C      1  0.5029220000000  0.4824030000000  0.4586250000000 1.0
C      1  0.5716450000000  0.4620760000000  0.5805210000000 1.0
C      1  0.5071100000000  0.5167600000000  0.5706070000000 1.0
C      1  0.5932820000000  0.4712360000000  0.5308210000000 1.0
C      1  0.5241210000000  0.4425270000000  0.4845070000000 1.0
C      1  0.4659360000000  0.4586980000000  0.4903110000000 1.0
C      1  0.4694380000000  0.5288240000000  0.5136190000000 1.0
C      1  0.4440340000000  0.4113980000000  0.4494480000000 1.0
C      1  0.5488370000000  0.4512320000000  0.4999180000000 1.0
C      1  0.5034290000000  0.5987560000000  0.5663040000000 1.0
C      1  0.5426880000000  0.5080770000000  0.5549030000000 1.0
C      1  0.6131190000000  0.5094150000000  0.5048430000000 1.0
C      1  0.4312300000000  0.5712360000000  0.5545650000000 1.0
C      1  0.3923950000000  0.4763490000000  0.5448380000000 1.0
C      1  0.4760000000000  0.4497790000000  0.5980260000000 1.0
C      1  0.4453040000000  0.5112770000000  0.4222950000000 1.0
C      1  0.4206630000000  0.4592290000000  0.4649510000000 1.0
C      1  0.4926030000000  0.6147650000000  0.5858200000000 1.0
C      1  0.5019350000000  0.5050590000000  0.6127900000000 1.0
C      1  0.3872070000000  0.5097930000000  0.4730170000000 1.0
C      1  0.5419520000000  0.5838400000000  0.5544990000000 1.0
C      1  0.5831870000000  0.5561450000000  0.5493020000000 1.0
C      1  0.4917730000000  0.4183070000000  0.4382850000000 1.0
C      1  0.5385130000000  0.4449710000000  0.4439510000000 1.0
C      1  0.4702820000000  0.4156760000000  0.5458880000000 1.0
C      1  0.5057210000000  0.5546710000000  0.4125730000000 1.0
C      1  0.5230700000000  0.5750430000000  0.5341440000000 1.0
C      1  0.4219090000000  0.4369130000000  0.4485870000000 1.0
C      1  0.4260030000000  0.5079260000000  0.5044310000000 1.0
C      1  0.4566720000000  0.4795540000000  0.5391200000000 1.0
C      1  0.4466130000000  0.5644860000000  0.4633770000000 1.0
C      1  0.5089780000000  0.4581540000000  0.4411150000000 1.0
C      1  0.5653690000000  0.4206200000000  0.4713510000000 1.0
C      1  0.4538410000000  0.4876730000000  0.4845080000000 1.0
C      1  0.5373820000000  0.6073210000000  0.4784250000000 1.0
C      1  0.6052920000000  0.5270560000000  0.4795220000000 1.0
C      1  0.5378830000000  0.4528270000000  0.4140230000000 1.0
C      1  0.5205420000000  0.5302340000000  0.4767000000000 1.0
C      1  0.5217410000000  0.3943070000000  0.5462530000000 1.0
C      1  0.3944390000000  0.5063430000000  0.5032480000000 1.0
C      1  0.5318850000000  0.5029660000000  0.6149170000000 1.0
C      1  0.4140390000000  0.4502660000000  0.5504820000000 1.0
C      1  0.4981520000000  0.4165530000000  0.4996400000000 1.0
C      1  0.5955950000000  0.5580760000000  0.4899240000000 1.0
C      1  0.5186280000000  0.4175880000000  0.4228870000000 1.0
C      1  0.4341940000000  0.5448580000000  0.4893420000000 1.0
C      1  0.4087730000000  0.5409720000000  0.4387650000000 1.0
C      1  0.4900600000000  0.3842490000000  0.4779510000000 1.0
C      1  0.4765860000000  0.5529550000000  0.4713150000000 1.0
C      1  0.5276720000000  0.5532800000000  0.5095210000000 1.0
C      1  0.4934770000000  0.3917440000000  0.5376730000000 1.0
C      1  0.4511870000000  0.5018490000000  0.5802380000000 1.0
C      1  0.5803320000000  0.5015430000000  0.5379560000000 1.0
C      1  0.4301200000000  0.4768530000000  0.5576520000000 1.0
C      1  0.4994000000000  0.5737940000000  0.4653590000000 1.0
C      1  0.5544230000000  0.4310000000000  0.5238520000000 1.0
C      1  0.4980510000000  0.4863700000000  0.5156410000000 1.0
C      1  0.5808700000000  0.4397700000000  0.4954010000000 1.0
C      1  0.5338000000000  0.5557600000000  0.4133490000000 1.0
C      1  0.4672500000000  0.5576100000000  0.4227200000000 1.0
C      1  0.5201040000000  0.4709180000000  0.5632330000000 1.0
C      1  0.4464430000000  0.4394400000000  0.5520140000000 1.0
C      1  0.4995380000000  0.4328860000000  0.5872530000000 1.0
C      1  0.4703800000000  0.5475170000000  0.5809860000000 1.0
C      1  0.4988000000000  0.4556900000000  0.3856550000000 1.0
C      1  0.4461970000000  0.4413240000000  0.4008880000000 1.0
C      1  0.5446250000000  0.5337230000000  0.3935390000000 1.0
C      1  0.5763530000000  0.4443720000000  0.4560930000000 1.0
C      1  0.4919300000000  0.5694390000000  0.3936140000000 1.0
C      1  0.4879850000000  0.4742560000000  0.5520640000000 1.0
C      1  0.4395620000000  0.5749250000000  0.5013200000000 1.0
C      1  0.4726320000000  0.5593640000000  0.5282310000000 1.0
C      1  0.5995650000000  0.4631910000000  0.4852660000000 1.0
C      1  0.5498330000000  0.5370030000000  0.5030700000000 1.0
C      1  0.5141680000000  0.6194500000000  0.4652510000000 1.0
C      1  0.4861630000000  0.5096280000000  0.4554000000000 1.0
C      1  0.4401780000000  0.5548720000000  0.5778950000000 1.0
C      1  0.4931720000000  0.5277820000000  0.4288570000000 1.0
C      1  0.5321250000000  0.4919800000000  0.4633240000000 1.0
C      1  0.4651660000000  0.4865760000000  0.4463050000000 1.0
C      1  0.4536900000000  0.4344910000000  0.4727340000000 1.0
C      1  0.5592250000000  0.5203060000000  0.5821920000000 1.0
C      1  0.4525800000000  0.5821820000000  0.5382630000000 1.0
C      1  0.5006680000000  0.5928090000000  0.4914270000000 1.0
C      1  0.5720690000000  0.5587850000000  0.4451580000000 1.0
C      1  0.4416410000000  0.5169170000000  0.4760590000000 1.0
C      1  0.4369140000000  0.5278370000000  0.5250180000000 1.0
C      1  0.4705740000000  0.4892100000000  0.4151960000000 1.0
C      1  0.5092210000000  0.5718770000000  0.5736380000000 1.0
C      1  0.5222210000000  0.3918890000000  0.4698420000000 1.0
C      1  0.5211220000000  0.5538780000000  0.5970040000000 1.0
C      1  0.5260650000000  0.5592240000000  0.4634040000000 1.0
C      1  0.5215820000000  0.5181650000000  0.4134590000000 1.0
C      1  0.4995950000000  0.4249890000000  0.5588000000000 1.0
C      1  0.4676480000000  0.5280700000000  0.4066840000000 1.0
C      1  0.4871650000000  0.4589130000000  0.5238120000000 1.0
C      1  0.6017390000000  0.5319310000000  0.5523480000000 1.0
C      1  0.5865850000000  0.5096130000000  0.5682980000000 1.0
C      1  0.5638770000000  0.4957000000000  0.4868710000000 1.0
C      1  0.6146800000000  0.5233950000000  0.5296890000000 1.0
C      1  0.4408280000000  0.5335410000000  0.4477400000000 1.0
C      1  0.3856650000000  0.4794570000000  0.5169240000000 1.0
C      1  0.5213210000000  0.5438110000000  0.5586880000000 1.0
C      1  0.4524990000000  0.4511750000000  0.5826710000000 1.0
C      1  0.5498130000000  0.5801690000000  0.4720910000000 1.0
C      1  0.3987030000000  0.5265710000000  0.5533120000000 1.0
C      1  0.5089440000000  0.6116690000000  0.5407890000000 1.0
C      1  0.5391610000000  0.4140200000000  0.4889960000000 1.0
C      1  0.3978810000000  0.5349110000000  0.5218910000000 1.0
C      1  0.5615660000000  0.5694370000000  0.5720600000000 1.0
C      1  0.5746740000000  0.5051350000000  0.4367780000000 1.0
C      1  0.5775460000000  0.5353900000000  0.4624990000000 1.0
C      1  0.5048870000000  0.5017430000000  0.5438190000000 1.0
C      1  0.5432760000000  0.4791240000000  0.5398980000000 1.0
C      1  0.4920700000000  0.4784650000000  0.6068430000000 1.0
C      1  0.5450800000000  0.5605500000000  0.4376710000000 1.0
C      1  0.4897140000000  0.4880310000000  0.3802090000000 1.0
C      1  0.4947930000000  0.5368210000000  0.6028550000000 1.0
C      1  0.3938890000000  0.4537910000000  0.5059240000000 1.0
C      1  0.4846220000000  0.6107030000000  0.4685920000000 1.0
C      1  0.4948480000000  0.4579240000000  0.4784410000000 1.0
C      1  0.5277310000000  0.4963220000000  0.5835870000000 1.0
C      1  0.4637150000000  0.4551680000000  0.4506730000000 1.0
C      1  0.4730440000000  0.4597080000000  0.4028440000000 1.0
C      1  0.4934860000000  0.3789040000000  0.5115930000000 1.0
C      1  0.4801750000000  0.5383610000000  0.5508230000000 1.0
C      1  0.5483190000000  0.4118650000000  0.5584220000000 1.0
C      1  0.3881090000000  0.5399430000000  0.4656830000000 1.0
C      1  0.5674240000000  0.4655360000000  0.5491890000000 1.0
C      1  0.5469600000000  0.5949490000000  0.5090510000000 1.0
C      1  0.4135880000000  0.5088710000000  0.4330670000000 1.0
C      1  0.4673960000000  0.5103410000000  0.5425200000000 1.0
C      1  0.4191260000000  0.4577110000000  0.4933570000000 1.0
C      1  0.5996730000000  0.5051300000000  0.4539100000000 1.0
C      1  0.4241200000000  0.5570490000000  0.5258900000000 1.0
C      1  0.5541960000000  0.5232070000000  0.4760690000000 1.0
C      1  0.5864720000000  0.4375630000000  0.5290480000000 1.0
C      1  0.5605500000000  0.5727960000000  0.5210490000000 1.0
C      1  0.5353300000000  0.4818820000000  0.4113740000000 1.0
C      1  0.5068860000000  0.5390430000000  0.5299110000000 1.0
C      1  0.4750490000000  0.4415150000000  0.4284850000000 1.0
C      1  0.4768800000000  0.5155470000000  0.5835030000000 1.0
C      1  0.5888400000000  0.5631970000000  0.5164400000000 1.0
C      1  0.4566110000000  0.5937640000000  0.4779820000000 1.0
C      1  0.4354710000000  0.4823720000000  0.4577840000000 1.0
C      1  0.3963480000000  0.4355160000000  0.5282590000000 1.0
C      1  0.5019710000000  0.4329770000000  0.5256530000000 1.0
C      1  0.5713290000000  0.4343080000000  0.5598990000000 1.0
C      1  0.6091210000000  0.4809050000000  0.5064380000000 1.0
C      1  0.5222010000000  0.3804990000000  0.5010160000000 1.0
C      1  0.5716450000000  0.4892050000000  0.5908810000000 1.0
C      1  0.5514720000000  0.5443860000000  0.3687900000000 1.0
C      1  0.5180160000000  0.4377990000000  0.3986220000000 1.0
C      1  0.5556310000000  0.4686360000000  0.4586500000000 1.0
C      1  0.5800090000000  0.5740680000000  0.4714220000000 1.0
C      1  0.5041920000000  0.4900240000000  0.4088610000000 1.0
C      1  0.4995350000000  0.4257870000000  0.4681210000000 1.0
END
