TITL C-2782228-2999-133 -0.00221473047605991 125000 -117.304439420304 0 0 23 (C1) n - 1
REM
REM in /home/nfs/bkarasulu/CARBON/AIRSS/Generating-Clusters/REBO/Higher-Symm/SD-CG/HFTN-CG
REM
REM
REM
REM
REM
REM ./C.cell (12c818d87b63d06a65506943cc24bca4)
REM
REM compiler GCC version 9.2.1 20190827 (Red Hat 9.2.1-1)
REM options -cpp -mtune=generic -march=x86-64 -g -O0 -fpre-include=/usr/include/finclude/math-vector-fortran.h
REM seed 826106566 -804674650 -1279039186 1008744574 -2039279577 -1097879612 -1962190272 -1697746914 -1236281284 -657719256 247619776 -1553369815 -52811919 -1625645622 -253370419 -1375352057 -1042865104 143856179 848284578 -1478871014 -1422461551 -645492833 -808669636 -164958565 2048765348 1349478853 -718695887 -1840005371 1826015226 1429528002 -1564562190 1496070554 1380117438
REM
CELL 1.54180   50.00000   50.00000   50.00000   90.00000   90.00000   90.00000
LATT -1
SFAC C  
C      1  0.4678400000000  0.5164610000000  0.5276570000000 1.0
C      1  0.4666730000000  0.4801590000000  0.5226720000000 1.0
C      1  0.4720000000000  0.4780320000000  0.4863150000000 1.0
C      1  0.4590560000000  0.5052820000000  0.4723250000000 1.0
C      1  0.4630710000000  0.5303650000000  0.4941780000000 1.0
C      1  0.5252490000000  0.5029560000000  0.4404180000000 1.0
C      1  0.5160100000000  0.5632550000000  0.4775070000000 1.0
C      1  0.5269040000000  0.5352150000000  0.5489160000000 1.0
C      1  0.5208250000000  0.4571210000000  0.5512590000000 1.0
C      1  0.5194160000000  0.4234290000000  0.4810020000000 1.0
C      1  0.4990560000000  0.5446900000000  0.4852790000000 1.0
C      1  0.5052680000000  0.5259690000000  0.5372650000000 1.0
C      1  0.5023830000000  0.4695430000000  0.5369280000000 1.0
C      1  0.5074640000000  0.4451790000000  0.4879810000000 1.0
C      1  0.5072050000000  0.5012630000000  0.4594810000000 1.0
C      1  0.4916300000000  0.4977920000000  0.5423050000000 1.0
C      1  0.4888170000000  0.4575290000000  0.5111110000000 1.0
C      1  0.5032030000000  0.4758560000000  0.4788240000000 1.0
C      1  0.4873370000000  0.5219630000000  0.4680040000000 1.0
C      1  0.4878730000000  0.5411210000000  0.5148560000000 1.0
C      1  0.5235720000000  0.4945370000000  0.4952630000000 1.0
C      1  0.5397360000000  0.5093560000000  0.5083160000000 1.0
C      1  0.4470310000000  0.4988380000000  0.5033810000000 1.0
END
