TITL C-2782229-3092-412 5.05639267543968e-05 125000 -605.27177136653 0 0 96 (C1) n - 1
REM
REM in /home/nfs/bkarasulu/CARBON/AIRSS/Generating-Clusters/REBO/Higher-Symm/SD-CG/HFTN-CG
REM
REM
REM
REM
REM
REM ./C.cell (12c818d87b63d06a65506943cc24bca4)
REM
REM compiler GCC version 9.2.1 20190827 (Red Hat 9.2.1-1)
REM options -cpp -mtune=generic -march=x86-64 -g -O0 -fpre-include=/usr/include/finclude/math-vector-fortran.h
REM seed 2127042882 -386895991 -350202673 -2075963474 -1906303257 -1138562809 1667219373 445446885 -768889188 1922708994 -2081997377 -933253427 -337104289 1338428062 -1792566080 -1197706336 -547133821 -1687593862 859193667 -1981157967 -290890430 258439833 -1465271537 903271662 1366790692 -1192436444 -1615358993 -481251320 158930629 -634574927 -1697591438 -369887419 -193385089
REM
CELL 1.54180   50.00000   50.00000   50.00000   90.00000   90.00000   90.00000
LATT -1
SFAC C  
C      1  0.5695290000000  0.5332190000000  0.5086200000000 1.0
C      1  0.5331850000000  0.5084060000000  0.5705470000000 1.0
C      1  0.5080180000000  0.5697240000000  0.5335960000000 1.0
C      1  0.5717990000000  0.4649370000000  0.4913700000000 1.0
C      1  0.4295360000000  0.5301330000000  0.4927740000000 1.0
C      1  0.4314780000000  0.4708640000000  0.5066160000000 1.0
C      1  0.5293780000000  0.4935760000000  0.4292010000000 1.0
C      1  0.4695820000000  0.5059490000000  0.4243300000000 1.0
C      1  0.4657970000000  0.4921850000000  0.5756280000000 1.0
C      1  0.5081090000000  0.4261530000000  0.4662180000000 1.0
C      1  0.4911510000000  0.5746980000000  0.4667670000000 1.0
C      1  0.4920390000000  0.4285230000000  0.5348700000000 1.0
C      1  0.5739790000000  0.5063210000000  0.5302710000000 1.0
C      1  0.5298550000000  0.5747760000000  0.5070120000000 1.0
C      1  0.5063090000000  0.5300210000000  0.5751270000000 1.0
C      1  0.5681810000000  0.4927870000000  0.4707780000000 1.0
C      1  0.4265290000000  0.4915520000000  0.5339630000000 1.0
C      1  0.4298190000000  0.5084920000000  0.4652270000000 1.0
C      1  0.5297880000000  0.4265540000000  0.4938450000000 1.0
C      1  0.4711770000000  0.4305740000000  0.5070320000000 1.0
C      1  0.4696490000000  0.5702870000000  0.4939900000000 1.0
C      1  0.5082150000000  0.4660700000000  0.4247050000000 1.0
C      1  0.4936740000000  0.4715850000000  0.5722780000000 1.0
C      1  0.4917880000000  0.5331950000000  0.4266060000000 1.0
C      1  0.4561310000000  0.5642160000000  0.5246430000000 1.0
C      1  0.5633530000000  0.5236190000000  0.4569050000000 1.0
C      1  0.5240270000000  0.4571560000000  0.5661840000000 1.0
C      1  0.4573400000000  0.4359630000000  0.4763020000000 1.0
C      1  0.5419500000000  0.5649450000000  0.4767220000000 1.0
C      1  0.5428630000000  0.4348400000000  0.5242480000000 1.0
C      1  0.5647930000000  0.4760820000000  0.5429650000000 1.0
C      1  0.4352230000000  0.5227300000000  0.5446080000000 1.0
C      1  0.4363830000000  0.4767750000000  0.4543770000000 1.0
C      1  0.5228920000000  0.5453820000000  0.4339850000000 1.0
C      1  0.4772090000000  0.4546520000000  0.4334450000000 1.0
C      1  0.4761930000000  0.5428650000000  0.5657580000000 1.0
C      1  0.4551610000000  0.5230510000000  0.5658520000000 1.0
C      1  0.5640800000000  0.4548920000000  0.5230640000000 1.0
C      1  0.5221880000000  0.5658390000000  0.4554720000000 1.0
C      1  0.4570610000000  0.4756250000000  0.4334980000000 1.0
C      1  0.5454760000000  0.4769420000000  0.5653870000000 1.0
C      1  0.5432540000000  0.5241740000000  0.4351340000000 1.0
C      1  0.5636700000000  0.5449250000000  0.4770310000000 1.0
C      1  0.4357850000000  0.5429050000000  0.5237850000000 1.0
C      1  0.4367920000000  0.4570230000000  0.4759160000000 1.0
C      1  0.5234230000000  0.4358000000000  0.5458950000000 1.0
C      1  0.4770210000000  0.4343950000000  0.4548480000000 1.0
C      1  0.4764680000000  0.5646690000000  0.5458300000000 1.0
C      1  0.5306710000000  0.4226920000000  0.4433770000000 1.0
C      1  0.4318520000000  0.4520570000000  0.5321220000000 1.0
C      1  0.4519370000000  0.5319890000000  0.4236270000000 1.0
C      1  0.5305450000000  0.5704510000000  0.5570260000000 1.0
C      1  0.4687820000000  0.4306880000000  0.5575860000000 1.0
C      1  0.4681690000000  0.5753730000000  0.4436080000000 1.0
C      1  0.4325490000000  0.5483340000000  0.4669310000000 1.0
C      1  0.5695220000000  0.4421870000000  0.4680000000000 1.0
C      1  0.5703290000000  0.5567340000000  0.5310470000000 1.0
C      1  0.4433520000000  0.4689670000000  0.5777580000000 1.0
C      1  0.5565700000000  0.5308520000000  0.5707900000000 1.0
C      1  0.5476120000000  0.4677910000000  0.4309870000000 1.0
C      1  0.5316580000000  0.4431990000000  0.4243190000000 1.0
C      1  0.4307750000000  0.5316450000000  0.4421760000000 1.0
C      1  0.4524050000000  0.4329410000000  0.5327070000000 1.0
C      1  0.5323620000000  0.5482150000000  0.5740700000000 1.0
C      1  0.4694270000000  0.5563790000000  0.4231300000000 1.0
C      1  0.4685500000000  0.4523790000000  0.5754310000000 1.0
C      1  0.4247810000000  0.4680860000000  0.5567550000000 1.0
C      1  0.5664430000000  0.4672210000000  0.4518500000000 1.0
C      1  0.5734630000000  0.5324620000000  0.5483960000000 1.0
C      1  0.4516430000000  0.5690080000000  0.4679030000000 1.0
C      1  0.5480350000000  0.5738130000000  0.5329560000000 1.0
C      1  0.5479570000000  0.4240580000000  0.4680770000000 1.0
C      1  0.5002040000000  0.5178620000000  0.5459860000000 1.0
C      1  0.5178260000000  0.5456410000000  0.5020010000000 1.0
C      1  0.5443590000000  0.5007210000000  0.5191590000000 1.0
C      1  0.5024730000000  0.4775460000000  0.4539750000000 1.0
C      1  0.4983440000000  0.5257620000000  0.4582580000000 1.0
C      1  0.5018570000000  0.4783920000000  0.5408650000000 1.0
C      1  0.5216960000000  0.4578390000000  0.4995740000000 1.0
C      1  0.4785660000000  0.5390860000000  0.5034850000000 1.0
C      1  0.4820090000000  0.4597990000000  0.4964940000000 1.0
C      1  0.5382070000000  0.5030580000000  0.4799190000000 1.0
C      1  0.4600930000000  0.5010860000000  0.4750850000000 1.0
C      1  0.4568990000000  0.4962310000000  0.5242120000000 1.0
C      1  0.4988040000000  0.5383850000000  0.5262660000000 1.0
C      1  0.5247000000000  0.4988620000000  0.5396550000000 1.0
C      1  0.5381880000000  0.5256180000000  0.5005240000000 1.0
C      1  0.5030480000000  0.4574730000000  0.4741630000000 1.0
C      1  0.4998050000000  0.4572640000000  0.5221100000000 1.0
C      1  0.4967260000000  0.5455460000000  0.4783790000000 1.0
C      1  0.5193160000000  0.5035480000000  0.4592740000000 1.0
C      1  0.4766090000000  0.4962720000000  0.5456560000000 1.0
C      1  0.4799920000000  0.5006020000000  0.4544060000000 1.0
C      1  0.5430800000000  0.4773900000000  0.4978210000000 1.0
C      1  0.4618230000000  0.4796000000000  0.4970550000000 1.0
C      1  0.4586870000000  0.5188490000000  0.5018230000000 1.0
END
