TITL C-2782237-5345-397 -0.000931492332176714 125000 -1010.69223348389 0 0 170 (C1) n - 1
REM
REM in /home/nfs/bkarasulu/CARBON/AIRSS/Generating-Clusters/REBO/Higher-Symm/SD-CG/HFTN-CG
REM
REM
REM
REM
REM
REM ./C.cell (12c818d87b63d06a65506943cc24bca4)
REM
REM compiler GCC version 9.2.1 20190827 (Red Hat 9.2.1-1)
REM options -cpp -mtune=generic -march=x86-64 -g -O0 -fpre-include=/usr/include/finclude/math-vector-fortran.h
REM seed -69265145 677856891 -469437459 1660375963 -1154374444 1250288965 -1680329327 33565134 1685301201 -1373341405 -1544684243 -242034297 1933034114 -1900822902 321483712 -924870550 1834597190 151526277 722341448 279280112 -1213688017 1355282982 1966363651 -687362743 1038943118 -235513330 1392115028 336787167 -1749999753 -1046035225 1602778399 -269608061 -726215487
REM
CELL 1.54180   50.00000   50.00000   50.00000   90.00000   90.00000   90.00000
LATT -1
SFAC C  
C      1  0.5625040000000  0.5324580000000  0.5589340000000 1.0
C      1  0.4392000000000  0.4730110000000  0.4388440000000 1.0
C      1  0.5149340000000  0.5198010000000  0.3926050000000 1.0
C      1  0.4918700000000  0.4781510000000  0.6093480000000 1.0
C      1  0.5443480000000  0.5575910000000  0.5723480000000 1.0
C      1  0.4546630000000  0.4466170000000  0.4252320000000 1.0
C      1  0.4649280000000  0.5422760000000  0.5292380000000 1.0
C      1  0.5288310000000  0.4497910000000  0.4674810000000 1.0
C      1  0.4127630000000  0.4613220000000  0.5594510000000 1.0
C      1  0.5922840000000  0.5359870000000  0.4460250000000 1.0
C      1  0.4469340000000  0.5107080000000  0.5457960000000 1.0
C      1  0.5493350000000  0.4950320000000  0.4606920000000 1.0
C      1  0.4330310000000  0.4349560000000  0.5674300000000 1.0
C      1  0.5888470000000  0.5665350000000  0.4524830000000 1.0
C      1  0.4791580000000  0.5168830000000  0.5412090000000 1.0
C      1  0.5233880000000  0.4791350000000  0.4653010000000 1.0
C      1  0.6175930000000  0.4458360000000  0.4739620000000 1.0
C      1  0.3913090000000  0.5411250000000  0.5363080000000 1.0
C      1  0.5077640000000  0.5487090000000  0.3858830000000 1.0
C      1  0.4997740000000  0.4496930000000  0.6085550000000 1.0
C      1  0.4285330000000  0.5062790000000  0.5203710000000 1.0
C      1  0.5716840000000  0.4929920000000  0.4769200000000 1.0
C      1  0.5181480000000  0.5660840000000  0.4690010000000 1.0
C      1  0.4813700000000  0.4366350000000  0.5331490000000 1.0
C      1  0.5765300000000  0.4642400000000  0.4453790000000 1.0
C      1  0.4317630000000  0.5290170000000  0.5672300000000 1.0
C      1  0.5202640000000  0.4063610000000  0.4850210000000 1.0
C      1  0.4741040000000  0.5929500000000  0.5108610000000 1.0
C      1  0.5866070000000  0.4198570000000  0.5441200000000 1.0
C      1  0.4245700000000  0.6071870000000  0.4580860000000 1.0
C      1  0.5245720000000  0.4058830000000  0.4559840000000 1.0
C      1  0.4710430000000  0.5891370000000  0.5391340000000 1.0
C      1  0.4826600000000  0.4446080000000  0.4277110000000 1.0
C      1  0.5162900000000  0.5577360000000  0.5732130000000 1.0
C      1  0.4163250000000  0.4833180000000  0.4567360000000 1.0
C      1  0.5840680000000  0.5203520000000  0.5397830000000 1.0
C      1  0.5670720000000  0.4215030000000  0.5244590000000 1.0
C      1  0.4314910000000  0.5844640000000  0.4713370000000 1.0
C      1  0.5085170000000  0.5904690000000  0.4543700000000 1.0
C      1  0.4879530000000  0.4114140000000  0.5464590000000 1.0
C      1  0.4438040000000  0.4965850000000  0.6026480000000 1.0
C      1  0.5625660000000  0.4987090000000  0.4087160000000 1.0
C      1  0.5484000000000  0.5024300000000  0.5656740000000 1.0
C      1  0.4537880000000  0.5023930000000  0.4362460000000 1.0
C      1  0.4716010000000  0.5691770000000  0.4951070000000 1.0
C      1  0.5248420000000  0.4353520000000  0.4940250000000 1.0
C      1  0.4585940000000  0.5641080000000  0.5467420000000 1.0
C      1  0.5388370000000  0.4310630000000  0.4480290000000 1.0
C      1  0.5349830000000  0.5511590000000  0.4052810000000 1.0
C      1  0.4806910000000  0.4516670000000  0.5819410000000 1.0
C      1  0.5036490000000  0.5494820000000  0.5492600000000 1.0
C      1  0.4922620000000  0.4549490000000  0.4522290000000 1.0
C      1  0.5459340000000  0.4585450000000  0.5974430000000 1.0
C      1  0.4620040000000  0.5416350000000  0.4001910000000 1.0
C      1  0.5763710000000  0.5743240000000  0.4786480000000 1.0
C      1  0.4320600000000  0.4215380000000  0.5368570000000 1.0
C      1  0.5435080000000  0.4412650000000  0.5206240000000 1.0
C      1  0.4568940000000  0.5689370000000  0.4710210000000 1.0
C      1  0.4774760000000  0.4704200000000  0.5305740000000 1.0
C      1  0.5226610000000  0.5319570000000  0.4709910000000 1.0
C      1  0.4487610000000  0.3970160000000  0.4805260000000 1.0
C      1  0.5431420000000  0.6063030000000  0.5181750000000 1.0
C      1  0.4358180000000  0.5013820000000  0.4000470000000 1.0
C      1  0.5713090000000  0.4992420000000  0.6007250000000 1.0
C      1  0.4721060000000  0.5554360000000  0.4506610000000 1.0
C      1  0.5198130000000  0.4414800000000  0.5450480000000 1.0
C      1  0.5377810000000  0.4920630000000  0.5963590000000 1.0
C      1  0.4690160000000  0.5085990000000  0.4064050000000 1.0
C      1  0.4423450000000  0.5569860000000  0.5686190000000 1.0
C      1  0.5607390000000  0.4400030000000  0.4326950000000 1.0
C      1  0.5451480000000  0.5184160000000  0.4926980000000 1.0
C      1  0.4540850000000  0.4781780000000  0.5087910000000 1.0
C      1  0.5077050000000  0.4797070000000  0.4128670000000 1.0
C      1  0.4982360000000  0.5190060000000  0.5910920000000 1.0
C      1  0.5101020000000  0.4852740000000  0.5592380000000 1.0
C      1  0.4923900000000  0.5124660000000  0.4442970000000 1.0
C      1  0.5263620000000  0.4390700000000  0.6011870000000 1.0
C      1  0.4818980000000  0.5601450000000  0.3929140000000 1.0
C      1  0.3989080000000  0.5570590000000  0.5146770000000 1.0
C      1  0.5736210000000  0.4256320000000  0.4778240000000 1.0
C      1  0.4847120000000  0.5861060000000  0.4057460000000 1.0
C      1  0.5098840000000  0.4159910000000  0.5896470000000 1.0
C      1  0.4920200000000  0.5239330000000  0.4824280000000 1.0
C      1  0.5089400000000  0.4763220000000  0.5204900000000 1.0
C      1  0.4356740000000  0.5737630000000  0.5894780000000 1.0
C      1  0.5704700000000  0.4279350000000  0.4098480000000 1.0
C      1  0.4663260000000  0.4814350000000  0.5882580000000 1.0
C      1  0.5412400000000  0.5201390000000  0.4143050000000 1.0
C      1  0.4852920000000  0.4126620000000  0.5746770000000 1.0
C      1  0.5048270000000  0.5850300000000  0.4267910000000 1.0
C      1  0.4515260000000  0.4383240000000  0.5202140000000 1.0
C      1  0.5482090000000  0.5608040000000  0.4811970000000 1.0
C      1  0.4055270000000  0.4892240000000  0.5756790000000 1.0
C      1  0.5960590000000  0.5089910000000  0.4415300000000 1.0
C      1  0.4924470000000  0.6100060000000  0.4958320000000 1.0
C      1  0.5003940000000  0.3931150000000  0.5010990000000 1.0
C      1  0.4996210000000  0.4011370000000  0.4430050000000 1.0
C      1  0.4937330000000  0.5973020000000  0.5540510000000 1.0
C      1  0.5735720000000  0.4094140000000  0.4997030000000 1.0
C      1  0.4136240000000  0.5738740000000  0.4904350000000 1.0
C      1  0.4880830000000  0.6059170000000  0.4666990000000 1.0
C      1  0.5056590000000  0.3944800000000  0.5295430000000 1.0
C      1  0.5277320000000  0.5558580000000  0.5060610000000 1.0
C      1  0.4709080000000  0.4444840000000  0.4956280000000 1.0
C      1  0.5188650000000  0.6127910000000  0.5071950000000 1.0
C      1  0.4734800000000  0.3913830000000  0.4909410000000 1.0
C      1  0.4287440000000  0.4129430000000  0.4672520000000 1.0
C      1  0.5666150000000  0.5904430000000  0.5241480000000 1.0
C      1  0.5334770000000  0.5705030000000  0.5330310000000 1.0
C      1  0.4638600000000  0.4316970000000  0.4678890000000 1.0
C      1  0.4117110000000  0.5128310000000  0.4919460000000 1.0
C      1  0.5840080000000  0.4895650000000  0.5056050000000 1.0
C      1  0.4968920000000  0.5541680000000  0.4916100000000 1.0
C      1  0.5018470000000  0.4468490000000  0.5097410000000 1.0
C      1  0.4962110000000  0.5002060000000  0.3973120000000 1.0
C      1  0.5104940000000  0.4987630000000  0.6065800000000 1.0
C      1  0.5424870000000  0.5220600000000  0.4458340000000 1.0
C      1  0.4609050000000  0.4830940000000  0.5558370000000 1.0
C      1  0.6068970000000  0.4959980000000  0.4663700000000 1.0
C      1  0.4070620000000  0.4900390000000  0.5415200000000 1.0
C      1  0.4953650000000  0.5126720000000  0.5119900000000 1.0
C      1  0.5053730000000  0.4875120000000  0.4911220000000 1.0
C      1  0.4326720000000  0.5285950000000  0.4433880000000 1.0
C      1  0.5680010000000  0.4769070000000  0.5544490000000 1.0
C      1  0.4267800000000  0.5482530000000  0.5024870000000 1.0
C      1  0.5675740000000  0.4533970000000  0.4758350000000 1.0
C      1  0.4934300000000  0.5402100000000  0.4383830000000 1.0
C      1  0.5037430000000  0.4578460000000  0.5605600000000 1.0
C      1  0.5180680000000  0.5876280000000  0.5467050000000 1.0
C      1  0.4777540000000  0.4133900000000  0.4538310000000 1.0
C      1  0.4374080000000  0.4418220000000  0.4533100000000 1.0
C      1  0.5625350000000  0.5640150000000  0.5451470000000 1.0
C      1  0.5434330000000  0.4915860000000  0.5060290000000 1.0
C      1  0.4542280000000  0.5069050000000  0.4950450000000 1.0
C      1  0.5522100000000  0.4650310000000  0.4978640000000 1.0
C      1  0.4510130000000  0.5360050000000  0.5062510000000 1.0
C      1  0.5503160000000  0.4213020000000  0.5607520000000 1.0
C      1  0.4489350000000  0.5850960000000  0.4353830000000 1.0
C      1  0.6035910000000  0.4656560000000  0.4639320000000 1.0
C      1  0.4057860000000  0.5221580000000  0.5491550000000 1.0
C      1  0.5094120000000  0.5379160000000  0.5257570000000 1.0
C      1  0.4880000000000  0.4645630000000  0.4767960000000 1.0
C      1  0.5086850000000  0.4892320000000  0.4398610000000 1.0
C      1  0.4945040000000  0.5084280000000  0.5648670000000 1.0
C      1  0.4357070000000  0.5295320000000  0.4110510000000 1.0
C      1  0.5708970000000  0.4727100000000  0.5864670000000 1.0
C      1  0.5913250000000  0.5345510000000  0.5165280000000 1.0
C      1  0.4087910000000  0.4666360000000  0.4786540000000 1.0
C      1  0.4422740000000  0.4590800000000  0.5452640000000 1.0
C      1  0.5616730000000  0.5447870000000  0.4561450000000 1.0
C      1  0.4281260000000  0.4666390000000  0.5053170000000 1.0
C      1  0.5709470000000  0.5298650000000  0.4923660000000 1.0
C      1  0.4356440000000  0.5611020000000  0.4355570000000 1.0
C      1  0.5603230000000  0.4462170000000  0.5586110000000 1.0
C      1  0.5034780000000  0.5462470000000  0.5954480000000 1.0
C      1  0.5000070000000  0.4530950000000  0.4072550000000 1.0
C      1  0.4594690000000  0.4279480000000  0.5817170000000 1.0
C      1  0.5124810000000  0.5566860000000  0.4247600000000 1.0
C      1  0.4685760000000  0.5079410000000  0.4664080000000 1.0
C      1  0.5330640000000  0.4913700000000  0.5373200000000 1.0
C      1  0.3997170000000  0.4846040000000  0.5044940000000 1.0
C      1  0.6018140000000  0.5148810000000  0.4908510000000 1.0
C      1  0.4233300000000  0.5075790000000  0.5884160000000 1.0
C      1  0.5791480000000  0.4900770000000  0.4284120000000 1.0
C      1  0.5813870000000  0.4928670000000  0.5331890000000 1.0
C      1  0.4174980000000  0.5108930000000  0.4641810000000 1.0
C      1  0.5845790000000  0.5869400000000  0.5024070000000 1.0
C      1  0.4021900000000  0.4052330000000  0.4655120000000 1.0
C      1  0.5277760000000  0.4086660000000  0.5450440000000 1.0
C      1  0.4636930000000  0.6028870000000  0.4510250000000 1.0
END
