TITL C-2782225-7408-616 -0.00347737460889131 125000 -692.094764453468 0 0 117 (C1) n - 1
REM
REM in /home/nfs/bkarasulu/CARBON/AIRSS/Generating-Clusters/REBO/Higher-Symm/SD-CG/HFTN-CG
REM
REM
REM
REM
REM
REM ./C.cell (12c818d87b63d06a65506943cc24bca4)
REM
REM compiler GCC version 9.2.1 20190827 (Red Hat 9.2.1-1)
REM options -cpp -mtune=generic -march=x86-64 -g -O0 -fpre-include=/usr/include/finclude/math-vector-fortran.h
REM seed -1527551088 -1878141393 -1484056235 2134070484 -786871021 -595191223 -157891960 946836856 167776162 1249122548 555128218 668262822 -1250038379 1967096082 772953820 507139472 185237897 899072048 -81039054 -1518270045 -1261478623 -1212618083 1688529445 -1935328973 -384226922 1074468513 -530370307 -356095629 -1719941816 -1932155776 -1932329679 -1887829025 319982891
REM
CELL 1.54180   50.00000   50.00000   50.00000   90.00000   90.00000   90.00000
LATT -1
SFAC C  
C      1  0.5233800000000  0.4141610000000  0.4950970000000 1.0
C      1  0.5039670000000  0.4157890000000  0.4733260000000 1.0
C      1  0.4751030000000  0.4140660000000  0.4867030000000 1.0
C      1  0.4813660000000  0.4134990000000  0.5180080000000 1.0
C      1  0.5096760000000  0.4180440000000  0.5206690000000 1.0
C      1  0.4810530000000  0.4704560000000  0.5784300000000 1.0
C      1  0.5676860000000  0.4690650000000  0.5386940000000 1.0
C      1  0.5541350000000  0.4892940000000  0.4502920000000 1.0
C      1  0.4659120000000  0.4742770000000  0.4335890000000 1.0
C      1  0.4101260000000  0.4754990000000  0.5139590000000 1.0
C      1  0.4764860000000  0.5213300000000  0.4640550000000 1.0
C      1  0.4519420000000  0.5314410000000  0.5322490000000 1.0
C      1  0.5202290000000  0.5383230000000  0.5439130000000 1.0
C      1  0.5541800000000  0.5268360000000  0.5002600000000 1.0
C      1  0.5237550000000  0.5288710000000  0.4479660000000 1.0
C      1  0.5331320000000  0.4455950000000  0.4503250000000 1.0
C      1  0.4545140000000  0.4395490000000  0.4491300000000 1.0
C      1  0.4424060000000  0.4408710000000  0.5209740000000 1.0
C      1  0.5051040000000  0.4412030000000  0.5661900000000 1.0
C      1  0.5622480000000  0.4362460000000  0.5169140000000 1.0
C      1  0.5244040000000  0.6040760000000  0.4904330000000 1.0
C      1  0.4993160000000  0.5979890000000  0.4699320000000 1.0
C      1  0.4707250000000  0.6011800000000  0.4868990000000 1.0
C      1  0.4787820000000  0.6053070000000  0.5188990000000 1.0
C      1  0.5122830000000  0.6028170000000  0.5212070000000 1.0
C      1  0.4308550000000  0.5427490000000  0.4803590000000 1.0
C      1  0.4522790000000  0.5358550000000  0.5659930000000 1.0
C      1  0.5472650000000  0.5325540000000  0.5602690000000 1.0
C      1  0.5734770000000  0.5487310000000  0.4685630000000 1.0
C      1  0.5019960000000  0.5314320000000  0.4217520000000 1.0
C      1  0.4537550000000  0.5517110000000  0.4359360000000 1.0
C      1  0.4160450000000  0.5557210000000  0.5293090000000 1.0
C      1  0.5019210000000  0.5457880000000  0.5788760000000 1.0
C      1  0.5804690000000  0.5487400000000  0.5208800000000 1.0
C      1  0.5483910000000  0.5580370000000  0.4262740000000 1.0
C      1  0.4420610000000  0.4685260000000  0.4547900000000 1.0
C      1  0.4337500000000  0.4669190000000  0.5350230000000 1.0
C      1  0.5139370000000  0.4720960000000  0.5721450000000 1.0
C      1  0.5814130000000  0.4615350000000  0.5095840000000 1.0
C      1  0.5317540000000  0.4746820000000  0.4415020000000 1.0
C      1  0.5556240000000  0.4993380000000  0.4818460000000 1.0
C      1  0.4850680000000  0.4970790000000  0.4470250000000 1.0
C      1  0.4412070000000  0.4885400000000  0.5026590000000 1.0
C      1  0.4850780000000  0.4874070000000  0.5491490000000 1.0
C      1  0.5407370000000  0.4886270000000  0.5319880000000 1.0
C      1  0.4431810000000  0.5543700000000  0.5099050000000 1.0
C      1  0.5019500000000  0.5598090000000  0.5529580000000 1.0
C      1  0.5544560000000  0.5585810000000  0.5077780000000 1.0
C      1  0.5410270000000  0.5554350000000  0.4594270000000 1.0
C      1  0.4703890000000  0.5483320000000  0.4600250000000 1.0
C      1  0.4561660000000  0.4702920000000  0.4819250000000 1.0
C      1  0.4575350000000  0.4910520000000  0.5301360000000 1.0
C      1  0.5144550000000  0.4771950000000  0.5401930000000 1.0
C      1  0.5522000000000  0.4777940000000  0.5029350000000 1.0
C      1  0.5096790000000  0.4824250000000  0.4601830000000 1.0
C      1  0.4607220000000  0.5778710000000  0.5096760000000 1.0
C      1  0.4924380000000  0.5764980000000  0.5308850000000 1.0
C      1  0.5344630000000  0.5786230000000  0.5108450000000 1.0
C      1  0.5246860000000  0.5750110000000  0.4723400000000 1.0
C      1  0.4798670000000  0.5704230000000  0.4753820000000 1.0
C      1  0.5361590000000  0.5103650000000  0.4216330000000 1.0
C      1  0.4288410000000  0.5106280000000  0.4422070000000 1.0
C      1  0.4274150000000  0.5118140000000  0.5461180000000 1.0
C      1  0.5213790000000  0.5050040000000  0.5933480000000 1.0
C      1  0.5842240000000  0.5115660000000  0.5067290000000 1.0
C      1  0.5488980000000  0.4270270000000  0.4934640000000 1.0
C      1  0.5079960000000  0.4325380000000  0.4510520000000 1.0
C      1  0.4488990000000  0.4248540000000  0.4735870000000 1.0
C      1  0.4640410000000  0.4285350000000  0.5341820000000 1.0
C      1  0.5274510000000  0.4258740000000  0.5588270000000 1.0
C      1  0.5253370000000  0.5170920000000  0.5007690000000 1.0
C      1  0.5142390000000  0.5116180000000  0.4716460000000 1.0
C      1  0.4867900000000  0.5139020000000  0.4918630000000 1.0
C      1  0.4782000000000  0.5165820000000  0.5227590000000 1.0
C      1  0.5097060000000  0.5221540000000  0.5235330000000 1.0
C      1  0.5831360000000  0.4996240000000  0.4606710000000 1.0
C      1  0.4853150000000  0.5034800000000  0.4144700000000 1.0
C      1  0.4166800000000  0.5055800000000  0.4886570000000 1.0
C      1  0.4618910000000  0.5037660000000  0.5675380000000 1.0
C      1  0.5549660000000  0.5016270000000  0.5580310000000 1.0
C      1  0.4842140000000  0.4454700000000  0.4342220000000 1.0
C      1  0.4330060000000  0.4395780000000  0.4927990000000 1.0
C      1  0.4719590000000  0.4418040000000  0.5616930000000 1.0
C      1  0.5549060000000  0.4394490000000  0.5496710000000 1.0
C      1  0.5545970000000  0.4418790000000  0.4691870000000 1.0
C      1  0.4441610000000  0.4569280000000  0.5723090000000 1.0
C      1  0.5614260000000  0.4582380000000  0.5765490000000 1.0
C      1  0.5756260000000  0.4615870000000  0.4702980000000 1.0
C      1  0.4970190000000  0.4656610000000  0.4100400000000 1.0
C      1  0.4163120000000  0.4630570000000  0.4848970000000 1.0
C      1  0.4219950000000  0.5432240000000  0.5559400000000 1.0
C      1  0.5261250000000  0.5316640000000  0.5839510000000 1.0
C      1  0.5897830000000  0.5414150000000  0.4907540000000 1.0
C      1  0.5309220000000  0.5414160000000  0.4107150000000 1.0
C      1  0.4326990000000  0.5371010000000  0.4529170000000 1.0
C      1  0.4089640000000  0.5347650000000  0.5044350000000 1.0
C      1  0.4777940000000  0.5278240000000  0.5849320000000 1.0
C      1  0.5756150000000  0.5320350000000  0.5431280000000 1.0
C      1  0.5722130000000  0.5430320000000  0.4382930000000 1.0
C      1  0.4683090000000  0.5328370000000  0.4161680000000 1.0
C      1  0.5685490000000  0.5129580000000  0.4326500000000 1.0
C      1  0.4521350000000  0.5034290000000  0.4231500000000 1.0
C      1  0.4091700000000  0.5064830000000  0.5221740000000 1.0
C      1  0.4926320000000  0.4990730000000  0.5925390000000 1.0
C      1  0.5815610000000  0.5001250000000  0.5372540000000 1.0
C      1  0.4178440000000  0.4879280000000  0.4614910000000 1.0
C      1  0.4367140000000  0.4850650000000  0.5635360000000 1.0
C      1  0.5423390000000  0.4835090000000  0.5810590000000 1.0
C      1  0.5920210000000  0.4850190000000  0.4890230000000 1.0
C      1  0.5194750000000  0.4820940000000  0.4140660000000 1.0
C      1  0.5256610000000  0.4613140000000  0.5007440000000 1.0
C      1  0.5076260000000  0.4615120000000  0.4805590000000 1.0
C      1  0.4794690000000  0.4471810000000  0.4859940000000 1.0
C      1  0.4884460000000  0.4602430000000  0.5154030000000 1.0
C      1  0.5145180000000  0.4473320000000  0.5278040000000 1.0
C      1  0.5033150000000  0.5708850000000  0.4990440000000 1.0
C      1  0.4807190000000  0.4847470000000  0.4987400000000 1.0
END
