TITL C-2782226-7400-1020 0.00391360767372195 125000 -884.469493383804 0 0 150 (C1) n - 1
REM
REM in /home/nfs/bkarasulu/CARBON/AIRSS/Generating-Clusters/REBO/Higher-Symm/SD-CG/HFTN-CG
REM
REM
REM
REM
REM
REM ./C.cell (12c818d87b63d06a65506943cc24bca4)
REM
REM compiler GCC version 9.2.1 20190827 (Red Hat 9.2.1-1)
REM options -cpp -mtune=generic -march=x86-64 -g -O0 -fpre-include=/usr/include/finclude/math-vector-fortran.h
REM seed -185858933 1971474563 -394838158 -5373224 -467063346 -1208681135 378128888 290918033 888252251 -2043219901 -723922666 -661951790 1251445076 -2101420204 622941138 -1825349959 -1118635377 -233155504 -2028509701 2114230480 1268830776 2126176501 -1054851392 1221910945 1316240789 -1352607961 92145976 991766340 1369330000 -1423266385 -940534436 -2070345773 -33662553
REM
CELL 1.54180   50.00000   50.00000   50.00000   90.00000   90.00000   90.00000
LATT -1
SFAC C  
C      1  0.5842020000000  0.5638390000000  0.4735020000000 1.0
C      1  0.5799460000000  0.4431630000000  0.4600680000000 1.0
C      1  0.5737670000000  0.4931170000000  0.5701920000000 1.0
C      1  0.4192780000000  0.5664250000000  0.5303080000000 1.0
C      1  0.4240050000000  0.4455220000000  0.5400810000000 1.0
C      1  0.4197160000000  0.4950250000000  0.4314420000000 1.0
C      1  0.5320350000000  0.4484310000000  0.4661920000000 1.0
C      1  0.5237060000000  0.4918790000000  0.5544960000000 1.0
C      1  0.5158720000000  0.5475860000000  0.4848350000000 1.0
C      1  0.4757730000000  0.4561300000000  0.5334940000000 1.0
C      1  0.4705170000000  0.4989950000000  0.4408970000000 1.0
C      1  0.4681280000000  0.5571400000000  0.5265480000000 1.0
C      1  0.4418900000000  0.5549810000000  0.4381360000000 1.0
C      1  0.4471680000000  0.4209980000000  0.4866590000000 1.0
C      1  0.4430470000000  0.5318140000000  0.5775050000000 1.0
C      1  0.5548850000000  0.5504410000000  0.5590100000000 1.0
C      1  0.5581780000000  0.4179530000000  0.5124440000000 1.0
C      1  0.5557190000000  0.5305330000000  0.4233780000000 1.0
C      1  0.4414520000000  0.4506970000000  0.4865200000000 1.0
C      1  0.4439280000000  0.5161400000000  0.5510980000000 1.0
C      1  0.4394100000000  0.5398390000000  0.4637160000000 1.0
C      1  0.5602620000000  0.4482830000000  0.5126190000000 1.0
C      1  0.5581290000000  0.5148800000000  0.4493410000000 1.0
C      1  0.5518760000000  0.5341990000000  0.5335450000000 1.0
C      1  0.4219580000000  0.5699870000000  0.5027430000000 1.0
C      1  0.4235260000000  0.4693790000000  0.4416400000000 1.0
C      1  0.4264820000000  0.4667270000000  0.5578240000000 1.0
C      1  0.5768710000000  0.5696130000000  0.5006780000000 1.0
C      1  0.5741690000000  0.4673980000000  0.5592770000000 1.0
C      1  0.5757470000000  0.4655520000000  0.4442910000000 1.0
C      1  0.5483470000000  0.5135840000000  0.4017860000000 1.0
C      1  0.5540110000000  0.4071340000000  0.5380950000000 1.0
C      1  0.5547730000000  0.5781800000000  0.5543020000000 1.0
C      1  0.4470900000000  0.5150370000000  0.5996490000000 1.0
C      1  0.4517540000000  0.4108000000000  0.4608020000000 1.0
C      1  0.4507140000000  0.5814210000000  0.4409780000000 1.0
C      1  0.5559440000000  0.4061350000000  0.4876750000000 1.0
C      1  0.5491450000000  0.5355210000000  0.5809130000000 1.0
C      1  0.5573600000000  0.5584950000000  0.4268610000000 1.0
C      1  0.4517490000000  0.4113020000000  0.5118990000000 1.0
C      1  0.4426850000000  0.5388600000000  0.4154110000000 1.0
C      1  0.4434630000000  0.5594250000000  0.5754230000000 1.0
C      1  0.5328420000000  0.3941480000000  0.4723650000000 1.0
C      1  0.5269520000000  0.5306300000000  0.5992470000000 1.0
C      1  0.5335300000000  0.5777010000000  0.4307310000000 1.0
C      1  0.4725760000000  0.3999610000000  0.5306650000000 1.0
C      1  0.4715750000000  0.5320950000000  0.4041910000000 1.0
C      1  0.4683010000000  0.5757650000000  0.5775340000000 1.0
C      1  0.5760610000000  0.5000830000000  0.4816960000000 1.0
C      1  0.5764540000000  0.4849080000000  0.5100820000000 1.0
C      1  0.5775690000000  0.5180600000000  0.5082530000000 1.0
C      1  0.4241360000000  0.5008970000000  0.5200380000000 1.0
C      1  0.4212520000000  0.4846540000000  0.4923990000000 1.0
C      1  0.4229840000000  0.5174350000000  0.4922430000000 1.0
C      1  0.5631620000000  0.5703300000000  0.4555980000000 1.0
C      1  0.5547210000000  0.4260020000000  0.4622350000000 1.0
C      1  0.5447630000000  0.5018430000000  0.5783230000000 1.0
C      1  0.4454860000000  0.5717610000000  0.5451160000000 1.0
C      1  0.4507790000000  0.4330160000000  0.5348980000000 1.0
C      1  0.4453110000000  0.5066570000000  0.4201850000000 1.0
C      1  0.4831160000000  0.5762950000000  0.5057390000000 1.0
C      1  0.4869190000000  0.4690810000000  0.4418930000000 1.0
C      1  0.4844500000000  0.4544140000000  0.5650030000000 1.0
C      1  0.5104550000000  0.5781910000000  0.4944990000000 1.0
C      1  0.5133860000000  0.4624100000000  0.5664220000000 1.0
C      1  0.5138100000000  0.4622390000000  0.4453520000000 1.0
C      1  0.4184320000000  0.4942570000000  0.5587710000000 1.0
C      1  0.4133240000000  0.5541720000000  0.4806760000000 1.0
C      1  0.4150870000000  0.4559490000000  0.4655830000000 1.0
C      1  0.5837160000000  0.4930270000000  0.4433260000000 1.0
C      1  0.5793950000000  0.5543210000000  0.5245700000000 1.0
C      1  0.5847520000000  0.4556050000000  0.5355270000000 1.0
C      1  0.5332150000000  0.5819680000000  0.4638210000000 1.0
C      1  0.5261570000000  0.4129660000000  0.4488800000000 1.0
C      1  0.5274880000000  0.4996170000000  0.6077260000000 1.0
C      1  0.4755260000000  0.5880890000000  0.5483870000000 1.0
C      1  0.4755530000000  0.4228590000000  0.5556260000000 1.0
C      1  0.4724400000000  0.5005370000000  0.4011310000000 1.0
C      1  0.5021450000000  0.5740190000000  0.4548150000000 1.0
C      1  0.5002930000000  0.4247230000000  0.4481450000000 1.0
C      1  0.4971590000000  0.5065040000000  0.6084300000000 1.0
C      1  0.5043320000000  0.5731980000000  0.5392350000000 1.0
C      1  0.5066110000000  0.4243970000000  0.5509830000000 1.0
C      1  0.4969720000000  0.4910500000000  0.4101240000000 1.0
C      1  0.4023090000000  0.5125710000000  0.4453620000000 1.0
C      1  0.4048380000000  0.4455330000000  0.5193250000000 1.0
C      1  0.4038410000000  0.5444590000000  0.5394800000000 1.0
C      1  0.5903040000000  0.5128330000000  0.5586810000000 1.0
C      1  0.5968260000000  0.4461910000000  0.4827590000000 1.0
C      1  0.6007170000000  0.5419390000000  0.4661240000000 1.0
C      1  0.5148880000000  0.5146180000000  0.5069610000000 1.0
C      1  0.5115160000000  0.5097800000000  0.4731640000000 1.0
C      1  0.5132700000000  0.4652070000000  0.5090400000000 1.0
C      1  0.4816890000000  0.5181240000000  0.4854250000000 1.0
C      1  0.4842920000000  0.5077380000000  0.5176040000000 1.0
C      1  0.4897430000000  0.4643230000000  0.4927110000000 1.0
C      1  0.4462880000000  0.4815690000000  0.4719680000000 1.0
C      1  0.4509590000000  0.4871720000000  0.5339590000000 1.0
C      1  0.4473330000000  0.5398490000000  0.4970880000000 1.0
C      1  0.5503060000000  0.4767490000000  0.5287820000000 1.0
C      1  0.5507130000000  0.4861410000000  0.4675340000000 1.0
C      1  0.5516990000000  0.5389070000000  0.5001760000000 1.0
C      1  0.5393360000000  0.4654800000000  0.4920470000000 1.0
C      1  0.5361030000000  0.5066250000000  0.5281700000000 1.0
C      1  0.5397970000000  0.5260300000000  0.4738020000000 1.0
C      1  0.4606950000000  0.4686270000000  0.5069500000000 1.0
C      1  0.4571700000000  0.5112230000000  0.4678270000000 1.0
C      1  0.4609970000000  0.5266610000000  0.5249090000000 1.0
C      1  0.4912610000000  0.5431290000000  0.4643530000000 1.0
C      1  0.4917330000000  0.4429420000000  0.4731100000000 1.0
C      1  0.4928000000000  0.4848340000000  0.5405720000000 1.0
C      1  0.5070230000000  0.5462860000000  0.5179750000000 1.0
C      1  0.5142480000000  0.4436250000000  0.5282170000000 1.0
C      1  0.5033870000000  0.5049710000000  0.4435420000000 1.0
C      1  0.4960770000000  0.5354180000000  0.5463660000000 1.0
C      1  0.5164860000000  0.5229950000000  0.4238270000000 1.0
C      1  0.5156650000000  0.4171360000000  0.5128810000000 1.0
C      1  0.4847750000000  0.5455490000000  0.4330770000000 1.0
C      1  0.4891860000000  0.5109080000000  0.5593880000000 1.0
C      1  0.4973020000000  0.4165310000000  0.4870240000000 1.0
C      1  0.4969970000000  0.3918720000000  0.5184620000000 1.0
C      1  0.4940910000000  0.5594630000000  0.5688170000000 1.0
C      1  0.5029450000000  0.5426070000000  0.4044910000000 1.0
C      1  0.5087810000000  0.3862110000000  0.4885710000000 1.0
C      1  0.5049430000000  0.5707100000000  0.4208690000000 1.0
C      1  0.4970470000000  0.5311600000000  0.5858570000000 1.0
C      1  0.4022030000000  0.5268300000000  0.4694900000000 1.0
C      1  0.4033480000000  0.4590100000000  0.4948260000000 1.0
C      1  0.4053750000000  0.5165750000000  0.5409200000000 1.0
C      1  0.5913070000000  0.5279420000000  0.5353950000000 1.0
C      1  0.5976490000000  0.4606540000000  0.5069660000000 1.0
C      1  0.5961130000000  0.5147910000000  0.4617930000000 1.0
C      1  0.4510680000000  0.4326100000000  0.4372570000000 1.0
C      1  0.4540280000000  0.4847900000000  0.5921500000000 1.0
C      1  0.4528790000000  0.5928070000000  0.4707260000000 1.0
C      1  0.5534150000000  0.4282410000000  0.5624020000000 1.0
C      1  0.5468430000000  0.4821880000000  0.4088970000000 1.0
C      1  0.5519760000000  0.5899850000000  0.5240770000000 1.0
C      1  0.5286840000000  0.4087930000000  0.5591020000000 1.0
C      1  0.5276110000000  0.5913790000000  0.5436580000000 1.0
C      1  0.5212640000000  0.4946070000000  0.3959820000000 1.0
C      1  0.4759950000000  0.4126690000000  0.4383850000000 1.0
C      1  0.4786660000000  0.5935250000000  0.4527080000000 1.0
C      1  0.4711620000000  0.4987200000000  0.6148410000000 1.0
C      1  0.4554510000000  0.4622270000000  0.4453380000000 1.0
C      1  0.4576030000000  0.4730870000000  0.5646680000000 1.0
C      1  0.4526520000000  0.5736730000000  0.4938790000000 1.0
C      1  0.5438090000000  0.4575280000000  0.5564000000000 1.0
C      1  0.5449750000000  0.4720090000000  0.4369330000000 1.0
C      1  0.5436860000000  0.5722690000000  0.4992210000000 1.0
END
