TITL C-2782230-7391-1074 -0.00363242440345578 125000 -289.873481010988 0 0 49 (C1) n - 1
REM
REM in /home/nfs/bkarasulu/CARBON/AIRSS/Generating-Clusters/REBO/Higher-Symm/SD-CG/HFTN-CG
REM
REM
REM
REM
REM
REM ./C.cell (12c818d87b63d06a65506943cc24bca4)
REM
REM compiler GCC version 9.2.1 20190827 (Red Hat 9.2.1-1)
REM options -cpp -mtune=generic -march=x86-64 -g -O0 -fpre-include=/usr/include/finclude/math-vector-fortran.h
REM seed 361272810 1614363380 -1274408714 -1981833957 -1997902759 678534577 225176527 -1648866277 -1290104358 2865933 159520600 -914370107 -318911590 -173159889 -1878680899 -2128892756 -1928779204 -1090438270 1076769353 1586503378 887402096 1283074200 -100716270 157900887 709199672 -399453486 782387871 1947500447 1234806308 690649411 1457024584 1992278409 -1485381087
REM
CELL 1.54180   50.00000   50.00000   50.00000   90.00000   90.00000   90.00000
LATT -1
SFAC C  
C      1  0.4590140000000  0.5493630000000  0.4953760000000 1.0
C      1  0.5246130000000  0.5536260000000  0.4641130000000 1.0
C      1  0.5173140000000  0.5488060000000  0.5370060000000 1.0
C      1  0.5643950000000  0.5095300000000  0.5192450000000 1.0
C      1  0.4491420000000  0.5074030000000  0.5453260000000 1.0
C      1  0.4929790000000  0.5084850000000  0.4366750000000 1.0
C      1  0.4864680000000  0.4441730000000  0.5551460000000 1.0
C      1  0.4604990000000  0.4438370000000  0.4607260000000 1.0
C      1  0.5544770000000  0.4428730000000  0.4859130000000 1.0
C      1  0.4682340000000  0.4820130000000  0.5378360000000 1.0
C      1  0.4876150000000  0.4828350000000  0.4555700000000 1.0
C      1  0.5472390000000  0.4837840000000  0.5096010000000 1.0
C      1  0.4733610000000  0.5480400000000  0.4701140000000 1.0
C      1  0.5387130000000  0.5479880000000  0.4890610000000 1.0
C      1  0.4883510000000  0.5471650000000  0.5375880000000 1.0
C      1  0.4739590000000  0.5197740000000  0.4610780000000 1.0
C      1  0.5464440000000  0.5193290000000  0.4920390000000 1.0
C      1  0.4805510000000  0.5192480000000  0.5433430000000 1.0
C      1  0.4519840000000  0.4966320000000  0.4669980000000 1.0
C      1  0.5515990000000  0.4940110000000  0.4712930000000 1.0
C      1  0.4982710000000  0.4968670000000  0.5594460000000 1.0
C      1  0.5561000000000  0.5120580000000  0.5465720000000 1.0
C      1  0.4312890000000  0.5106570000000  0.5233050000000 1.0
C      1  0.5213560000000  0.5110980000000  0.4372740000000 1.0
C      1  0.5300570000000  0.5279760000000  0.5502610000000 1.0
C      1  0.4421000000000  0.5279170000000  0.5001850000000 1.0
C      1  0.5307590000000  0.5374700000000  0.4416940000000 1.0
C      1  0.4896070000000  0.4997920000000  0.4840000000000 1.0
C      1  0.5193140000000  0.5000190000000  0.4998770000000 1.0
C      1  0.4904600000000  0.4985730000000  0.5179350000000 1.0
C      1  0.5125920000000  0.4630320000000  0.4567960000000 1.0
C      1  0.5318640000000  0.4667050000000  0.5320800000000 1.0
C      1  0.4582960000000  0.4684160000000  0.5100780000000 1.0
C      1  0.5626690000000  0.4701230000000  0.4857680000000 1.0
C      1  0.4822320000000  0.4712050000000  0.5643320000000 1.0
C      1  0.4584090000000  0.4709100000000  0.4519480000000 1.0
C      1  0.4686110000000  0.4417760000000  0.4922670000000 1.0
C      1  0.5231760000000  0.4389020000000  0.4776610000000 1.0
C      1  0.5091870000000  0.4420630000000  0.5321170000000 1.0
C      1  0.5251460000000  0.5613770000000  0.5114180000000 1.0
C      1  0.4768820000000  0.5619330000000  0.5152370000000 1.0
C      1  0.4979050000000  0.5639730000000  0.4714400000000 1.0
C      1  0.5281120000000  0.4931710000000  0.5509590000000 1.0
C      1  0.4435080000000  0.4933890000000  0.4966220000000 1.0
C      1  0.5325930000000  0.4885930000000  0.4513240000000 1.0
C      1  0.5319410000000  0.4402200000000  0.5100620000000 1.0
C      1  0.4771880000000  0.4427770000000  0.5230660000000 1.0
C      1  0.4923000000000  0.4382060000000  0.4688920000000 1.0
C      1  0.5000000000000  0.5731460000000  0.4998830000000 1.0
END
