TITL C-2782231-7322-1143 -0.000850255033424934 125000 -187.293912759542 0 0 34 (C1) n - 1
REM
REM in /home/nfs/bkarasulu/CARBON/AIRSS/Generating-Clusters/REBO/Higher-Symm/SD-CG/HFTN-CG
REM
REM
REM
REM
REM
REM ./C.cell (12c818d87b63d06a65506943cc24bca4)
REM
REM compiler GCC version 9.2.1 20190827 (Red Hat 9.2.1-1)
REM options -cpp -mtune=generic -march=x86-64 -g -O0 -fpre-include=/usr/include/finclude/math-vector-fortran.h
REM seed -1156008720 1526116942 1124579775 -359033401 434853347 403829989 -1780616150 -2070195882 1005087177 -1368920953 -778096263 -985330402 -1259465048 -756395205 557301881 -2072249099 -1213718255 2088530349 -1480391209 2066659919 395567530 1350911582 2087315234 -1397441987 -1836387486 -795424496 -79710883 -1406158256 361804567 1115454634 1763066585 -1702794590 -754271096
REM
CELL 1.54180   50.00000   50.00000   50.00000   90.00000   90.00000   90.00000
LATT -1
SFAC C  
C      1  0.5261990000000  0.4703510000000  0.5177690000000 1.0
C      1  0.4780230000000  0.4628990000000  0.5185080000000 1.0
C      1  0.4566020000000  0.5095320000000  0.5181460000000 1.0
C      1  0.4937970000000  0.5469450000000  0.5132470000000 1.0
C      1  0.5392440000000  0.5208780000000  0.5172480000000 1.0
C      1  0.4888670000000  0.4608940000000  0.5447050000000 1.0
C      1  0.4619940000000  0.5204120000000  0.5432030000000 1.0
C      1  0.4867870000000  0.5358270000000  0.5432530000000 1.0
C      1  0.5362250000000  0.5220500000000  0.5447200000000 1.0
C      1  0.5168220000000  0.4662500000000  0.5443100000000 1.0
C      1  0.5032710000000  0.4570460000000  0.5007310000000 1.0
C      1  0.4573500000000  0.4815470000000  0.5065330000000 1.0
C      1  0.4666700000000  0.5304130000000  0.5001240000000 1.0
C      1  0.5227620000000  0.5426470000000  0.5032570000000 1.0
C      1  0.5435570000000  0.4926210000000  0.5057470000000 1.0
C      1  0.4643140000000  0.5369160000000  0.4679870000000 1.0
C      1  0.5245950000000  0.5456930000000  0.4696050000000 1.0
C      1  0.5484500000000  0.4894060000000  0.4722330000000 1.0
C      1  0.5004250000000  0.4520380000000  0.4680860000000 1.0
C      1  0.4542880000000  0.4801380000000  0.4722590000000 1.0
C      1  0.5387900000000  0.5680550000000  0.4870720000000 1.0
C      1  0.5734580000000  0.4849190000000  0.4912270000000 1.0
C      1  0.5039760000000  0.4263870000000  0.4857160000000 1.0
C      1  0.4294110000000  0.4721030000000  0.4899510000000 1.0
C      1  0.4750940000000  0.5609130000000  0.4883950000000 1.0
C      1  0.4983930000000  0.4745790000000  0.4527320000000 1.0
C      1  0.4739320000000  0.4901540000000  0.4546520000000 1.0
C      1  0.4789760000000  0.5187410000000  0.4525390000000 1.0
C      1  0.5103150000000  0.5237490000000  0.4562890000000 1.0
C      1  0.5235700000000  0.4938010000000  0.4568440000000 1.0
C      1  0.5011340000000  0.5022130000000  0.4813190000000 1.0
C      1  0.5093520000000  0.5175730000000  0.5527620000000 1.0
C      1  0.4958810000000  0.4983800000000  0.5330860000000 1.0
C      1  0.4944360000000  0.4972210000000  0.5060370000000 1.0
END
