TITL C-2782228-2999-30 -0.00361022664545393 125000 -737.197231306241 0 0 126 (C1) n - 1
REM
REM in /home/nfs/bkarasulu/CARBON/AIRSS/Generating-Clusters/REBO/Higher-Symm/SD-CG/HFTN-CG
REM
REM
REM
REM
REM
REM ./C.cell (12c818d87b63d06a65506943cc24bca4)
REM
REM compiler GCC version 9.2.1 20190827 (Red Hat 9.2.1-1)
REM options -cpp -mtune=generic -march=x86-64 -g -O0 -fpre-include=/usr/include/finclude/math-vector-fortran.h
REM seed 1034185399 -1544561032 -471981518 -2133039316 482283564 987942159 -1618314771 -1430887514 7182626 -1267756480 1615261466 -1626909253 800232968 -1722419278 1269728068 -106953656 -1539596781 -260179350 1028969020 1455831671 319515841 -115349048 -1029097218 467681647 852219973 -2060999534 1109477831 1087433176 617932687 -2030481160 -42372978 -1989755305 913750015
REM
CELL 1.54180   50.00000   50.00000   50.00000   90.00000   90.00000   90.00000
LATT -1
SFAC C  
C      1  0.4707030000000  0.5763710000000  0.4647160000000 1.0
C      1  0.5286600000000  0.4319200000000  0.4537440000000 1.0
C      1  0.4706380000000  0.5715660000000  0.5569760000000 1.0
C      1  0.5183870000000  0.4299900000000  0.5584930000000 1.0
C      1  0.4516670000000  0.5103340000000  0.5825730000000 1.0
C      1  0.5469370000000  0.4898970000000  0.5814790000000 1.0
C      1  0.4444130000000  0.5149510000000  0.4049090000000 1.0
C      1  0.5472510000000  0.4858040000000  0.4230260000000 1.0
C      1  0.4663660000000  0.5481450000000  0.4480070000000 1.0
C      1  0.5459740000000  0.4521400000000  0.4443750000000 1.0
C      1  0.4504600000000  0.5445500000000  0.5619800000000 1.0
C      1  0.5387560000000  0.4561540000000  0.5653250000000 1.0
C      1  0.5714010000000  0.4974750000000  0.4876150000000 1.0
C      1  0.4250440000000  0.5032470000000  0.4914530000000 1.0
C      1  0.5758040000000  0.5049360000000  0.5190620000000 1.0
C      1  0.4098310000000  0.4966880000000  0.5195070000000 1.0
C      1  0.5863210000000  0.5336250000000  0.5312550000000 1.0
C      1  0.4186550000000  0.4753320000000  0.5346420000000 1.0
C      1  0.5851050000000  0.5206890000000  0.4722340000000 1.0
C      1  0.4269230000000  0.4793610000000  0.4729800000000 1.0
C      1  0.4527360000000  0.5176520000000  0.4953460000000 1.0
C      1  0.5398940000000  0.4846180000000  0.4896110000000 1.0
C      1  0.4697930000000  0.5080740000000  0.5190640000000 1.0
C      1  0.5234520000000  0.4915960000000  0.5165130000000 1.0
C      1  0.4921970000000  0.4768330000000  0.5502360000000 1.0
C      1  0.5092960000000  0.5124980000000  0.5488100000000 1.0
C      1  0.4990150000000  0.4816800000000  0.4527460000000 1.0
C      1  0.4941160000000  0.5126910000000  0.4521690000000 1.0
C      1  0.4473330000000  0.4628630000000  0.4244810000000 1.0
C      1  0.5495190000000  0.5536460000000  0.4136120000000 1.0
C      1  0.4602750000000  0.4425610000000  0.5601880000000 1.0
C      1  0.5359670000000  0.5562450000000  0.5469690000000 1.0
C      1  0.4317070000000  0.4512570000000  0.4881030000000 1.0
C      1  0.5754310000000  0.5504720000000  0.4832490000000 1.0
C      1  0.4330040000000  0.4531650000000  0.5207520000000 1.0
C      1  0.5859420000000  0.5555610000000  0.5136580000000 1.0
C      1  0.5163810000000  0.4745110000000  0.4294790000000 1.0
C      1  0.4917540000000  0.5141870000000  0.4180160000000 1.0
C      1  0.5089920000000  0.4811820000000  0.5741990000000 1.0
C      1  0.4893560000000  0.5155580000000  0.5707240000000 1.0
C      1  0.4212030000000  0.5064990000000  0.5748780000000 1.0
C      1  0.5744320000000  0.4945880000000  0.5683030000000 1.0
C      1  0.4329810000000  0.5133930000000  0.4309310000000 1.0
C      1  0.5788670000000  0.4884620000000  0.4280250000000 1.0
C      1  0.5021900000000  0.5189890000000  0.5161020000000 1.0
C      1  0.4905770000000  0.4808730000000  0.5168750000000 1.0
C      1  0.5012750000000  0.5246440000000  0.4833250000000 1.0
C      1  0.4991140000000  0.4738580000000  0.4847190000000 1.0
C      1  0.4503950000000  0.4245140000000  0.5128650000000 1.0
C      1  0.5601900000000  0.5774680000000  0.5084420000000 1.0
C      1  0.4493420000000  0.4230660000000  0.4810400000000 1.0
C      1  0.5620600000000  0.5800450000000  0.4758670000000 1.0
C      1  0.4613390000000  0.4812400000000  0.5572910000000 1.0
C      1  0.5423830000000  0.5177160000000  0.5536320000000 1.0
C      1  0.4661060000000  0.4859450000000  0.4611270000000 1.0
C      1  0.5525680000000  0.5145900000000  0.4501770000000 1.0
C      1  0.4623080000000  0.4340230000000  0.4329860000000 1.0
C      1  0.5395900000000  0.5759440000000  0.4304730000000 1.0
C      1  0.4720590000000  0.4135120000000  0.5597660000000 1.0
C      1  0.5252390000000  0.5838260000000  0.5471070000000 1.0
C      1  0.5044200000000  0.4446920000000  0.4702820000000 1.0
C      1  0.4893850000000  0.5548100000000  0.4799240000000 1.0
C      1  0.5058740000000  0.4378280000000  0.5303870000000 1.0
C      1  0.4889730000000  0.5476420000000  0.5292690000000 1.0
C      1  0.5184300000000  0.5513080000000  0.4382570000000 1.0
C      1  0.4806290000000  0.4471690000000  0.4098950000000 1.0
C      1  0.5031570000000  0.5664730000000  0.5665040000000 1.0
C      1  0.4925500000000  0.4321350000000  0.5799580000000 1.0
C      1  0.5860270000000  0.4741710000000  0.5162940000000 1.0
C      1  0.4046720000000  0.5272720000000  0.5157940000000 1.0
C      1  0.5897890000000  0.4702740000000  0.4865830000000 1.0
C      1  0.4069970000000  0.5303380000000  0.4848040000000 1.0
C      1  0.4754630000000  0.4402630000000  0.5302990000000 1.0
C      1  0.5476030000000  0.5502640000000  0.5228480000000 1.0
C      1  0.4760910000000  0.4359800000000  0.4637480000000 1.0
C      1  0.5204880000000  0.5473090000000  0.4689570000000 1.0
C      1  0.5473660000000  0.5328700000000  0.4750990000000 1.0
C      1  0.4619850000000  0.4607660000000  0.4776750000000 1.0
C      1  0.5532090000000  0.5272260000000  0.5069320000000 1.0
C      1  0.4639100000000  0.4618170000000  0.5091070000000 1.0
C      1  0.4356540000000  0.5369950000000  0.4463050000000 1.0
C      1  0.5757570000000  0.4613100000000  0.4403170000000 1.0
C      1  0.4205550000000  0.5330740000000  0.5623140000000 1.0
C      1  0.5694940000000  0.4653050000000  0.5600650000000 1.0
C      1  0.5395640000000  0.5965540000000  0.5267200000000 1.0
C      1  0.4631070000000  0.4026820000000  0.5356570000000 1.0
C      1  0.5525240000000  0.5878380000000  0.4523220000000 1.0
C      1  0.4451490000000  0.4139610000000  0.4521460000000 1.0
C      1  0.4664510000000  0.4733830000000  0.4025490000000 1.0
C      1  0.5377390000000  0.5259450000000  0.4261330000000 1.0
C      1  0.4751020000000  0.4618840000000  0.5828710000000 1.0
C      1  0.5241230000000  0.5397140000000  0.5732990000000 1.0
C      1  0.5143070000000  0.4552910000000  0.5886350000000 1.0
C      1  0.4805040000000  0.5431850000000  0.5735510000000 1.0
C      1  0.5073880000000  0.4496570000000  0.4143720000000 1.0
C      1  0.4899110000000  0.5443210000000  0.4285120000000 1.0
C      1  0.5239160000000  0.5086820000000  0.5875400000000 1.0
C      1  0.4759870000000  0.4948030000000  0.5915190000000 1.0
C      1  0.5206820000000  0.5035660000000  0.4121730000000 1.0
C      1  0.4692680000000  0.5015760000000  0.4020880000000 1.0
C      1  0.4541270000000  0.5930590000000  0.4839260000000 1.0
C      1  0.5363480000000  0.4140110000000  0.4805710000000 1.0
C      1  0.4559110000000  0.5904310000000  0.5353030000000 1.0
C      1  0.5352660000000  0.4112330000000  0.5356610000000 1.0
C      1  0.4382410000000  0.4856970000000  0.4438130000000 1.0
C      1  0.5851780000000  0.5133790000000  0.4427950000000 1.0
C      1  0.4301330000000  0.4828790000000  0.5587910000000 1.0
C      1  0.5738500000000  0.5216230000000  0.5552020000000 1.0
C      1  0.5810290000000  0.4512180000000  0.4680570000000 1.0
C      1  0.4199740000000  0.5484160000000  0.4673940000000 1.0
C      1  0.5754240000000  0.4551830000000  0.5342670000000 1.0
C      1  0.4154490000000  0.5450830000000  0.5360530000000 1.0
C      1  0.4596690000000  0.5496190000000  0.4922480000000 1.0
C      1  0.5330250000000  0.4533120000000  0.4870070000000 1.0
C      1  0.4633320000000  0.5539170000000  0.5218700000000 1.0
C      1  0.5287150000000  0.4443240000000  0.5148060000000 1.0
C      1  0.4563540000000  0.5137440000000  0.5483160000000 1.0
C      1  0.5374510000000  0.4849160000000  0.5468020000000 1.0
C      1  0.4653700000000  0.5195690000000  0.4665520000000 1.0
C      1  0.5438090000000  0.4837840000000  0.4571910000000 1.0
C      1  0.4356680000000  0.5654830000000  0.5314070000000 1.0
C      1  0.5560670000000  0.4350490000000  0.5272060000000 1.0
C      1  0.4358920000000  0.5674910000000  0.4816260000000 1.0
C      1  0.5599360000000  0.4356000000000  0.4780050000000 1.0
C      1  0.5302390000000  0.4040210000000  0.5067700000000 1.0
C      1  0.4596710000000  0.6034110000000  0.5101440000000 1.0
END
