TITL C-2782228-2999-1232 0.00116030108516529 125000 -491.635876181313 0 0 83 (C1) n - 1
REM
REM in /home/nfs/bkarasulu/CARBON/AIRSS/Generating-Clusters/REBO/Higher-Symm/SD-CG/HFTN-CG
REM
REM
REM
REM
REM
REM ./C.cell (12c818d87b63d06a65506943cc24bca4)
REM
REM compiler GCC version 9.2.1 20190827 (Red Hat 9.2.1-1)
REM options -cpp -mtune=generic -march=x86-64 -g -O0 -fpre-include=/usr/include/finclude/math-vector-fortran.h
REM seed -1597137858 -1883025709 -1163794334 -56124544 -1851717026 1167081763 -1870217249 1703481943 -1588083777 2112529217 309997661 1516650057 51370776 -1610748341 -1383774478 512442213 -1410631676 -1430355368 609424045 1197285116 -530557643 1915196554 2096356068 367183895 -1487395555 -144433348 1355580573 -1655244779 1092084166 -466122435 -421403283 1278977537 520109071
REM
CELL 1.54180   50.00000   50.00000   50.00000   90.00000   90.00000   90.00000
LATT -1
SFAC C  
C      1  0.4929180000000  0.5723010000000  0.5425930000000 1.0
C      1  0.5400970000000  0.5720540000000  0.4856460000000 1.0
C      1  0.4678900000000  0.5711050000000  0.4721560000000 1.0
C      1  0.5645010000000  0.4967790000000  0.4809700000000 1.0
C      1  0.4573490000000  0.4994760000000  0.4538910000000 1.0
C      1  0.4854260000000  0.4926700000000  0.5653420000000 1.0
C      1  0.4521980000000  0.5127070000000  0.5594950000000 1.0
C      1  0.5771300000000  0.5077770000000  0.5170510000000 1.0
C      1  0.4675350000000  0.5112960000000  0.4115630000000 1.0
C      1  0.4687670000000  0.5660060000000  0.5218610000000 1.0
C      1  0.5352440000000  0.5642940000000  0.5163110000000 1.0
C      1  0.4968700000000  0.5622800000000  0.4620240000000 1.0
C      1  0.5470980000000  0.5154330000000  0.5263260000000 1.0
C      1  0.4812340000000  0.5296380000000  0.4280020000000 1.0
C      1  0.4572380000000  0.5171940000000  0.5263030000000 1.0
C      1  0.4991190000000  0.4896580000000  0.4231280000000 1.0
C      1  0.4319940000000  0.4879410000000  0.5364710000000 1.0
C      1  0.5703850000000  0.4853900000000  0.5492090000000 1.0
C      1  0.4636530000000  0.4584040000000  0.4305480000000 1.0
C      1  0.4579170000000  0.4600330000000  0.5662350000000 1.0
C      1  0.5784080000000  0.4560830000000  0.5090260000000 1.0
C      1  0.4984100000000  0.5558970000000  0.5650510000000 1.0
C      1  0.5569520000000  0.5575920000000  0.4685460000000 1.0
C      1  0.4440310000000  0.5574960000000  0.4659850000000 1.0
C      1  0.5731490000000  0.5149070000000  0.4546440000000 1.0
C      1  0.4277680000000  0.5136800000000  0.4545600000000 1.0
C      1  0.4997230000000  0.5125020000000  0.5881020000000 1.0
C      1  0.4458070000000  0.5443390000000  0.5180080000000 1.0
C      1  0.5449210000000  0.5432720000000  0.5385880000000 1.0
C      1  0.5054680000000  0.5445680000000  0.4379140000000 1.0
C      1  0.4420450000000  0.4841470000000  0.5650720000000 1.0
C      1  0.5863350000000  0.4795480000000  0.5229680000000 1.0
C      1  0.4713260000000  0.4820000000000  0.4166390000000 1.0
C      1  0.4297200000000  0.4833800000000  0.4636380000000 1.0
C      1  0.5081210000000  0.4815940000000  0.5854020000000 1.0
C      1  0.5662520000000  0.4843520000000  0.4508290000000 1.0
C      1  0.5271540000000  0.5009320000000  0.4277070000000 1.0
C      1  0.4247540000000  0.4981730000000  0.5092660000000 1.0
C      1  0.5487200000000  0.4986980000000  0.5659330000000 1.0
C      1  0.5283320000000  0.4516970000000  0.5468580000000 1.0
C      1  0.5229110000000  0.4575570000000  0.4582450000000 1.0
C      1  0.4502860000000  0.4532110000000  0.5015270000000 1.0
C      1  0.5295400000000  0.4558700000000  0.4883460000000 1.0
C      1  0.4764310000000  0.4541650000000  0.4835600000000 1.0
C      1  0.4999560000000  0.4533250000000  0.5327070000000 1.0
C      1  0.5151030000000  0.5834090000000  0.5304120000000 1.0
C      1  0.5182330000000  0.5822240000000  0.4724260000000 1.0
C      1  0.4684600000000  0.5837530000000  0.4966580000000 1.0
C      1  0.5392700000000  0.5135670000000  0.4947970000000 1.0
C      1  0.4813180000000  0.5216420000000  0.4598610000000 1.0
C      1  0.4828770000000  0.5210870000000  0.5468130000000 1.0
C      1  0.5362540000000  0.4295880000000  0.5245990000000 1.0
C      1  0.5018370000000  0.4336340000000  0.4599470000000 1.0
C      1  0.4637010000000  0.4318260000000  0.5209250000000 1.0
C      1  0.4882640000000  0.4832380000000  0.5352950000000 1.0
C      1  0.5444620000000  0.4803760000000  0.5016840000000 1.0
C      1  0.4773130000000  0.4843820000000  0.4736330000000 1.0
C      1  0.5412920000000  0.4781600000000  0.4401560000000 1.0
C      1  0.4290500000000  0.4761620000000  0.4906580000000 1.0
C      1  0.5314390000000  0.4750390000000  0.5714190000000 1.0
C      1  0.5198290000000  0.5375170000000  0.5043920000000 1.0
C      1  0.4912910000000  0.5406240000000  0.4863060000000 1.0
C      1  0.4898500000000  0.5392880000000  0.5203590000000 1.0
C      1  0.4276230000000  0.5352280000000  0.4729480000000 1.0
C      1  0.5134810000000  0.5343990000000  0.5764350000000 1.0
C      1  0.5552530000000  0.5364420000000  0.4496930000000 1.0
C      1  0.5091430000000  0.5081140000000  0.4720260000000 1.0
C      1  0.4708620000000  0.4997740000000  0.5028510000000 1.0
C      1  0.5181100000000  0.4974090000000  0.5263230000000 1.0
C      1  0.5384770000000  0.5269120000000  0.5636170000000 1.0
C      1  0.5302480000000  0.5293360000000  0.4361320000000 1.0
C      1  0.4279730000000  0.5268950000000  0.5008490000000 1.0
C      1  0.5026240000000  0.4158080000000  0.4821110000000 1.0
C      1  0.4834310000000  0.4156930000000  0.5088640000000 1.0
C      1  0.5156110000000  0.4145240000000  0.5125860000000 1.0
C      1  0.5039000000000  0.4822650000000  0.4540390000000 1.0
C      1  0.4577270000000  0.4776150000000  0.5212410000000 1.0
C      1  0.5434480000000  0.4763580000000  0.5332970000000 1.0
C      1  0.4744230000000  0.4436170000000  0.4519970000000 1.0
C      1  0.4715450000000  0.4444830000000  0.5468340000000 1.0
C      1  0.5544770000000  0.4418640000000  0.5048810000000 1.0
C      1  0.5018870000000  0.4504550000000  0.5017350000000 1.0
C      1  0.5014340000000  0.5022690000000  0.5007730000000 1.0
END
