TITL C-2782238-9940-1486 0.00187046146276665 125000 -1144.5732940162 0 0 196 (C1) n - 1
REM
REM in /home/nfs/bkarasulu/CARBON/AIRSS/Generating-Clusters/REBO/Higher-Symm/SD-CG/HFTN-CG
REM
REM
REM
REM
REM
REM ./C.cell (12c818d87b63d06a65506943cc24bca4)
REM
REM compiler GCC version 9.2.1 20190827 (Red Hat 9.2.1-1)
REM options -cpp -mtune=generic -march=x86-64 -g -O0 -fpre-include=/usr/include/finclude/math-vector-fortran.h
REM seed 900849440 389164130 1735934459 1237245535 -1239361928 429418540 -1122692236 2063016874 331438501 1201166182 -1572674803 -1455086031 -207020786 -1512502097 108626966 729745312 -1415040239 -554717967 -893693224 134160797 -1432723797 -1558662997 -1445240588 -163714848 1444984198 -1742183993 -542895482 -752714761 901147260 643885129 735174746 1595891491 173769415
REM
CELL 1.54180   50.00000   50.00000   50.00000   90.00000   90.00000   90.00000
LATT -1
SFAC C  
C      1  0.5818400000000  0.4326080000000  0.4515750000000 1.0
C      1  0.5819930000000  0.5747610000000  0.5514830000000 1.0
C      1  0.5836660000000  0.4797320000000  0.5067620000000 1.0
C      1  0.5898840000000  0.5189250000000  0.4865430000000 1.0
C      1  0.5101150000000  0.4708040000000  0.4002380000000 1.0
C      1  0.5093680000000  0.5301220000000  0.6028640000000 1.0
C      1  0.6079630000000  0.5078080000000  0.4618250000000 1.0
C      1  0.6063180000000  0.4942320000000  0.5269660000000 1.0
C      1  0.3994430000000  0.5057420000000  0.5442560000000 1.0
C      1  0.4017550000000  0.4947240000000  0.4571770000000 1.0
C      1  0.4410420000000  0.4526770000000  0.5044200000000 1.0
C      1  0.4434650000000  0.5536950000000  0.4923780000000 1.0
C      1  0.5431760000000  0.6052080000000  0.5277020000000 1.0
C      1  0.5402140000000  0.4031790000000  0.4770960000000 1.0
C      1  0.5159440000000  0.3921810000000  0.4619700000000 1.0
C      1  0.5144250000000  0.6081650000000  0.5398660000000 1.0
C      1  0.5317120000000  0.5198440000000  0.4754390000000 1.0
C      1  0.5186830000000  0.4827840000000  0.5246820000000 1.0
C      1  0.4433520000000  0.5331260000000  0.5750740000000 1.0
C      1  0.4444850000000  0.4684660000000  0.4288040000000 1.0
C      1  0.5137460000000  0.4198450000000  0.5196140000000 1.0
C      1  0.5295620000000  0.5836420000000  0.4831750000000 1.0
C      1  0.4701830000000  0.5902100000000  0.5611470000000 1.0
C      1  0.4736260000000  0.4057010000000  0.4373390000000 1.0
C      1  0.5241350000000  0.5542980000000  0.4568670000000 1.0
C      1  0.5383090000000  0.4485670000000  0.5324700000000 1.0
C      1  0.4928180000000  0.6082380000000  0.5190470000000 1.0
C      1  0.4931990000000  0.3864130000000  0.4793930000000 1.0
C      1  0.4924010000000  0.4252080000000  0.4680840000000 1.0
C      1  0.5068850000000  0.5688160000000  0.5327580000000 1.0
C      1  0.4376040000000  0.4114770000000  0.5225250000000 1.0
C      1  0.4404710000000  0.5913340000000  0.4735530000000 1.0
C      1  0.4849360000000  0.5852930000000  0.4609290000000 1.0
C      1  0.4764150000000  0.4127310000000  0.5318720000000 1.0
C      1  0.4733830000000  0.5321320000000  0.5629370000000 1.0
C      1  0.4748780000000  0.4672030000000  0.4411930000000 1.0
C      1  0.5883810000000  0.5526340000000  0.5294260000000 1.0
C      1  0.5921230000000  0.4592840000000  0.4699260000000 1.0
C      1  0.4412950000000  0.4625140000000  0.5428970000000 1.0
C      1  0.4443380000000  0.5372360000000  0.4566280000000 1.0
C      1  0.5679710000000  0.5858060000000  0.5223540000000 1.0
C      1  0.5670780000000  0.4159340000000  0.4765300000000 1.0
C      1  0.4033590000000  0.4515500000000  0.5385390000000 1.0
C      1  0.4066080000000  0.5491050000000  0.4607610000000 1.0
C      1  0.4630150000000  0.4431710000000  0.5247400000000 1.0
C      1  0.4657120000000  0.5608320000000  0.4695810000000 1.0
C      1  0.5262690000000  0.5706930000000  0.4128240000000 1.0
C      1  0.5167340000000  0.4406880000000  0.5780820000000 1.0
C      1  0.4628410000000  0.4806070000000  0.5557840000000 1.0
C      1  0.4656170000000  0.5173760000000  0.4447710000000 1.0
C      1  0.5133860000000  0.5115930000000  0.5678240000000 1.0
C      1  0.5093870000000  0.4873680000000  0.4398460000000 1.0
C      1  0.5301670000000  0.4193230000000  0.5471730000000 1.0
C      1  0.5378100000000  0.5849370000000  0.4517260000000 1.0
C      1  0.4311940000000  0.5678870000000  0.4507430000000 1.0
C      1  0.4280640000000  0.4320960000000  0.5468950000000 1.0
C      1  0.5514990000000  0.5667550000000  0.5910110000000 1.0
C      1  0.5511300000000  0.4346700000000  0.4114680000000 1.0
C      1  0.5433620000000  0.5441780000000  0.4100920000000 1.0
C      1  0.5431820000000  0.4563420000000  0.5896290000000 1.0
C      1  0.5095110000000  0.5872970000000  0.4366520000000 1.0
C      1  0.5092300000000  0.4117190000000  0.5692410000000 1.0
C      1  0.5294560000000  0.5626120000000  0.5661680000000 1.0
C      1  0.5283600000000  0.4371940000000  0.4359640000000 1.0
C      1  0.5713020000000  0.4672760000000  0.5639100000000 1.0
C      1  0.5702040000000  0.5314570000000  0.4367020000000 1.0
C      1  0.5627600000000  0.5177490000000  0.5781360000000 1.0
C      1  0.5649750000000  0.4831310000000  0.4199750000000 1.0
C      1  0.5994530000000  0.4355210000000  0.5294070000000 1.0
C      1  0.5983520000000  0.5570730000000  0.4700320000000 1.0
C      1  0.5964500000000  0.4651500000000  0.5417010000000 1.0
C      1  0.5984350000000  0.5356030000000  0.4512470000000 1.0
C      1  0.5227690000000  0.4804060000000  0.5587660000000 1.0
C      1  0.5232070000000  0.5171270000000  0.4424020000000 1.0
C      1  0.4429650000000  0.5555420000000  0.4212720000000 1.0
C      1  0.4409140000000  0.4419210000000  0.5769220000000 1.0
C      1  0.5000150000000  0.5329580000000  0.5172450000000 1.0
C      1  0.5024390000000  0.4666130000000  0.4902290000000 1.0
C      1  0.5393710000000  0.5512750000000  0.4864910000000 1.0
C      1  0.5548220000000  0.4524010000000  0.5111060000000 1.0
C      1  0.5624390000000  0.4479510000000  0.4826310000000 1.0
C      1  0.5587420000000  0.5542080000000  0.5125780000000 1.0
C      1  0.5289930000000  0.5804500000000  0.5153340000000 1.0
C      1  0.5184240000000  0.4222110000000  0.4879210000000 1.0
C      1  0.4656190000000  0.4888250000000  0.6001020000000 1.0
C      1  0.4672090000000  0.5101670000000  0.4009520000000 1.0
C      1  0.4541770000000  0.4882110000000  0.3825250000000 1.0
C      1  0.4515200000000  0.5087990000000  0.6197360000000 1.0
C      1  0.4820940000000  0.4115130000000  0.5615870000000 1.0
C      1  0.4787340000000  0.5908020000000  0.4287820000000 1.0
C      1  0.4930900000000  0.4721390000000  0.5983310000000 1.0
C      1  0.4947250000000  0.5267160000000  0.4003180000000 1.0
C      1  0.4529690000000  0.4548980000000  0.4754500000000 1.0
C      1  0.4498650000000  0.5462740000000  0.5216260000000 1.0
C      1  0.4407500000000  0.4695180000000  0.5870720000000 1.0
C      1  0.4429970000000  0.5278910000000  0.4136980000000 1.0
C      1  0.5209680000000  0.4203040000000  0.4077390000000 1.0
C      1  0.5201600000000  0.5793420000000  0.5942600000000 1.0
C      1  0.5790550000000  0.5643710000000  0.5782490000000 1.0
C      1  0.5790430000000  0.4378180000000  0.4234950000000 1.0
C      1  0.5432550000000  0.4641480000000  0.4041300000000 1.0
C      1  0.5414910000000  0.5365800000000  0.5940350000000 1.0
C      1  0.5689210000000  0.4858510000000  0.5369120000000 1.0
C      1  0.5682550000000  0.5117740000000  0.4616490000000 1.0
C      1  0.6084960000000  0.4806460000000  0.4558180000000 1.0
C      1  0.6017610000000  0.5234190000000  0.5367570000000 1.0
C      1  0.4123210000000  0.5255360000000  0.5871310000000 1.0
C      1  0.4137570000000  0.4735320000000  0.4151230000000 1.0
C      1  0.4055410000000  0.4686630000000  0.4712810000000 1.0
C      1  0.4038320000000  0.5314690000000  0.5300810000000 1.0
C      1  0.4286960000000  0.5115050000000  0.4304430000000 1.0
C      1  0.4263520000000  0.4867260000000  0.5709660000000 1.0
C      1  0.5841590000000  0.4218740000000  0.5037380000000 1.0
C      1  0.5866810000000  0.5764730000000  0.4955040000000 1.0
C      1  0.4658900000000  0.4975680000000  0.5197520000000 1.0
C      1  0.4669010000000  0.5014920000000  0.4860900000000 1.0
C      1  0.5314170000000  0.5381050000000  0.5231880000000 1.0
C      1  0.5341470000000  0.4625540000000  0.4785830000000 1.0
C      1  0.4422490000000  0.5922350000000  0.5024320000000 1.0
C      1  0.4430490000000  0.4048580000000  0.4932120000000 1.0
C      1  0.4680360000000  0.4308500000000  0.5766750000000 1.0
C      1  0.4681080000000  0.5686720000000  0.4154670000000 1.0
C      1  0.4372000000000  0.4838860000000  0.5096950000000 1.0
C      1  0.4396180000000  0.5200330000000  0.4932650000000 1.0
C      1  0.5591640000000  0.4866980000000  0.5887680000000 1.0
C      1  0.5607590000000  0.5142480000000  0.4099200000000 1.0
C      1  0.4990470000000  0.5945780000000  0.4883890000000 1.0
C      1  0.4952800000000  0.3921780000000  0.5118430000000 1.0
C      1  0.4891980000000  0.5616870000000  0.5563100000000 1.0
C      1  0.4861910000000  0.4383500000000  0.4383080000000 1.0
C      1  0.4641010000000  0.5979530000000  0.5281020000000 1.0
C      1  0.4653760000000  0.3959320000000  0.4690260000000 1.0
C      1  0.4910620000000  0.5706840000000  0.5077980000000 1.0
C      1  0.4800520000000  0.4189440000000  0.4981580000000 1.0
C      1  0.5139500000000  0.4061400000000  0.4375570000000 1.0
C      1  0.5132570000000  0.5928180000000  0.5638970000000 1.0
C      1  0.3956230000000  0.4893360000000  0.4296900000000 1.0
C      1  0.3943500000000  0.5105230000000  0.5718760000000 1.0
C      1  0.4864720000000  0.5119670000000  0.5859050000000 1.0
C      1  0.4867000000000  0.4873260000000  0.4171590000000 1.0
C      1  0.4146170000000  0.4815310000000  0.5332530000000 1.0
C      1  0.4175510000000  0.5194040000000  0.4679580000000 1.0
C      1  0.6010590000000  0.5460640000000  0.5007580000000 1.0
C      1  0.5973600000000  0.4526870000000  0.5011070000000 1.0
C      1  0.4733890000000  0.5665360000000  0.5862500000000 1.0
C      1  0.4712610000000  0.4268180000000  0.4102690000000 1.0
C      1  0.3782360000000  0.4441320000000  0.5364090000000 1.0
C      1  0.3815580000000  0.5568540000000  0.4627360000000 1.0
C      1  0.4985040000000  0.4401240000000  0.3982910000000 1.0
C      1  0.4979120000000  0.5597830000000  0.6039860000000 1.0
C      1  0.4869190000000  0.4761240000000  0.5351980000000 1.0
C      1  0.4825410000000  0.5247510000000  0.4721930000000 1.0
C      1  0.4429670000000  0.5081220000000  0.5529510000000 1.0
C      1  0.4450980000000  0.4920370000000  0.4510060000000 1.0
C      1  0.4065180000000  0.5599420000000  0.5317040000000 1.0
C      1  0.4095290000000  0.4403280000000  0.4676570000000 1.0
C      1  0.5109880000000  0.4942740000000  0.4722360000000 1.0
C      1  0.5074480000000  0.5097420000000  0.5369940000000 1.0
C      1  0.5525800000000  0.5571380000000  0.4393170000000 1.0
C      1  0.5528450000000  0.4405370000000  0.5614260000000 1.0
C      1  0.4758870000000  0.4758560000000  0.4728630000000 1.0
C      1  0.4716000000000  0.5260350000000  0.5315270000000 1.0
C      1  0.5081130000000  0.4526260000000  0.5479070000000 1.0
C      1  0.4994800000000  0.5378260000000  0.4492610000000 1.0
C      1  0.4430430000000  0.5711740000000  0.5714810000000 1.0
C      1  0.4464290000000  0.4263670000000  0.4338090000000 1.0
C      1  0.5358470000000  0.4864380000000  0.5021770000000 1.0
C      1  0.5465920000000  0.5168950000000  0.5052170000000 1.0
C      1  0.6089370000000  0.5279810000000  0.5662120000000 1.0
C      1  0.6127080000000  0.4733320000000  0.4287250000000 1.0
C      1  0.4131560000000  0.5702640000000  0.5578010000000 1.0
C      1  0.4163370000000  0.4310630000000  0.4411090000000 1.0
C      1  0.4254890000000  0.4292770000000  0.4888630000000 1.0
C      1  0.4203480000000  0.5716530000000  0.5097910000000 1.0
C      1  0.4825320000000  0.5453570000000  0.4941760000000 1.0
C      1  0.4940250000000  0.4460880000000  0.5106300000000 1.0
C      1  0.4478690000000  0.5698720000000  0.5382950000000 1.0
C      1  0.4583740000000  0.4291610000000  0.4651290000000 1.0
C      1  0.5877130000000  0.5368230000000  0.5810210000000 1.0
C      1  0.5893450000000  0.4638900000000  0.4160460000000 1.0
C      1  0.5342990000000  0.4951620000000  0.3978220000000 1.0
C      1  0.5332940000000  0.5055390000000  0.6019750000000 1.0
C      1  0.5294440000000  0.4640350000000  0.4480490000000 1.0
C      1  0.5329430000000  0.5350940000000  0.5544340000000 1.0
C      1  0.5217530000000  0.5205250000000  0.4099090000000 1.0
C      1  0.5201670000000  0.4797490000000  0.5910330000000 1.0
C      1  0.5594990000000  0.5158270000000  0.5447090000000 1.0
C      1  0.5573630000000  0.4818280000000  0.4515970000000 1.0
C      1  0.5644230000000  0.4877690000000  0.4845420000000 1.0
C      1  0.5761940000000  0.5180060000000  0.5146970000000 1.0
C      1  0.4325650000000  0.5194560000000  0.5265700000000 1.0
C      1  0.4333360000000  0.4815240000000  0.4778430000000 1.0
C      1  0.4387730000000  0.4703860000000  0.3959490000000 1.0
C      1  0.4364540000000  0.5276540000000  0.6074480000000 1.0
C      1  0.4798570000000  0.5403170000000  0.4238990000000 1.0
C      1  0.4777360000000  0.4595060000000  0.5759250000000 1.0
END
