TITL C-2782235-7892-927 0.108852781696119 125000 -808.535856701409 0 0 135 (C1) n - 1
REM
REM in /home/nfs/bkarasulu/CARBON/AIRSS/Generating-Clusters/REBO/Higher-Symm/SD-CG/HFTN-CG
REM
REM
REM
REM
REM
REM ./C.cell (12c818d87b63d06a65506943cc24bca4)
REM
REM compiler GCC version 9.2.1 20190827 (Red Hat 9.2.1-1)
REM options -cpp -mtune=generic -march=x86-64 -g -O0 -fpre-include=/usr/include/finclude/math-vector-fortran.h
REM seed 1066658525 -1398292115 -1294724217 -1999798568 -1376474699 2123400988 1235306463 -1821113552 1846381213 1711408843 775201872 790667490 1735076229 -1500779180 -101577372 -1624422372 184419915 -733604908 388689531 1425612123 -865394966 -1788924067 -1654929444 -2124885801 255936207 2101670172 -6518299 1386733800 1640274487 1056052947 430614490 1456414889 -1109252682
REM
CELL 1.54180   50.00000   50.00000   50.00000   90.00000   90.00000   90.00000
LATT -1
SFAC C  
C      1  0.5107200000000  0.5703990000000  0.5578170000000 1.0
C      1  0.5060760000000  0.5716620000000  0.4511360000000 1.0
C      1  0.5126710000000  0.4707160000000  0.4176100000000 1.0
C      1  0.5069760000000  0.4070830000000  0.4980890000000 1.0
C      1  0.5102940000000  0.4662020000000  0.5946070000000 1.0
C      1  0.4849460000000  0.5204990000000  0.4241480000000 1.0
C      1  0.4827750000000  0.4300680000000  0.4575510000000 1.0
C      1  0.4878420000000  0.4399180000000  0.5498640000000 1.0
C      1  0.4871450000000  0.5274290000000  0.5784730000000 1.0
C      1  0.4856620000000  0.5818170000000  0.4966320000000 1.0
C      1  0.4334150000000  0.4715280000000  0.5668780000000 1.0
C      1  0.4271580000000  0.5580850000000  0.5548420000000 1.0
C      1  0.4218270000000  0.5721000000000  0.4630600000000 1.0
C      1  0.4312650000000  0.4844450000000  0.4236040000000 1.0
C      1  0.4247650000000  0.4263290000000  0.4903610000000 1.0
C      1  0.4055840000000  0.5222590000000  0.4519810000000 1.0
C      1  0.4079600000000  0.4642590000000  0.4644120000000 1.0
C      1  0.4087990000000  0.4601570000000  0.5246400000000 1.0
C      1  0.4117160000000  0.5129200000000  0.5495710000000 1.0
C      1  0.4084900000000  0.5523400000000  0.5058290000000 1.0
C      1  0.5200500000000  0.5991170000000  0.5426460000000 1.0
C      1  0.5143210000000  0.5668940000000  0.4189180000000 1.0
C      1  0.5220590000000  0.4393970000000  0.4094230000000 1.0
C      1  0.5190250000000  0.3982800000000  0.5286790000000 1.0
C      1  0.5237150000000  0.4901010000000  0.6101930000000 1.0
C      1  0.4917390000000  0.4163550000000  0.5262510000000 1.0
C      1  0.4971460000000  0.4981980000000  0.5926920000000 1.0
C      1  0.4951820000000  0.5813580000000  0.5295620000000 1.0
C      1  0.4870530000000  0.5520380000000  0.4307200000000 1.0
C      1  0.4977640000000  0.4427060000000  0.4309790000000 1.0
C      1  0.6048500000000  0.5079140000000  0.5300020000000 1.0
C      1  0.6061780000000  0.5294780000000  0.5052610000000 1.0
C      1  0.6064820000000  0.5126550000000  0.4769960000000 1.0
C      1  0.6061590000000  0.4802590000000  0.4842030000000 1.0
C      1  0.6041280000000  0.4774250000000  0.5171950000000 1.0
C      1  0.4917980000000  0.5276570000000  0.4997660000000 1.0
C      1  0.5036710000000  0.5086150000000  0.4744660000000 1.0
C      1  0.4946840000000  0.4780190000000  0.4827020000000 1.0
C      1  0.4899080000000  0.4794930000000  0.5134140000000 1.0
C      1  0.4945310000000  0.5102040000000  0.5264460000000 1.0
C      1  0.4383100000000  0.5091610000000  0.4703900000000 1.0
C      1  0.4398320000000  0.4790900000000  0.4833250000000 1.0
C      1  0.4405790000000  0.4826330000000  0.5154950000000 1.0
C      1  0.4421430000000  0.5138120000000  0.5236270000000 1.0
C      1  0.4388020000000  0.5289940000000  0.4948320000000 1.0
C      1  0.4164010000000  0.4574840000000  0.4963140000000 1.0
C      1  0.4198390000000  0.4862330000000  0.5420140000000 1.0
C      1  0.4190440000000  0.5383090000000  0.5295110000000 1.0
C      1  0.4142980000000  0.5409020000000  0.4741680000000 1.0
C      1  0.4165680000000  0.4898820000000  0.4526360000000 1.0
C      1  0.5463570000000  0.5804780000000  0.5090250000000 1.0
C      1  0.5553750000000  0.5244670000000  0.4093900000000 1.0
C      1  0.5594770000000  0.4183000000000  0.4489920000000 1.0
C      1  0.5434230000000  0.4370470000000  0.5424260000000 1.0
C      1  0.5605250000000  0.5293890000000  0.5889720000000 1.0
C      1  0.5580020000000  0.5497570000000  0.5681860000000 1.0
C      1  0.5499510000000  0.5727400000000  0.4808080000000 1.0
C      1  0.5587190000000  0.4970830000000  0.4209070000000 1.0
C      1  0.5564900000000  0.4214400000000  0.4783660000000 1.0
C      1  0.5428040000000  0.4633400000000  0.5577910000000 1.0
C      1  0.5336130000000  0.4858260000000  0.4347270000000 1.0
C      1  0.5257640000000  0.4265910000000  0.4865220000000 1.0
C      1  0.5141140000000  0.4814650000000  0.5540950000000 1.0
C      1  0.5306260000000  0.5481500000000  0.5548410000000 1.0
C      1  0.5239520000000  0.5577890000000  0.4721030000000 1.0
C      1  0.4463930000000  0.4136020000000  0.5015790000000 1.0
C      1  0.4594460000000  0.4713890000000  0.5752750000000 1.0
C      1  0.4508610000000  0.5723000000000  0.5539550000000 1.0
C      1  0.4459210000000  0.5759180000000  0.4488580000000 1.0
C      1  0.4478450000000  0.4581550000000  0.4223360000000 1.0
C      1  0.5085910000000  0.5075370000000  0.4412900000000 1.0
C      1  0.5072690000000  0.4494590000000  0.4691020000000 1.0
C      1  0.5044570000000  0.4605000000000  0.5322950000000 1.0
C      1  0.5093390000000  0.5211600000000  0.5551630000000 1.0
C      1  0.5046750000000  0.5562910000000  0.4975840000000 1.0
C      1  0.4240330000000  0.5749470000000  0.4924860000000 1.0
C      1  0.4196900000000  0.5165690000000  0.4234250000000 1.0
C      1  0.4241370000000  0.4376820000000  0.4627780000000 1.0
C      1  0.4226700000000  0.4473360000000  0.5497020000000 1.0
C      1  0.4290160000000  0.5307070000000  0.5674190000000 1.0
C      1  0.5634790000000  0.4748230000000  0.4953020000000 1.0
C      1  0.5616080000000  0.4903610000000  0.5187440000000 1.0
C      1  0.5566340000000  0.5183840000000  0.5093290000000 1.0
C      1  0.5554730000000  0.5186200000000  0.4811190000000 1.0
C      1  0.5646620000000  0.4932560000000  0.4718940000000 1.0
C      1  0.5422240000000  0.6022010000000  0.5268160000000 1.0
C      1  0.5347570000000  0.5488130000000  0.4127600000000 1.0
C      1  0.5448940000000  0.4269600000000  0.4225900000000 1.0
C      1  0.5396860000000  0.4087930000000  0.5433180000000 1.0
C      1  0.5450480000000  0.5051780000000  0.6015720000000 1.0
C      1  0.4669460000000  0.4678140000000  0.4676850000000 1.0
C      1  0.4638710000000  0.4639770000000  0.5219940000000 1.0
C      1  0.4667260000000  0.5111060000000  0.5429640000000 1.0
C      1  0.4649620000000  0.5451720000000  0.5039750000000 1.0
C      1  0.4503850000000  0.5257540000000  0.4471710000000 1.0
C      1  0.4625850000000  0.4759350000000  0.4002560000000 1.0
C      1  0.4608010000000  0.3954030000000  0.4855580000000 1.0
C      1  0.4691950000000  0.4465430000000  0.5845720000000 1.0
C      1  0.4664410000000  0.5737860000000  0.5774950000000 1.0
C      1  0.4639200000000  0.5972880000000  0.4545930000000 1.0
C      1  0.4665640000000  0.5685670000000  0.5289310000000 1.0
C      1  0.4588550000000  0.5521580000000  0.4421010000000 1.0
C      1  0.4775710000000  0.4673380000000  0.4360640000000 1.0
C      1  0.4641360000000  0.4298210000000  0.5194130000000 1.0
C      1  0.4826660000000  0.4904050000000  0.5640230000000 1.0
C      1  0.5962290000000  0.5396370000000  0.5352210000000 1.0
C      1  0.5928650000000  0.5431740000000  0.4782780000000 1.0
C      1  0.5997100000000  0.4907710000000  0.4530610000000 1.0
C      1  0.5956970000000  0.4515200000000  0.4978470000000 1.0
C      1  0.5894250000000  0.4838000000000  0.5465910000000 1.0
C      1  0.4877950000000  0.5908940000000  0.4668030000000 1.0
C      1  0.4871020000000  0.4898900000000  0.4126060000000 1.0
C      1  0.4847870000000  0.4046570000000  0.4762100000000 1.0
C      1  0.4985210000000  0.4449600000000  0.5815470000000 1.0
C      1  0.4900240000000  0.5597910000000  0.5779520000000 1.0
C      1  0.4530440000000  0.5094020000000  0.4199740000000 1.0
C      1  0.4514750000000  0.4417550000000  0.4512890000000 1.0
C      1  0.4540460000000  0.4435480000000  0.5471620000000 1.0
C      1  0.4561950000000  0.5224900000000  0.5709260000000 1.0
C      1  0.4522930000000  0.5765240000000  0.5006420000000 1.0
C      1  0.5285840000000  0.4485260000000  0.5195750000000 1.0
C      1  0.5388680000000  0.5120130000000  0.5695980000000 1.0
C      1  0.5281630000000  0.5586660000000  0.5164900000000 1.0
C      1  0.5352890000000  0.5256520000000  0.4360060000000 1.0
C      1  0.5356380000000  0.4426730000000  0.4515650000000 1.0
C      1  0.5782700000000  0.4325560000000  0.4922450000000 1.0
C      1  0.5677150000000  0.4763350000000  0.5594990000000 1.0
C      1  0.5804970000000  0.5529550000000  0.5515640000000 1.0
C      1  0.5746160000000  0.5614400000000  0.4734670000000 1.0
C      1  0.5835840000000  0.4901880000000  0.4322070000000 1.0
C      1  0.5391260000000  0.4996020000000  0.5398170000000 1.0
C      1  0.5368080000000  0.5317130000000  0.5282820000000 1.0
C      1  0.5306090000000  0.5284520000000  0.4668800000000 1.0
C      1  0.5430360000000  0.4721280000000  0.4610920000000 1.0
C      1  0.5400230000000  0.4555360000000  0.4910410000000 1.0
END
