TITL C-2782239-8622-813 0.000591157073847351 125000 -329.590235998329 0 0 57 (C1) n - 1
REM
REM in /home/nfs/bkarasulu/CARBON/AIRSS/Generating-Clusters/REBO/Higher-Symm/SD-CG/HFTN-CG
REM
REM
REM
REM
REM
REM ./C.cell (12c818d87b63d06a65506943cc24bca4)
REM
REM compiler GCC version 9.2.1 20190827 (Red Hat 9.2.1-1)
REM options -cpp -mtune=generic -march=x86-64 -g -O0 -fpre-include=/usr/include/finclude/math-vector-fortran.h
REM seed -2103542983 1666563650 -65368600 1829151158 690149344 -1515418423 -837729267 -97855144 1795401610 -1464227402 1275754277 -292107896 1891285259 281755698 69430463 1927700678 32021381 1144670982 1463265738 -739319857 -144877975 1794577920 1644746646 -722867712 205187550 -72259621 286951046 -1570590224 359486559 220995767 -258807442 2050338509 -1014649508
REM
CELL 1.54180   50.00000   50.00000   50.00000   90.00000   90.00000   90.00000
LATT -1
SFAC C  
C      1  0.5029210000000  0.5510340000000  0.4355100000000 1.0
C      1  0.4452540000000  0.4939940000000  0.4175010000000 1.0
C      1  0.4753170000000  0.5271710000000  0.5681820000000 1.0
C      1  0.5124390000000  0.4618770000000  0.5917790000000 1.0
C      1  0.5110270000000  0.5384560000000  0.4106170000000 1.0
C      1  0.4387250000000  0.5071100000000  0.4427290000000 1.0
C      1  0.5254890000000  0.4874790000000  0.5987330000000 1.0
C      1  0.4618170000000  0.5031730000000  0.5566970000000 1.0
C      1  0.5992950000000  0.4770170000000  0.5930010000000 1.0
C      1  0.4225080000000  0.5167250000000  0.4934540000000 1.0
C      1  0.4296520000000  0.4527030000000  0.4930380000000 1.0
C      1  0.5844290000000  0.5243370000000  0.4167490000000 1.0
C      1  0.4640580000000  0.5766800000000  0.5142780000000 1.0
C      1  0.5633120000000  0.4100830000000  0.5739700000000 1.0
C      1  0.4511990000000  0.4212380000000  0.4336880000000 1.0
C      1  0.5653210000000  0.5571930000000  0.4763560000000 1.0
C      1  0.5476460000000  0.4529830000000  0.5541030000000 1.0
C      1  0.4879090000000  0.5334570000000  0.5194720000000 1.0
C      1  0.4762590000000  0.4628100000000  0.4454700000000 1.0
C      1  0.5346660000000  0.5201570000000  0.4625530000000 1.0
C      1  0.4711870000000  0.5100430000000  0.5061160000000 1.0
C      1  0.5609130000000  0.4782900000000  0.5613240000000 1.0
C      1  0.4680900000000  0.4746850000000  0.4701390000000 1.0
C      1  0.5427640000000  0.5066620000000  0.4379830000000 1.0
C      1  0.4922550000000  0.4795530000000  0.4273410000000 1.0
C      1  0.5073730000000  0.5159060000000  0.4697140000000 1.0
C      1  0.5215990000000  0.4626500000000  0.5446630000000 1.0
C      1  0.5091130000000  0.5236340000000  0.5357290000000 1.0
C      1  0.4780360000000  0.5032310000000  0.4776990000000 1.0
C      1  0.5214900000000  0.4920120000000  0.4257920000000 1.0
C      1  0.4851060000000  0.4925630000000  0.5292620000000 1.0
C      1  0.5404720000000  0.4979490000000  0.5545670000000 1.0
C      1  0.4605890000000  0.5207930000000  0.4545820000000 1.0
C      1  0.5013990000000  0.5107380000000  0.4086340000000 1.0
C      1  0.5238350000000  0.5072050000000  0.5770080000000 1.0
C      1  0.4782310000000  0.4767650000000  0.5557400000000 1.0
C      1  0.4723840000000  0.4979970000000  0.4097680000000 1.0
C      1  0.4879390000000  0.5330720000000  0.4531210000000 1.0
C      1  0.5041150000000  0.5242570000000  0.5648180000000 1.0
C      1  0.5005130000000  0.4622540000000  0.5649590000000 1.0
C      1  0.4241670000000  0.4905620000000  0.4613630000000 1.0
C      1  0.5391130000000  0.5407410000000  0.4045110000000 1.0
C      1  0.5526900000000  0.4846190000000  0.6080900000000 1.0
C      1  0.4376560000000  0.5073310000000  0.5399420000000 1.0
C      1  0.4379610000000  0.4660240000000  0.4167230000000 1.0
C      1  0.5242300000000  0.5647980000000  0.4493890000000 1.0
C      1  0.4657150000000  0.5518970000000  0.5571020000000 1.0
C      1  0.5287990000000  0.4383870000000  0.5955880000000 1.0
C      1  0.5728360000000  0.4801510000000  0.5880050000000 1.0
C      1  0.4415780000000  0.5116640000000  0.5126290000000 1.0
C      1  0.4397110000000  0.4715100000000  0.4763420000000 1.0
C      1  0.5574400000000  0.5238800000000  0.4190910000000 1.0
C      1  0.4725060000000  0.5558940000000  0.5294700000000 1.0
C      1  0.5474210000000  0.4320310000000  0.5745690000000 1.0
C      1  0.4548960000000  0.4480050000000  0.4316040000000 1.0
C      1  0.5428580000000  0.5484130000000  0.4640310000000 1.0
C      1  0.5191940000000  0.4922490000000  0.5287190000000 1.0
END
