TITL C-2782239-8622-1489 0.0133636202442828 125000 -219.161166544654 0 0 40 (C3) n - 1
REM
REM in /home/nfs/bkarasulu/CARBON/AIRSS/Generating-Clusters/REBO/Higher-Symm/SD-CG/HFTN-CG
REM
REM
REM
REM
REM
REM ./C.cell (12c818d87b63d06a65506943cc24bca4)
REM
REM compiler GCC version 9.2.1 20190827 (Red Hat 9.2.1-1)
REM options -cpp -mtune=generic -march=x86-64 -g -O0 -fpre-include=/usr/include/finclude/math-vector-fortran.h
REM seed -2042086042 226947220 1419620201 1775101906 -840724862 1558017824 2125648065 1510188975 -1328608259 -1314978919 -347474734 -195644553 161447561 192113578 -927843241 1804650219 -1049055661 821694967 -1897821092 -421138219 1839590290 150727687 -628269884 2053905485 1557493559 -1935317212 2059576474 -907262557 -220773870 143661794 -2005267328 -1994440101 -312232713
REM
CELL 1.54180   50.00000   50.00000   50.00000   90.00000   90.00000   90.00000
LATT -1
SFAC C  
C      1  0.4479740000000  0.5149430000000  0.5510400000000 1.0
C      1  0.4807650000000  0.5148960000000  0.4287710000000 1.0
C      1  0.5702570000000  0.5150000000000  0.5183030000000 1.0
C      1  0.5280990000000  0.4626450000000  0.4941720000000 1.0
C      1  0.4900240000000  0.4626390000000  0.5266110000000 1.0
C      1  0.4809690000000  0.4626070000000  0.4774170000000 1.0
C      1  0.5524340000000  0.4762300000000  0.4888900000000 1.0
C      1  0.4824120000000  0.4762200000000  0.5503220000000 1.0
C      1  0.4642210000000  0.4761590000000  0.4589650000000 1.0
C      1  0.5452160000000  0.5307260000000  0.4802920000000 1.0
C      1  0.4933900000000  0.5307310000000  0.5483550000000 1.0
C      1  0.4603600000000  0.5306680000000  0.4694410000000 1.0
C      1  0.4256340000000  0.5113970000000  0.5101830000000 1.0
C      1  0.5273230000000  0.5114160000000  0.4298540000000 1.0
C      1  0.5460450000000  0.5114970000000  0.5580830000000 1.0
C      1  0.5176490000000  0.4592370000000  0.5203700000000 1.0
C      1  0.4725660000000  0.4592010000000  0.5044630000000 1.0
C      1  0.5088830000000  0.4592060000000  0.4733730000000 1.0
C      1  0.5758560000000  0.5011180000000  0.4547790000000 1.0
C      1  0.5002070000000  0.5011440000000  0.5876550000000 1.0
C      1  0.4229580000000  0.5010240000000  0.4557030000000 1.0
C      1  0.4578530000000  0.4729680000000  0.5615630000000 1.0
C      1  0.4667710000000  0.4729020000000  0.4320770000000 1.0
C      1  0.5744490000000  0.4730080000000  0.5045430000000 1.0
C      1  0.5523480000000  0.4938450000000  0.4665760000000 1.0
C      1  0.5017540000000  0.4938660000000  0.5614000000000 1.0
C      1  0.4449310000000  0.4937810000000  0.4701730000000 1.0
C      1  0.5140110000000  0.5431560000000  0.5587100000000 1.0
C      1  0.4410640000000  0.5430690000000  0.4821180000000 1.0
C      1  0.5438680000000  0.5431180000000  0.4572400000000 1.0
C      1  0.5223690000000  0.5078700000000  0.5167520000000 1.0
C      1  0.4732710000000  0.5078360000000  0.5103450000000 1.0
C      1  0.5033690000000  0.5078330000000  0.4710280000000 1.0
C      1  0.4483550000000  0.5038210000000  0.4967970000000 1.0
C      1  0.5275650000000  0.5038470000000  0.4562260000000 1.0
C      1  0.5230950000000  0.5038930000000  0.5451090000000 1.0
C      1  0.4809550000000  0.5174320000000  0.4559100000000 1.0
C      1  0.5466550000000  0.5174990000000  0.5048980000000 1.0
C      1  0.4713800000000  0.5174700000000  0.5373010000000 1.0
C      1  0.4996700000000  0.5062210000000  0.4993760000000 1.0
END
