TITL C-2782228-2999-644 -0.000871647212349039 125000 -237.401605876775 0 0 42 (C1) n - 1
REM
REM in /home/nfs/bkarasulu/CARBON/AIRSS/Generating-Clusters/REBO/Higher-Symm/SD-CG/HFTN-CG
REM
REM
REM
REM
REM
REM ./C.cell (12c818d87b63d06a65506943cc24bca4)
REM
REM compiler GCC version 9.2.1 20190827 (Red Hat 9.2.1-1)
REM options -cpp -mtune=generic -march=x86-64 -g -O0 -fpre-include=/usr/include/finclude/math-vector-fortran.h
REM seed 1563694219 248720249 -59520626 -651146143 1478392361 643915078 -1031841258 -489634213 -722505786 -1393336847 -176657545 1081087922 -530265824 -381506391 859610760 1239712162 927924813 1382739884 481015006 2092297024 -1172422248 -919120972 1292489693 1759520272 -2134074279 -1220903078 539388326 -1823034502 1303137485 -983862327 -30235282 -1694329259 -1815231743
REM
CELL 1.54180   50.00000   50.00000   50.00000   90.00000   90.00000   90.00000
LATT -1
SFAC C  
C      1  0.4738270000000  0.5815410000000  0.4417990000000 1.0
C      1  0.4673780000000  0.5834250000000  0.5535800000000 1.0
C      1  0.5650920000000  0.5845710000000  0.5020210000000 1.0
C      1  0.5363470000000  0.5072220000000  0.5570420000000 1.0
C      1  0.5316010000000  0.5277890000000  0.4457510000000 1.0
C      1  0.4334040000000  0.5158030000000  0.4971200000000 1.0
C      1  0.4789340000000  0.4587720000000  0.5489310000000 1.0
C      1  0.5536660000000  0.4592340000000  0.4936180000000 1.0
C      1  0.4682680000000  0.4573770000000  0.4566920000000 1.0
C      1  0.5211570000000  0.5628130000000  0.4994550000000 1.0
C      1  0.4918620000000  0.5603700000000  0.4820840000000 1.0
C      1  0.4913720000000  0.5626160000000  0.5161710000000 1.0
C      1  0.5006450000000  0.5007440000000  0.4734940000000 1.0
C      1  0.4805190000000  0.5048540000000  0.5115600000000 1.0
C      1  0.5200320000000  0.5076280000000  0.5077300000000 1.0
C      1  0.4626270000000  0.4806250000000  0.4507110000000 1.0
C      1  0.4768530000000  0.4822510000000  0.5560410000000 1.0
C      1  0.5607640000000  0.4826440000000  0.4916090000000 1.0
C      1  0.5608450000000  0.5365300000000  0.4964840000000 1.0
C      1  0.4702540000000  0.5337990000000  0.4491360000000 1.0
C      1  0.4762230000000  0.5357360000000  0.5522530000000 1.0
C      1  0.5501390000000  0.5615310000000  0.4993330000000 1.0
C      1  0.4781660000000  0.5587370000000  0.4567380000000 1.0
C      1  0.4777510000000  0.5608050000000  0.5416620000000 1.0
C      1  0.4715370000000  0.5069550000000  0.4639980000000 1.0
C      1  0.4860420000000  0.5082380000000  0.5425930000000 1.0
C      1  0.5468020000000  0.5096670000000  0.4913180000000 1.0
C      1  0.5132170000000  0.4213970000000  0.5380100000000 1.0
C      1  0.5276610000000  0.4205940000000  0.4708990000000 1.0
C      1  0.4624690000000  0.4198970000000  0.4918930000000 1.0
C      1  0.4585520000000  0.5097470000000  0.4921680000000 1.0
C      1  0.5176210000000  0.5076220000000  0.5388110000000 1.0
C      1  0.5253460000000  0.5126160000000  0.4679480000000 1.0
C      1  0.4822950000000  0.4372110000000  0.4749550000000 1.0
C      1  0.4883300000000  0.4379640000000  0.5286060000000 1.0
C      1  0.5318380000000  0.4380320000000  0.4965360000000 1.0
C      1  0.5335780000000  0.4214130000000  0.5229700000000 1.0
C      1  0.5044990000000  0.4203330000000  0.4606930000000 1.0
C      1  0.4652630000000  0.4202980000000  0.5170390000000 1.0
C      1  0.5027240000000  0.5323970000000  0.5011860000000 1.0
C      1  0.5010950000000  0.4807390000000  0.4992650000000 1.0
C      1  0.5008770000000  0.4510690000000  0.4998490000000 1.0
END
