TITL C-2782229-3092-662 2.8844815372542e-05 125000 -144.173453767327 0 0 28 (C5) n - 1
REM
REM in /home/nfs/bkarasulu/CARBON/AIRSS/Generating-Clusters/REBO/Higher-Symm/SD-CG/HFTN-CG
REM
REM
REM
REM
REM
REM ./C.cell (12c818d87b63d06a65506943cc24bca4)
REM
REM compiler GCC version 9.2.1 20190827 (Red Hat 9.2.1-1)
REM options -cpp -mtune=generic -march=x86-64 -g -O0 -fpre-include=/usr/include/finclude/math-vector-fortran.h
REM seed -1841758316 -1923263670 1550698245 879402562 -1471144038 1854247300 -1798520098 353406760 505282398 759360834 2027972498 -565124908 -507499317 -817886268 16612591 577054399 379261688 1156666239 997076301 48244619 -1152757577 759393113 -704268294 -824776496 -1275940343 1989946085 1215964293 2128788855 2003709455 1380115951 1684039889 -452982338 1638127810
REM
CELL 1.54180   50.00000   50.00000   50.00000   90.00000   90.00000   90.00000
LATT -1
SFAC C  
C      1  0.4696570000000  0.4868600000000  0.5496860000000 1.0
C      1  0.5030240000000  0.4650360000000  0.5497140000000 1.0
C      1  0.5340900000000  0.4900260000000  0.5497350000000 1.0
C      1  0.5199230000000  0.5272940000000  0.5497210000000 1.0
C      1  0.4801010000000  0.5253370000000  0.5496910000000 1.0
C      1  0.4697360000000  0.4868510000000  0.4470850000000 1.0
C      1  0.5031030000000  0.4650270000000  0.4471120000000 1.0
C      1  0.5341690000000  0.4900170000000  0.4471340000000 1.0
C      1  0.5200020000000  0.5272850000000  0.4471200000000 1.0
C      1  0.4801800000000  0.5253280000000  0.4470890000000 1.0
C      1  0.4734850000000  0.5336290000000  0.4719100000000 1.0
C      1  0.4597610000000  0.4830680000000  0.4719030000000 1.0
C      1  0.5036060000000  0.4543910000000  0.4719400000000 1.0
C      1  0.5444290000000  0.4872290000000  0.4719680000000 1.0
C      1  0.5258130000000  0.5362010000000  0.4719500000000 1.0
C      1  0.4734450000000  0.5336340000000  0.5248590000000 1.0
C      1  0.4597200000000  0.4830730000000  0.5248530000000 1.0
C      1  0.5035660000000  0.4543960000000  0.5248890000000 1.0
C      1  0.5443880000000  0.4872340000000  0.5249170000000 1.0
C      1  0.5257720000000  0.5362060000000  0.5248990000000 1.0
C      1  0.4789990000000  0.5267520000000  0.4983890000000 1.0
C      1  0.4679940000000  0.4862080000000  0.4983840000000 1.0
C      1  0.5031530000000  0.4632120000000  0.4984130000000 1.0
C      1  0.5209600000000  0.5288140000000  0.4984210000000 1.0
C      1  0.5358870000000  0.4895440000000  0.4984360000000 1.0
C      1  0.5014470000000  0.4989010000000  0.4358390000000 1.0
C      1  0.5013500000000  0.4989120000000  0.5609790000000 1.0
C      1  0.5013980000000  0.4989060000000  0.4984090000000 1.0
END
