TITL C-2782226-7400-184 -0.000256334683173878 125000 -147.916777413233 0 0 26 (C1) n - 1
REM
REM in /home/nfs/bkarasulu/CARBON/AIRSS/Generating-Clusters/REBO/Higher-Symm/SD-CG/HFTN-CG
REM
REM
REM
REM
REM
REM ./C.cell (12c818d87b63d06a65506943cc24bca4)
REM
REM compiler GCC version 9.2.1 20190827 (Red Hat 9.2.1-1)
REM options -cpp -mtune=generic -march=x86-64 -g -O0 -fpre-include=/usr/include/finclude/math-vector-fortran.h
REM seed 895909337 -2034711383 -1135637383 -1181330986 530534976 -1149438869 -1506152052 -637184775 349589732 730890011 -1222994370 -601848785 1052423615 892917362 1926403465 430410582 -268375791 -297880247 -469152403 -422527262 1187916501 -1704134672 1749947288 -1740627469 269330038 -217544275 -1595528768 1862684533 1094788102 -204114549 -628104913 2003357170 2045043019
REM
CELL 1.54180   50.00000   50.00000   50.00000   90.00000   90.00000   90.00000
LATT -1
SFAC C  
C      1  0.4890180000000  0.4841760000000  0.4746900000000 1.0
C      1  0.4878160000000  0.5119420000000  0.5320220000000 1.0
C      1  0.4969710000000  0.4698050000000  0.5025670000000 1.0
C      1  0.4950980000000  0.5222380000000  0.5021950000000 1.0
C      1  0.5356190000000  0.5553410000000  0.5195410000000 1.0
C      1  0.5382160000000  0.4442570000000  0.4721070000000 1.0
C      1  0.4665610000000  0.5582330000000  0.4637680000000 1.0
C      1  0.4620530000000  0.4375480000000  0.5349860000000 1.0
C      1  0.5196860000000  0.4294200000000  0.4858540000000 1.0
C      1  0.5247780000000  0.5743730000000  0.5038370000000 1.0
C      1  0.4792110000000  0.4257710000000  0.5168990000000 1.0
C      1  0.4840890000000  0.5773920000000  0.4715130000000 1.0
C      1  0.5230740000000  0.4834050000000  0.5164900000000 1.0
C      1  0.5215190000000  0.5160670000000  0.4913950000000 1.0
C      1  0.4776890000000  0.4695250000000  0.4541170000000 1.0
C      1  0.4745480000000  0.5270570000000  0.5507860000000 1.0
C      1  0.4763250000000  0.5122430000000  0.4818590000000 1.0
C      1  0.4790600000000  0.4822320000000  0.5264920000000 1.0
C      1  0.5192160000000  0.5070940000000  0.5302330000000 1.0
C      1  0.5208110000000  0.4917140000000  0.4758340000000 1.0
C      1  0.5347290000000  0.5303530000000  0.5298130000000 1.0
C      1  0.5386550000000  0.4714110000000  0.4688570000000 1.0
C      1  0.4622500000000  0.5315800000000  0.4674390000000 1.0
C      1  0.4625410000000  0.4647920000000  0.5390580000000 1.0
C      1  0.5059230000000  0.5827110000000  0.4864790000000 1.0
C      1  0.4982670000000  0.4393200000000  0.5011680000000 1.0
END
