TITL C-2782225-7408-515 -0.00311214058203488 125000 -859.820453549064 0 0 149 (C1) n - 1
REM
REM in /home/nfs/bkarasulu/CARBON/AIRSS/Generating-Clusters/REBO/Higher-Symm/SD-CG/HFTN-CG
REM
REM
REM
REM
REM
REM ./C.cell (12c818d87b63d06a65506943cc24bca4)
REM
REM compiler GCC version 9.2.1 20190827 (Red Hat 9.2.1-1)
REM options -cpp -mtune=generic -march=x86-64 -g -O0 -fpre-include=/usr/include/finclude/math-vector-fortran.h
REM seed 521029797 2041938982 1732188918 1981855622 141500661 243221672 -1917216562 335205773 -1120261716 1058787965 1306773777 1262812181 420998122 -2074658130 336092963 324441647 301438411 -1394656500 -593606301 -21985805 -781480386 -50056776 -719583813 -534876476 -348332692 1712873237 -1480786420 -1376997731 1808146293 859854344 -27184520 601766068 232300231
REM
CELL 1.54180   50.00000   50.00000   50.00000   90.00000   90.00000   90.00000
LATT -1
SFAC C  
C      1  0.5587470000000  0.5358620000000  0.4465900000000 1.0
C      1  0.5618110000000  0.4317680000000  0.4953060000000 1.0
C      1  0.5652130000000  0.5271980000000  0.5568470000000 1.0
C      1  0.4686670000000  0.4160920000000  0.5460860000000 1.0
C      1  0.4587370000000  0.5772750000000  0.5561150000000 1.0
C      1  0.4583420000000  0.5086920000000  0.4165100000000 1.0
C      1  0.4702790000000  0.4002060000000  0.5186590000000 1.0
C      1  0.4632560000000  0.5611240000000  0.5833730000000 1.0
C      1  0.4655580000000  0.5401220000000  0.4118440000000 1.0
C      1  0.5296980000000  0.4102400000000  0.5209000000000 1.0
C      1  0.5202840000000  0.5644600000000  0.5680360000000 1.0
C      1  0.5188410000000  0.5155450000000  0.4132990000000 1.0
C      1  0.4300420000000  0.5498890000000  0.4650710000000 1.0
C      1  0.4364290000000  0.4397460000000  0.4868530000000 1.0
C      1  0.4276780000000  0.5141320000000  0.5630230000000 1.0
C      1  0.4841850000000  0.5965800000000  0.5486990000000 1.0
C      1  0.4733190000000  0.4863310000000  0.3963930000000 1.0
C      1  0.4952990000000  0.4118390000000  0.5649580000000 1.0
C      1  0.5333250000000  0.5121300000000  0.5341600000000 1.0
C      1  0.5299150000000  0.5271610000000  0.4782990000000 1.0
C      1  0.5297280000000  0.4677350000000  0.4974930000000 1.0
C      1  0.4676850000000  0.5910880000000  0.5128800000000 1.0
C      1  0.4624390000000  0.4659900000000  0.4221630000000 1.0
C      1  0.4767810000000  0.4579640000000  0.5787880000000 1.0
C      1  0.4411200000000  0.5722110000000  0.5118090000000 1.0
C      1  0.4407490000000  0.4583540000000  0.4404410000000 1.0
C      1  0.4457430000000  0.4609150000000  0.5678130000000 1.0
C      1  0.4693180000000  0.4422290000000  0.5093920000000 1.0
C      1  0.4617120000000  0.5304510000000  0.5497930000000 1.0
C      1  0.4650820000000  0.5300650000000  0.4539930000000 1.0
C      1  0.4974700000000  0.5795030000000  0.4433270000000 1.0
C      1  0.4954200000000  0.4137860000000  0.4627250000000 1.0
C      1  0.4854370000000  0.5166090000000  0.5913600000000 1.0
C      1  0.4456890000000  0.4365160000000  0.4588520000000 1.0
C      1  0.4377410000000  0.4908670000000  0.5757820000000 1.0
C      1  0.4329400000000  0.5749410000000  0.4787190000000 1.0
C      1  0.5207060000000  0.5360490000000  0.5492760000000 1.0
C      1  0.5206590000000  0.5238830000000  0.4470450000000 1.0
C      1  0.5263860000000  0.4433820000000  0.5145590000000 1.0
C      1  0.4889010000000  0.5223770000000  0.4383320000000 1.0
C      1  0.4958970000000  0.4306840000000  0.5207790000000 1.0
C      1  0.4887560000000  0.5443290000000  0.5562130000000 1.0
C      1  0.5868780000000  0.4541530000000  0.4883040000000 1.0
C      1  0.5884480000000  0.5147930000000  0.5364810000000 1.0
C      1  0.5863080000000  0.5243500000000  0.4633200000000 1.0
C      1  0.5500580000000  0.5481330000000  0.5382620000000 1.0
C      1  0.5475790000000  0.5056310000000  0.4388520000000 1.0
C      1  0.5566250000000  0.4362250000000  0.5286270000000 1.0
C      1  0.5608080000000  0.6017670000000  0.4798490000000 1.0
C      1  0.5576600000000  0.4406820000000  0.4129640000000 1.0
C      1  0.5605520000000  0.4969950000000  0.5724970000000 1.0
C      1  0.4260090000000  0.4569180000000  0.5276230000000 1.0
C      1  0.4119830000000  0.5411490000000  0.5376090000000 1.0
C      1  0.4284330000000  0.4839060000000  0.4496290000000 1.0
C      1  0.6053450000000  0.4735820000000  0.4688740000000 1.0
C      1  0.5993840000000  0.4845600000000  0.5312000000000 1.0
C      1  0.6066510000000  0.5252050000000  0.4906180000000 1.0
C      1  0.4995990000000  0.5920550000000  0.5186290000000 1.0
C      1  0.4906950000000  0.4581990000000  0.4053120000000 1.0
C      1  0.4981040000000  0.4364320000000  0.5849500000000 1.0
C      1  0.5611820000000  0.4959480000000  0.5325690000000 1.0
C      1  0.5611420000000  0.5396620000000  0.4800590000000 1.0
C      1  0.5559630000000  0.4600090000000  0.4790550000000 1.0
C      1  0.4745070000000  0.4601790000000  0.4818240000000 1.0
C      1  0.4649350000000  0.4978790000000  0.5473950000000 1.0
C      1  0.4761660000000  0.5453010000000  0.4797090000000 1.0
C      1  0.5260220000000  0.4805910000000  0.5432950000000 1.0
C      1  0.5143180000000  0.5468200000000  0.4990690000000 1.0
C      1  0.5205760000000  0.4735930000000  0.4663590000000 1.0
C      1  0.4314260000000  0.5646570000000  0.5400950000000 1.0
C      1  0.4310510000000  0.5067340000000  0.4332620000000 1.0
C      1  0.4412040000000  0.4359410000000  0.5460080000000 1.0
C      1  0.5403990000000  0.5579830000000  0.4337120000000 1.0
C      1  0.5407610000000  0.4112360000000  0.4825910000000 1.0
C      1  0.5411010000000  0.5212210000000  0.5802900000000 1.0
C      1  0.4910750000000  0.4473000000000  0.4625700000000 1.0
C      1  0.4992640000000  0.5024100000000  0.5634340000000 1.0
C      1  0.4932580000000  0.5697650000000  0.4742360000000 1.0
C      1  0.5482310000000  0.4415600000000  0.5599520000000 1.0
C      1  0.5403480000000  0.5780530000000  0.5263280000000 1.0
C      1  0.5373920000000  0.4869160000000  0.4141530000000 1.0
C      1  0.4907630000000  0.4371750000000  0.4301000000000 1.0
C      1  0.4997840000000  0.4859790000000  0.5953570000000 1.0
C      1  0.4765350000000  0.5954080000000  0.4621490000000 1.0
C      1  0.5547590000000  0.4681470000000  0.5308060000000 1.0
C      1  0.5465820000000  0.5515400000000  0.5052050000000 1.0
C      1  0.5497080000000  0.4873010000000  0.4622780000000 1.0
C      1  0.4492330000000  0.4756520000000  0.4753220000000 1.0
C      1  0.4374150000000  0.4861910000000  0.5362280000000 1.0
C      1  0.4519670000000  0.5461530000000  0.4986630000000 1.0
C      1  0.4925630000000  0.5395030000000  0.5171270000000 1.0
C      1  0.4967270000000  0.4920120000000  0.4625180000000 1.0
C      1  0.5013640000000  0.4676480000000  0.5339780000000 1.0
C      1  0.4557560000000  0.5950180000000  0.4825710000000 1.0
C      1  0.4671430000000  0.4195230000000  0.4476610000000 1.0
C      1  0.4666040000000  0.4882500000000  0.5880870000000 1.0
C      1  0.5071090000000  0.4874590000000  0.3994640000000 1.0
C      1  0.5245110000000  0.4284160000000  0.5680500000000 1.0
C      1  0.5169810000000  0.5875080000000  0.5473340000000 1.0
C      1  0.4605000000000  0.4729060000000  0.5168130000000 1.0
C      1  0.4558250000000  0.5239880000000  0.5188960000000 1.0
C      1  0.4532880000000  0.5072600000000  0.4720750000000 1.0
C      1  0.4928720000000  0.5117010000000  0.5335140000000 1.0
C      1  0.4918090000000  0.5150900000000  0.4792290000000 1.0
C      1  0.4914650000000  0.4751360000000  0.5065000000000 1.0
C      1  0.4991220000000  0.5423290000000  0.4138840000000 1.0
C      1  0.5002550000000  0.3989170000000  0.5093600000000 1.0
C      1  0.4939090000000  0.5554720000000  0.5876050000000 1.0
C      1  0.4752810000000  0.5625740000000  0.5302450000000 1.0
C      1  0.4815940000000  0.4910730000000  0.4348580000000 1.0
C      1  0.4839810000000  0.4464410000000  0.5489540000000 1.0
C      1  0.5954290000000  0.4986660000000  0.4511010000000 1.0
C      1  0.5974190000000  0.4653280000000  0.5160080000000 1.0
C      1  0.6025520000000  0.5349570000000  0.5173360000000 1.0
C      1  0.5166140000000  0.5301350000000  0.5885990000000 1.0
C      1  0.5144930000000  0.5650240000000  0.4269970000000 1.0
C      1  0.5140220000000  0.4042090000000  0.4812960000000 1.0
C      1  0.4388440000000  0.5444210000000  0.5668040000000 1.0
C      1  0.4407200000000  0.5392760000000  0.4352910000000 1.0
C      1  0.4449010000000  0.4224900000000  0.5146250000000 1.0
C      1  0.4160550000000  0.5094450000000  0.5319830000000 1.0
C      1  0.4289460000000  0.5237840000000  0.4862170000000 1.0
C      1  0.4256820000000  0.4705340000000  0.4972740000000 1.0
C      1  0.5521620000000  0.4677600000000  0.5706660000000 1.0
C      1  0.5436790000000  0.5901310000000  0.4951770000000 1.0
C      1  0.5399180000000  0.4575550000000  0.4225290000000 1.0
C      1  0.5238230000000  0.4818380000000  0.5753430000000 1.0
C      1  0.5142040000000  0.5789840000000  0.4960800000000 1.0
C      1  0.5190210000000  0.4511620000000  0.4432850000000 1.0
C      1  0.6250700000000  0.4974160000000  0.4834710000000 1.0
C      1  0.4565460000000  0.5015770000000  0.5047270000000 1.0
C      1  0.7339720000000  0.4923390000000  0.4882750000000 1.0
C      1  0.5329510000000  0.5018490000000  0.5015710000000 1.0
C      1  0.3322440000000  0.5013390000000  0.4782160000000 1.0
C      1  0.3578250000000  0.5014460000000  0.4856200000000 1.0
C      1  0.4127070000000  0.5016780000000  0.5015060000000 1.0
C      1  0.2303290000000  0.5009090000000  0.4487170000000 1.0
C      1  0.3831750000000  0.5015530000000  0.4929580000000 1.0
C      1  0.7605480000000  0.4911000000000  0.4894470000000 1.0
C      1  0.5917350000000  0.4957690000000  0.4907170000000 1.0
C      1  0.7073960000000  0.4935780000000  0.4871030000000 1.0
C      1  0.5014010000000  0.5028380000000  0.5044330000000 1.0
C      1  0.2810830000000  0.5011230000000  0.4634080000000 1.0
C      1  0.3066640000000  0.5012310000000  0.4708120000000 1.0
C      1  0.5634870000000  0.4976300000000  0.4899590000000 1.0
C      1  0.6808200000000  0.4948170000000  0.4859300000000 1.0
C      1  0.2555030000000  0.5010150000000  0.4560040000000 1.0
C      1  0.7867020000000  0.4898800000000  0.4906010000000 1.0
C      1  0.6544830000000  0.4960450000000  0.4847680000000 1.0
END
