TITL C-2782235-7892-183 -0.00404677626653847 125000 -480.737742131423 0 0 82 (C1) n - 1
REM
REM in /home/nfs/bkarasulu/CARBON/AIRSS/Generating-Clusters/REBO/Higher-Symm/SD-CG/HFTN-CG
REM
REM
REM
REM
REM
REM ./C.cell (12c818d87b63d06a65506943cc24bca4)
REM
REM compiler GCC version 9.2.1 20190827 (Red Hat 9.2.1-1)
REM options -cpp -mtune=generic -march=x86-64 -g -O0 -fpre-include=/usr/include/finclude/math-vector-fortran.h
REM seed -899781065 106092557 864912042 1218887988 -158095582 1216823082 -1203573033 1566081857 -1228539442 -1617494070 -626134324 -1834008189 1842901752 324559321 -660214341 -1573910854 474792609 360037301 -205199906 -1280826262 -1966190362 -243509382 509438607 1318459433 -1058610906 -1577077505 1103990819 -609348961 1076750665 851047127 1811641904 -1153990491 -2043931891
REM
CELL 1.54180   50.00000   50.00000   50.00000   90.00000   90.00000   90.00000
LATT -1
SFAC C  
C      1  0.4770250000000  0.4688980000000  0.4839690000000 1.0
C      1  0.4844290000000  0.5392340000000  0.4967270000000 1.0
C      1  0.5430320000000  0.5068620000000  0.4778500000000 1.0
C      1  0.4773730000000  0.4621620000000  0.5121850000000 1.0
C      1  0.4776170000000  0.5328050000000  0.5275430000000 1.0
C      1  0.5469600000000  0.5008130000000  0.5063050000000 1.0
C      1  0.5560090000000  0.5445500000000  0.4791430000000 1.0
C      1  0.5087200000000  0.4315750000000  0.4824630000000 1.0
C      1  0.4312310000000  0.5267100000000  0.4784740000000 1.0
C      1  0.5560090000000  0.5393800000000  0.5117960000000 1.0
C      1  0.5048150000000  0.4297950000000  0.5162590000000 1.0
C      1  0.4329720000000  0.5288420000000  0.5115150000000 1.0
C      1  0.5114400000000  0.4827000000000  0.5720560000000 1.0
C      1  0.4803630000000  0.4950400000000  0.5754080000000 1.0
C      1  0.5062320000000  0.5164140000000  0.5691530000000 1.0
C      1  0.5158100000000  0.4865270000000  0.4246720000000 1.0
C      1  0.4824620000000  0.4928920000000  0.4293540000000 1.0
C      1  0.5037030000000  0.5180970000000  0.4219970000000 1.0
C      1  0.4333510000000  0.4988180000000  0.5555350000000 1.0
C      1  0.5306540000000  0.5564860000000  0.5532540000000 1.0
C      1  0.5386800000000  0.4423440000000  0.5563500000000 1.0
C      1  0.4339950000000  0.4935580000000  0.4389420000000 1.0
C      1  0.5265530000000  0.5598270000000  0.4387180000000 1.0
C      1  0.5401670000000  0.4461870000000  0.4425120000000 1.0
C      1  0.4543690000000  0.5547380000000  0.5179570000000 1.0
C      1  0.5761050000000  0.5122070000000  0.5173950000000 1.0
C      1  0.4705170000000  0.4302330000000  0.5178990000000 1.0
C      1  0.4540950000000  0.5502200000000  0.4852170000000 1.0
C      1  0.5753670000000  0.5165410000000  0.4835120000000 1.0
C      1  0.4747690000000  0.4333860000000  0.4848530000000 1.0
C      1  0.5105110000000  0.4367820000000  0.4488800000000 1.0
C      1  0.4430970000000  0.5214170000000  0.4481780000000 1.0
C      1  0.5486950000000  0.5393220000000  0.4475660000000 1.0
C      1  0.5094790000000  0.4302900000000  0.5501970000000 1.0
C      1  0.4408840000000  0.5283170000000  0.5445830000000 1.0
C      1  0.5476410000000  0.5331800000000  0.5442510000000 1.0
C      1  0.5750820000000  0.4852990000000  0.4699040000000 1.0
C      1  0.4493120000000  0.4446910000000  0.4692780000000 1.0
C      1  0.4760740000000  0.5665890000000  0.4687480000000 1.0
C      1  0.5714710000000  0.4837760000000  0.5325470000000 1.0
C      1  0.4461330000000  0.4465790000000  0.5311480000000 1.0
C      1  0.4786970000000  0.5724410000000  0.5298060000000 1.0
C      1  0.4541020000000  0.4508140000000  0.4418060000000 1.0
C      1  0.4792680000000  0.5595810000000  0.4413970000000 1.0
C      1  0.5667410000000  0.4850900000000  0.4422420000000 1.0
C      1  0.4502160000000  0.4549100000000  0.5581310000000 1.0
C      1  0.4845620000000  0.5646130000000  0.5569930000000 1.0
C      1  0.5623430000000  0.4835250000000  0.5595240000000 1.0
C      1  0.4519230000000  0.4814620000000  0.5679960000000 1.0
C      1  0.5061480000000  0.5481700000000  0.5656390000000 1.0
C      1  0.5401150000000  0.4682590000000  0.5687280000000 1.0
C      1  0.4555010000000  0.4767610000000  0.4304510000000 1.0
C      1  0.5023240000000  0.5490580000000  0.4287830000000 1.0
C      1  0.5438690000000  0.4720720000000  0.4312350000000 1.0
C      1  0.5248780000000  0.5205600000000  0.4457380000000 1.0
C      1  0.5066540000000  0.4670060000000  0.4482290000000 1.0
C      1  0.4717300000000  0.5139230000000  0.4519340000000 1.0
C      1  0.5289680000000  0.5112310000000  0.5468840000000 1.0
C      1  0.5041000000000  0.4608690000000  0.5501670000000 1.0
C      1  0.4703980000000  0.5129790000000  0.5518090000000 1.0
C      1  0.4304980000000  0.4965980000000  0.5233310000000 1.0
C      1  0.5289610000000  0.5588150000000  0.5203770000000 1.0
C      1  0.5344160000000  0.4458790000000  0.5237050000000 1.0
C      1  0.4280550000000  0.4930080000000  0.4714870000000 1.0
C      1  0.5286180000000  0.5640130000000  0.4713060000000 1.0
C      1  0.5385520000000  0.4469090000000  0.4749810000000 1.0
C      1  0.5026100000000  0.4763140000000  0.4744420000000 1.0
C      1  0.4752590000000  0.5112320000000  0.4817060000000 1.0
C      1  0.5140160000000  0.5153160000000  0.4746590000000 1.0
C      1  0.5017380000000  0.4689390000000  0.5236100000000 1.0
C      1  0.4723410000000  0.5009100000000  0.5200540000000 1.0
C      1  0.5244200000000  0.5011700000000  0.5215740000000 1.0
C      1  0.5623460000000  0.4653980000000  0.4869000000000 1.0
C      1  0.4330410000000  0.4628500000000  0.4845840000000 1.0
C      1  0.4990940000000  0.5763520000000  0.4828390000000 1.0
C      1  0.5604020000000  0.4641820000000  0.5149100000000 1.0
C      1  0.4334440000000  0.4649210000000  0.5131160000000 1.0
C      1  0.5008120000000  0.5746610000000  0.5115930000000 1.0
C      1  0.5239650000000  0.4668520000000  0.4986410000000 1.0
C      1  0.5156880000000  0.5420630000000  0.4939210000000 1.0
C      1  0.4505720000000  0.4966740000000  0.4959980000000 1.0
C      1  0.5005530000000  0.5034640000000  0.5036000000000 1.0
END
