TITL C-2782226-7400-897 -0.0044231149385195 125000 -676.085571013136 0 0 120 (C1) n - 1
REM
REM in /home/nfs/bkarasulu/CARBON/AIRSS/Generating-Clusters/REBO/Higher-Symm/SD-CG/HFTN-CG
REM
REM
REM
REM
REM
REM ./C.cell (12c818d87b63d06a65506943cc24bca4)
REM
REM compiler GCC version 9.2.1 20190827 (Red Hat 9.2.1-1)
REM options -cpp -mtune=generic -march=x86-64 -g -O0 -fpre-include=/usr/include/finclude/math-vector-fortran.h
REM seed 1114058708 1024388145 585289812 -428101085 206479007 1513601047 -1846709531 -116977040 539616361 -2030037920 -831073891 -494963377 -1219309037 1169243404 395511938 -1434096261 -1319652886 883959771 1097064972 278552053 979319320 -856102480 -1117073763 -1804186410 -818834103 -382257839 873563627 2075706376 -80403678 916549964 1587477600 501906855 -1978502937
REM
CELL 1.54180   50.00000   50.00000   50.00000   90.00000   90.00000   90.00000
LATT -1
SFAC C  
C      1  0.4318320000000  0.5551000000000  0.4769110000000 1.0
C      1  0.5658320000000  0.5492170000000  0.5254130000000 1.0
C      1  0.5640530000000  0.5522090000000  0.4749380000000 1.0
C      1  0.4330420000000  0.5551560000000  0.5266740000000 1.0
C      1  0.5138500000000  0.5812610000000  0.4492980000000 1.0
C      1  0.4881960000000  0.5858170000000  0.5489950000000 1.0
C      1  0.4854740000000  0.5843610000000  0.4497430000000 1.0
C      1  0.5166180000000  0.5820280000000  0.5484180000000 1.0
C      1  0.5156640000000  0.4168920000000  0.4645480000000 1.0
C      1  0.4875100000000  0.4123170000000  0.5341140000000 1.0
C      1  0.4816400000000  0.4163040000000  0.4652750000000 1.0
C      1  0.5211670000000  0.4160910000000  0.5303050000000 1.0
C      1  0.4630880000000  0.5591070000000  0.4708810000000 1.0
C      1  0.5320990000000  0.5508050000000  0.5288470000000 1.0
C      1  0.5307400000000  0.5530940000000  0.4719490000000 1.0
C      1  0.4645430000000  0.5590240000000  0.5313500000000 1.0
C      1  0.5740580000000  0.4945720000000  0.5443980000000 1.0
C      1  0.4128450000000  0.4987710000000  0.4714700000000 1.0
C      1  0.4185060000000  0.4974640000000  0.5327120000000 1.0
C      1  0.5756320000000  0.4927140000000  0.4658660000000 1.0
C      1  0.5358440000000  0.4826570000000  0.5143410000000 1.0
C      1  0.4630290000000  0.4843790000000  0.4853620000000 1.0
C      1  0.4606350000000  0.4833750000000  0.5183770000000 1.0
C      1  0.5296800000000  0.4831550000000  0.4816550000000 1.0
C      1  0.5430350000000  0.5270280000000  0.5639030000000 1.0
C      1  0.4491180000000  0.5300650000000  0.4362310000000 1.0
C      1  0.4552090000000  0.5308450000000  0.5657630000000 1.0
C      1  0.5424490000000  0.5272610000000  0.4327650000000 1.0
C      1  0.5218100000000  0.5068090000000  0.4615440000000 1.0
C      1  0.4737970000000  0.5068820000000  0.5356840000000 1.0
C      1  0.4731170000000  0.5079580000000  0.4655510000000 1.0
C      1  0.5233800000000  0.5045940000000  0.5357290000000 1.0
C      1  0.5227990000000  0.5031690000000  0.4189500000000 1.0
C      1  0.4747980000000  0.5062470000000  0.5785980000000 1.0
C      1  0.4671600000000  0.5049680000000  0.4220400000000 1.0
C      1  0.5289460000000  0.5020610000000  0.5752330000000 1.0
C      1  0.5846110000000  0.4762480000000  0.5236680000000 1.0
C      1  0.4222240000000  0.4668140000000  0.4646100000000 1.0
C      1  0.4287310000000  0.4649900000000  0.5342650000000 1.0
C      1  0.5844950000000  0.4612070000000  0.4674040000000 1.0
C      1  0.5312160000000  0.4758240000000  0.5533550000000 1.0
C      1  0.4638480000000  0.4803260000000  0.4458070000000 1.0
C      1  0.4663000000000  0.4800170000000  0.5576080000000 1.0
C      1  0.5273160000000  0.4780990000000  0.4422270000000 1.0
C      1  0.4300520000000  0.5282960000000  0.5425310000000 1.0
C      1  0.5672670000000  0.5246800000000  0.4563560000000 1.0
C      1  0.5650180000000  0.5236330000000  0.5447860000000 1.0
C      1  0.4254700000000  0.5289490000000  0.4610430000000 1.0
C      1  0.5265600000000  0.5922370000000  0.5244160000000 1.0
C      1  0.4789960000000  0.5958430000000  0.4747200000000 1.0
C      1  0.4802500000000  0.5968740000000  0.5246140000000 1.0
C      1  0.5248240000000  0.5926320000000  0.4723900000000 1.0
C      1  0.4651140000000  0.5302940000000  0.5179100000000 1.0
C      1  0.5373170000000  0.5236930000000  0.4827220000000 1.0
C      1  0.5382180000000  0.5225100000000  0.5151860000000 1.0
C      1  0.4644460000000  0.5305080000000  0.4844760000000 1.0
C      1  0.5245610000000  0.5532590000000  0.5607130000000 1.0
C      1  0.4672690000000  0.5576670000000  0.4389110000000 1.0
C      1  0.4716520000000  0.5605420000000  0.5627830000000 1.0
C      1  0.5255240000000  0.5520580000000  0.4397350000000 1.0
C      1  0.4377550000000  0.4476090000000  0.5132470000000 1.0
C      1  0.5701400000000  0.4438790000000  0.4855680000000 1.0
C      1  0.5718830000000  0.4518330000000  0.5150790000000 1.0
C      1  0.4331170000000  0.4491220000000  0.4832690000000 1.0
C      1  0.4699490000000  0.4578030000000  0.5344490000000 1.0
C      1  0.5232700000000  0.4559420000000  0.4659280000000 1.0
C      1  0.5278410000000  0.4554610000000  0.5290040000000 1.0
C      1  0.4690970000000  0.4576630000000  0.4682610000000 1.0
C      1  0.5601120000000  0.4791100000000  0.5647570000000 1.0
C      1  0.4379440000000  0.4999970000000  0.4484550000000 1.0
C      1  0.4413130000000  0.5004740000000  0.5578840000000 1.0
C      1  0.5547450000000  0.4966600000000  0.4413810000000 1.0
C      1  0.5438210000000  0.4324320000000  0.5132250000000 1.0
C      1  0.4612960000000  0.4300490000000  0.4861580000000 1.0
C      1  0.4649730000000  0.4282860000000  0.5199930000000 1.0
C      1  0.5402580000000  0.4318210000000  0.4792900000000 1.0
C      1  0.6237430000000  0.4439990000000  0.4346460000000 1.0
C      1  0.4315570000000  0.4457250000000  0.5848780000000 1.0
C      1  0.4186500000000  0.4523420000000  0.4126100000000 1.0
C      1  0.5783340000000  0.4581140000000  0.6106750000000 1.0
C      1  0.4301910000000  0.4550350000000  0.5604180000000 1.0
C      1  0.6046750000000  0.4523590000000  0.4505610000000 1.0
C      1  0.5694380000000  0.4683650000000  0.5882570000000 1.0
C      1  0.4203820000000  0.4593530000000  0.4378020000000 1.0
C      1  0.4233480000000  0.5616190000000  0.5020310000000 1.0
C      1  0.5743740000000  0.5592270000000  0.4997560000000 1.0
C      1  0.6018570000000  0.4896790000000  0.5053880000000 1.0
C      1  0.4012790000000  0.4932000000000  0.5033000000000 1.0
C      1  0.4956140000000  0.5476780000000  0.4300440000000 1.0
C      1  0.4963020000000  0.5434690000000  0.5702750000000 1.0
C      1  0.4964510000000  0.5518100000000  0.4700060000000 1.0
C      1  0.4977790000000  0.5513830000000  0.5310970000000 1.0
C      1  0.4339380000000  0.4849870000000  0.5001180000000 1.0
C      1  0.5603470000000  0.4818050000000  0.4914930000000 1.0
C      1  0.4970540000000  0.4540850000000  0.4823540000000 1.0
C      1  0.4986200000000  0.4496700000000  0.5219990000000 1.0
C      1  0.4950230000000  0.5396570000000  0.4024580000000 1.0
C      1  0.4961600000000  0.5344660000000  0.5971240000000 1.0
C      1  0.4977530000000  0.5227890000000  0.4537410000000 1.0
C      1  0.4997950000000  0.5204930000000  0.5452850000000 1.0
C      1  0.5667280000000  0.5201290000000  0.4982130000000 1.0
C      1  0.4382150000000  0.5245230000000  0.5016860000000 1.0
C      1  0.4946190000000  0.4846890000000  0.4243630000000 1.0
C      1  0.5000680000000  0.4836930000000  0.5736640000000 1.0
C      1  0.5036520000000  0.5060900000000  0.5978230000000 1.0
C      1  0.4942150000000  0.5108620000000  0.4022530000000 1.0
C      1  0.5085590000000  0.3946260000000  0.5510570000000 1.0
C      1  0.4984180000000  0.3993800000000  0.4434520000000 1.0
C      1  0.4117370000000  0.5233540000000  0.5029920000000 1.0
C      1  0.5922460000000  0.5135080000000  0.4956920000000 1.0
C      1  0.5066710000000  0.6289440000000  0.4989370000000 1.0
C      1  0.4990040000000  0.4274150000000  0.4992140000000 1.0
C      1  0.5034770000000  0.5974790000000  0.4991010000000 1.0
C      1  0.5003070000000  0.3746880000000  0.4960880000000 1.0
C      1  0.4994860000000  0.5034050000000  0.5031070000000 1.0
C      1  0.5017740000000  0.5292750000000  0.5002900000000 1.0
C      1  0.5009520000000  0.3485350000000  0.4945390000000 1.0
C      1  0.4974840000000  0.4775890000000  0.5044210000000 1.0
C      1  0.5039320000000  0.5632700000000  0.5002380000000 1.0
C      1  0.4996510000000  0.4012650000000  0.4976630000000 1.0
END
