TITL C-2782228-2999-1189 0.0054873912782175 125000 -793.990735332658 0 0 143 (C1) n - 1
REM
REM in /home/nfs/bkarasulu/CARBON/AIRSS/Generating-Clusters/REBO/Higher-Symm/SD-CG/HFTN-CG
REM
REM
REM
REM
REM
REM ./C.cell (12c818d87b63d06a65506943cc24bca4)
REM
REM compiler GCC version 9.2.1 20190827 (Red Hat 9.2.1-1)
REM options -cpp -mtune=generic -march=x86-64 -g -O0 -fpre-include=/usr/include/finclude/math-vector-fortran.h
REM seed -1223092650 -1170879838 1690088036 351920524 -1766563539 -579393496 811441357 -259465788 1853055189 568507488 340865643 1198862196 1808324096 1647410361 -991583763 1354835995 65494494 1487131831 742471750 -1503743026 -1194195487 854458833 648975785 2013347578 -1732839967 -151971819 -1394435642 2022321798 -1814095464 1028640017 -106860507 -403306614 -992571902
REM
CELL 1.54180   50.00000   50.00000   50.00000   90.00000   90.00000   90.00000
LATT -1
SFAC C  
C      1  0.5317900000000  0.5614520000000  0.4754860000000 1.0
C      1  0.5361500000000  0.4623800000000  0.4630540000000 1.0
C      1  0.5273090000000  0.4837390000000  0.5563630000000 1.0
C      1  0.5066570000000  0.5777550000000  0.5499360000000 1.0
C      1  0.5072200000000  0.5043610000000  0.4054900000000 1.0
C      1  0.5072530000000  0.4192540000000  0.5442720000000 1.0
C      1  0.5606330000000  0.4666780000000  0.4420540000000 1.0
C      1  0.5555730000000  0.4737560000000  0.5462330000000 1.0
C      1  0.5608690000000  0.5578450000000  0.4933490000000 1.0
C      1  0.4565900000000  0.4421390000000  0.5734310000000 1.0
C      1  0.4529290000000  0.5894910000000  0.5195340000000 1.0
C      1  0.4569220000000  0.4656890000000  0.4117550000000 1.0
C      1  0.5102370000000  0.4456460000000  0.5149580000000 1.0
C      1  0.5136470000000  0.5389430000000  0.5536910000000 1.0
C      1  0.5103340000000  0.5153300000000  0.4430840000000 1.0
C      1  0.4784480000000  0.5558300000000  0.5183090000000 1.0
C      1  0.4730990000000  0.4986540000000  0.4446960000000 1.0
C      1  0.4736620000000  0.4540760000000  0.5282180000000 1.0
C      1  0.4847950000000  0.4107750000000  0.4741370000000 1.0
C      1  0.4805990000000  0.5247880000000  0.5932800000000 1.0
C      1  0.4765710000000  0.5741030000000  0.4476790000000 1.0
C      1  0.5919110000000  0.5443310000000  0.4962620000000 1.0
C      1  0.5896960000000  0.4769400000000  0.4520700000000 1.0
C      1  0.5887640000000  0.4753740000000  0.5535530000000 1.0
C      1  0.5136380000000  0.4176490000000  0.4835880000000 1.0
C      1  0.5111150000000  0.5296890000000  0.5921150000000 1.0
C      1  0.5038210000000  0.5649700000000  0.4314290000000 1.0
C      1  0.5736690000000  0.5004520000000  0.4775360000000 1.0
C      1  0.5707730000000  0.4821420000000  0.5185160000000 1.0
C      1  0.5732410000000  0.5102520000000  0.5064970000000 1.0
C      1  0.5857340000000  0.5071390000000  0.5453770000000 1.0
C      1  0.5853840000000  0.5369550000000  0.4671200000000 1.0
C      1  0.5848540000000  0.4566520000000  0.4757480000000 1.0
C      1  0.4072510000000  0.5521000000000  0.5144170000000 1.0
C      1  0.4156570000000  0.4900290000000  0.4388810000000 1.0
C      1  0.4112800000000  0.4548360000000  0.5364770000000 1.0
C      1  0.5218710000000  0.5777930000000  0.5192440000000 1.0
C      1  0.5171540000000  0.4721620000000  0.4114360000000 1.0
C      1  0.5181110000000  0.4403400000000  0.5687400000000 1.0
C      1  0.4601380000000  0.5122590000000  0.4799010000000 1.0
C      1  0.4598680000000  0.4751740000000  0.4972230000000 1.0
C      1  0.4627760000000  0.5110980000000  0.5246950000000 1.0
C      1  0.5380170000000  0.4591680000000  0.5860390000000 1.0
C      1  0.5319930000000  0.5965810000000  0.4935570000000 1.0
C      1  0.5362850000000  0.4453530000000  0.4185560000000 1.0
C      1  0.5930810000000  0.4531080000000  0.5341520000000 1.0
C      1  0.5981100000000  0.5529870000000  0.5287940000000 1.0
C      1  0.5921410000000  0.5006010000000  0.4273150000000 1.0
C      1  0.4852530000000  0.5008530000000  0.5759290000000 1.0
C      1  0.4981770000000  0.5664380000000  0.4726380000000 1.0
C      1  0.4876660000000  0.4380010000000  0.4611790000000 1.0
C      1  0.4903710000000  0.5247800000000  0.5100960000000 1.0
C      1  0.4887680000000  0.4958270000000  0.4730690000000 1.0
C      1  0.4877380000000  0.4800790000000  0.5149410000000 1.0
C      1  0.4355610000000  0.5202230000000  0.5101510000000 1.0
C      1  0.4351530000000  0.4954240000000  0.4733450000000 1.0
C      1  0.4344150000000  0.4782170000000  0.5138800000000 1.0
C      1  0.4345810000000  0.5040590000000  0.5675040000000 1.0
C      1  0.4449470000000  0.5580070000000  0.4617270000000 1.0
C      1  0.4365550000000  0.4377910000000  0.4677640000000 1.0
C      1  0.4175690000000  0.4507000000000  0.5046370000000 1.0
C      1  0.4176160000000  0.5285750000000  0.5368080000000 1.0
C      1  0.4197020000000  0.5177310000000  0.4538380000000 1.0
C      1  0.4461880000000  0.5816970000000  0.4863330000000 1.0
C      1  0.4435460000000  0.4434550000000  0.4346510000000 1.0
C      1  0.4421760000000  0.4727280000000  0.5790400000000 1.0
C      1  0.5509780000000  0.5634160000000  0.5235030000000 1.0
C      1  0.5413000000000  0.4888660000000  0.4262180000000 1.0
C      1  0.5414120000000  0.4428350000000  0.5459980000000 1.0
C      1  0.5501860000000  0.4135350000000  0.4991340000000 1.0
C      1  0.5500260000000  0.5392150000000  0.5701070000000 1.0
C      1  0.5498840000000  0.5445350000000  0.4265470000000 1.0
C      1  0.4678570000000  0.5487370000000  0.4304300000000 1.0
C      1  0.4654530000000  0.4118520000000  0.4984760000000 1.0
C      1  0.4652480000000  0.5460120000000  0.5759060000000 1.0
C      1  0.4470170000000  0.4827360000000  0.4375310000000 1.0
C      1  0.4445100000000  0.4539570000000  0.5439450000000 1.0
C      1  0.4386390000000  0.5590270000000  0.5176910000000 1.0
C      1  0.4749670000000  0.4950180000000  0.4118020000000 1.0
C      1  0.4743430000000  0.4276360000000  0.5478710000000 1.0
C      1  0.4743410000000  0.5780260000000  0.5438990000000 1.0
C      1  0.4767260000000  0.4420080000000  0.4364170000000 1.0
C      1  0.4751440000000  0.4760280000000  0.5815530000000 1.0
C      1  0.4787270000000  0.5738310000000  0.4938280000000 1.0
C      1  0.5663160000000  0.4428260000000  0.5237860000000 1.0
C      1  0.5676550000000  0.5374070000000  0.5268560000000 1.0
C      1  0.5634760000000  0.5061000000000  0.4450660000000 1.0
C      1  0.6006910000000  0.5090570000000  0.4586980000000 1.0
C      1  0.5937520000000  0.4647840000000  0.5049390000000 1.0
C      1  0.6028020000000  0.5209390000000  0.5193390000000 1.0
C      1  0.4741070000000  0.4449990000000  0.4979000000000 1.0
C      1  0.4748940000000  0.5350680000000  0.5451590000000 1.0
C      1  0.4745500000000  0.5283740000000  0.4548110000000 1.0
C      1  0.4144230000000  0.4777570000000  0.5596710000000 1.0
C      1  0.4184150000000  0.5617220000000  0.4835830000000 1.0
C      1  0.4170200000000  0.4591770000000  0.4497370000000 1.0
C      1  0.4971760000000  0.5562940000000  0.5751600000000 1.0
C      1  0.4961960000000  0.5341920000000  0.4187670000000 1.0
C      1  0.4953800000000  0.4146720000000  0.5124670000000 1.0
C      1  0.4986440000000  0.5107320000000  0.5495350000000 1.0
C      1  0.5020590000000  0.5361690000000  0.4676740000000 1.0
C      1  0.5028470000000  0.4562240000000  0.4841850000000 1.0
C      1  0.4517890000000  0.5158120000000  0.4155600000000 1.0
C      1  0.4458790000000  0.4230610000000  0.5292810000000 1.0
C      1  0.4456180000000  0.5620560000000  0.5473470000000 1.0
C      1  0.5655140000000  0.4286940000000  0.4726790000000 1.0
C      1  0.5631630000000  0.5078160000000  0.5710690000000 1.0
C      1  0.5638470000000  0.5586290000000  0.4519190000000 1.0
C      1  0.5285790000000  0.5192880000000  0.4779190000000 1.0
C      1  0.5315680000000  0.4719200000000  0.4943740000000 1.0
C      1  0.5248840000000  0.5113530000000  0.5277050000000 1.0
C      1  0.5255630000000  0.5761590000000  0.4453400000000 1.0
C      1  0.5269990000000  0.4320000000000  0.4636750000000 1.0
C      1  0.5244310000000  0.5065590000000  0.5809740000000 1.0
C      1  0.4489920000000  0.4879830000000  0.5427340000000 1.0
C      1  0.4523690000000  0.5425570000000  0.4912140000000 1.0
C      1  0.4522550000000  0.4668150000000  0.4665810000000 1.0
C      1  0.4896010000000  0.4492110000000  0.5778250000000 1.0
C      1  0.4744130000000  0.6055200000000  0.5008470000000 1.0
C      1  0.4898430000000  0.4580310000000  0.4140690000000 1.0
C      1  0.5217990000000  0.4249640000000  0.4361340000000 1.0
C      1  0.5220600000000  0.4816130000000  0.5975380000000 1.0
C      1  0.5208260000000  0.5986980000000  0.4659880000000 1.0
C      1  0.5371310000000  0.5616820000000  0.5523490000000 1.0
C      1  0.5338180000000  0.5215020000000  0.4200410000000 1.0
C      1  0.5332250000000  0.4211350000000  0.5212400000000 1.0
C      1  0.5571160000000  0.4525310000000  0.4956400000000 1.0
C      1  0.5519720000000  0.5129970000000  0.5400430000000 1.0
C      1  0.5521650000000  0.5296680000000  0.4634860000000 1.0
C      1  0.5195570000000  0.4900380000000  0.4612190000000 1.0
C      1  0.5087190000000  0.4699960000000  0.5386510000000 1.0
C      1  0.5161440000000  0.5442190000000  0.5212350000000 1.0
C      1  0.4147900000000  0.5278520000000  0.4841010000000 1.0
C      1  0.4123870000000  0.4716570000000  0.4812150000000 1.0
C      1  0.4116380000000  0.4965900000000  0.5313710000000 1.0
C      1  0.5572190000000  0.5843870000000  0.4732660000000 1.0
C      1  0.5597310000000  0.4347550000000  0.4409750000000 1.0
C      1  0.5599630000000  0.4796530000000  0.5853320000000 1.0
C      1  0.4389900000000  0.5348180000000  0.4376960000000 1.0
C      1  0.4360370000000  0.4259900000000  0.4967700000000 1.0
C      1  0.4359980000000  0.5346110000000  0.5637270000000 1.0
C      1  0.4042310000000  0.4989920000000  0.4982730000000 1.0
C      1  0.5111110000000  0.4989150000000  0.4991930000000 1.0
END
