TITL C-2782240-8521-568 -0.000380107191487234 125000 -674.657687816831 0 0 114 (C1) n - 1
REM
REM in /home/nfs/bkarasulu/CARBON/AIRSS/Generating-Clusters/REBO/Higher-Symm/SD-CG/HFTN-CG
REM
REM
REM
REM
REM
REM ./C.cell (12c818d87b63d06a65506943cc24bca4)
REM
REM compiler GCC version 9.2.1 20190827 (Red Hat 9.2.1-1)
REM options -cpp -mtune=generic -march=x86-64 -g -O0 -fpre-include=/usr/include/finclude/math-vector-fortran.h
REM seed -580595250 620458152 -1959600258 97058768 -778395292 -189783529 150224000 -993412477 -24985066 -1144776477 -205898293 -784042977 1739116397 -249692773 -147916120 1470147167 2094586491 636385367 -2105855561 1492300496 -1963661236 1972731 973472452 850642197 1442048406 -1643497014 -795752336 569076981 -944802062 -1636427168 1138960273 -2043798450 -747408823
REM
CELL 1.54180   50.00000   50.00000   50.00000   90.00000   90.00000   90.00000
LATT -1
SFAC C  
C      1  0.4602480000000  0.4815610000000  0.5775800000000 1.0
C      1  0.5395150000000  0.5181150000000  0.5771210000000 1.0
C      1  0.4495070000000  0.4743320000000  0.4252490000000 1.0
C      1  0.5493050000000  0.5265320000000  0.4244030000000 1.0
C      1  0.4993530000000  0.4847150000000  0.4435740000000 1.0
C      1  0.4995500000000  0.5188340000000  0.4429670000000 1.0
C      1  0.4965470000000  0.4841140000000  0.5618970000000 1.0
C      1  0.5030000000000  0.5155280000000  0.5618640000000 1.0
C      1  0.5068980000000  0.4166030000000  0.4484510000000 1.0
C      1  0.4948520000000  0.5819370000000  0.4468990000000 1.0
C      1  0.5092160000000  0.4210430000000  0.5581650000000 1.0
C      1  0.4918920000000  0.5790100000000  0.5561220000000 1.0
C      1  0.5096780000000  0.4370510000000  0.5327000000000 1.0
C      1  0.4909110000000  0.5628580000000  0.5305320000000 1.0
C      1  0.5105050000000  0.4360610000000  0.4720300000000 1.0
C      1  0.4908250000000  0.5632730000000  0.4709470000000 1.0
C      1  0.5139320000000  0.4750870000000  0.5858890000000 1.0
C      1  0.4856410000000  0.5251170000000  0.5855240000000 1.0
C      1  0.5239650000000  0.4705190000000  0.4338890000000 1.0
C      1  0.4705530000000  0.5282730000000  0.4312600000000 1.0
C      1  0.4925110000000  0.5472880000000  0.4158230000000 1.0
C      1  0.5160650000000  0.4499630000000  0.4169400000000 1.0
C      1  0.4940670000000  0.5504790000000  0.5947420000000 1.0
C      1  0.5053300000000  0.4501590000000  0.5960710000000 1.0
C      1  0.4882060000000  0.4739340000000  0.4803000000000 1.0
C      1  0.5091900000000  0.5253930000000  0.4811110000000 1.0
C      1  0.4856270000000  0.4729020000000  0.5120010000000 1.0
C      1  0.5123440000000  0.5254980000000  0.5125330000000 1.0
C      1  0.4639060000000  0.5478090000000  0.5233900000000 1.0
C      1  0.5351100000000  0.4528980000000  0.5232160000000 1.0
C      1  0.4599620000000  0.5519110000000  0.4714620000000 1.0
C      1  0.5406410000000  0.4493000000000  0.4710100000000 1.0
C      1  0.4242100000000  0.4843390000000  0.4295430000000 1.0
C      1  0.5734570000000  0.5120190000000  0.4211310000000 1.0
C      1  0.4595340000000  0.5119350000000  0.5867940000000 1.0
C      1  0.5401350000000  0.4880030000000  0.5866110000000 1.0
C      1  0.5090120000000  0.5660040000000  0.5757600000000 1.0
C      1  0.4910310000000  0.4337620000000  0.5772870000000 1.0
C      1  0.5094210000000  0.5663130000000  0.4270600000000 1.0
C      1  0.4955590000000  0.4315400000000  0.4261400000000 1.0
C      1  0.5435980000000  0.4196060000000  0.4865080000000 1.0
C      1  0.4586640000000  0.5814290000000  0.4856930000000 1.0
C      1  0.5420490000000  0.4219760000000  0.5150600000000 1.0
C      1  0.4585720000000  0.5792350000000  0.5142170000000 1.0
C      1  0.4157850000000  0.4588570000000  0.4674140000000 1.0
C      1  0.5857870000000  0.5426790000000  0.4688520000000 1.0
C      1  0.4127370000000  0.4584600000000  0.5327310000000 1.0
C      1  0.5874100000000  0.5414710000000  0.5329500000000 1.0
C      1  0.5210230000000  0.5416560000000  0.4562150000000 1.0
C      1  0.4764810000000  0.4608820000000  0.4521580000000 1.0
C      1  0.5189000000000  0.5368090000000  0.5417850000000 1.0
C      1  0.4807320000000  0.4627650000000  0.5423240000000 1.0
C      1  0.5127830000000  0.5653870000000  0.5145400000000 1.0
C      1  0.4882920000000  0.4332810000000  0.5164630000000 1.0
C      1  0.5124750000000  0.5646950000000  0.4876970000000 1.0
C      1  0.4895620000000  0.4351160000000  0.4897860000000 1.0
C      1  0.4473450000000  0.5246990000000  0.5375920000000 1.0
C      1  0.5521230000000  0.4750450000000  0.5375190000000 1.0
C      1  0.4461350000000  0.5287530000000  0.4532750000000 1.0
C      1  0.5516100000000  0.4744470000000  0.4513960000000 1.0
C      1  0.4398340000000  0.5064480000000  0.4781800000000 1.0
C      1  0.5574360000000  0.4945120000000  0.4782130000000 1.0
C      1  0.4380760000000  0.5046560000000  0.5115340000000 1.0
C      1  0.5604180000000  0.4956680000000  0.5116260000000 1.0
C      1  0.6366810000000  0.5177550000000  0.4724890000000 1.0
C      1  0.3622490000000  0.4782250000000  0.4722550000000 1.0
C      1  0.6397780000000  0.5200460000000  0.5207790000000 1.0
C      1  0.3591760000000  0.4762810000000  0.5205750000000 1.0
C      1  0.4691680000000  0.4974500000000  0.4663950000000 1.0
C      1  0.5281440000000  0.5032570000000  0.4661440000000 1.0
C      1  0.4692330000000  0.4972590000000  0.5191310000000 1.0
C      1  0.5288310000000  0.5011180000000  0.5186950000000 1.0
C      1  0.3842450000000  0.4747110000000  0.5289030000000 1.0
C      1  0.6148750000000  0.5235520000000  0.5290130000000 1.0
C      1  0.3881700000000  0.4767610000000  0.4670610000000 1.0
C      1  0.6109640000000  0.5215620000000  0.4673620000000 1.0
C      1  0.5384270000000  0.5622900000000  0.5300810000000 1.0
C      1  0.4619300000000  0.4366390000000  0.5307660000000 1.0
C      1  0.5388010000000  0.5654620000000  0.4721090000000 1.0
C      1  0.4651340000000  0.4415860000000  0.4759810000000 1.0
C      1  0.4329350000000  0.4385810000000  0.5156540000000 1.0
C      1  0.5679480000000  0.5624530000000  0.5161810000000 1.0
C      1  0.4346480000000  0.4397700000000  0.4867360000000 1.0
C      1  0.5680830000000  0.5637780000000  0.4874560000000 1.0
C      1  0.4688320000000  0.4953730000000  0.4339120000000 1.0
C      1  0.5296300000000  0.5090810000000  0.4348110000000 1.0
C      1  0.4682290000000  0.4998320000000  0.5499570000000 1.0
C      1  0.5311890000000  0.4997230000000  0.5496920000000 1.0
C      1  0.5413990000000  0.5562340000000  0.4333760000000 1.0
C      1  0.4637740000000  0.4437310000000  0.4272570000000 1.0
C      1  0.5375530000000  0.5493570000000  0.5676810000000 1.0
C      1  0.4624540000000  0.4499170000000  0.5682750000000 1.0
C      1  0.4774310000000  0.5251570000000  0.4778340000000 1.0
C      1  0.5205780000000  0.4746570000000  0.4765920000000 1.0
C      1  0.4805540000000  0.5240010000000  0.5088500000000 1.0
C      1  0.5171500000000  0.4749210000000  0.5077460000000 1.0
C      1  0.5830310000000  0.5128570000000  0.4836670000000 1.0
C      1  0.4150400000000  0.4878720000000  0.4836460000000 1.0
C      1  0.5861850000000  0.5132490000000  0.5157810000000 1.0
C      1  0.4122680000000  0.4867720000000  0.5157220000000 1.0
C      1  0.4678340000000  0.5940770000000  0.5388880000000 1.0
C      1  0.5340020000000  0.4065690000000  0.5399160000000 1.0
C      1  0.4721840000000  0.5977430000000  0.4642140000000 1.0
C      1  0.5304150000000  0.4022490000000  0.4655700000000 1.0
C      1  0.5645370000000  0.5581630000000  0.5504370000000 1.0
C      1  0.4353970000000  0.4415940000000  0.5502120000000 1.0
C      1  0.5663500000000  0.5651060000000  0.4530330000000 1.0
C      1  0.4409780000000  0.4426900000000  0.4526190000000 1.0
C      1  0.5742470000000  0.4865530000000  0.4321770000000 1.0
C      1  0.4219950000000  0.5087740000000  0.4424810000000 1.0
C      1  0.5589910000000  0.4740180000000  0.5692320000000 1.0
C      1  0.4404530000000  0.5255550000000  0.5693300000000 1.0
C      1  0.3479930000000  0.4780090000000  0.4956370000000 1.0
C      1  0.6508670000000  0.5170780000000  0.4959130000000 1.0
END
