TITL C-2782225-7408-770 0.00241740993993827 125000 -1046.84017143253 0 0 179 (C1) n - 1
REM
REM in /home/nfs/bkarasulu/CARBON/AIRSS/Generating-Clusters/REBO/Higher-Symm/SD-CG/HFTN-CG
REM
REM
REM
REM
REM
REM ./C.cell (12c818d87b63d06a65506943cc24bca4)
REM
REM compiler GCC version 9.2.1 20190827 (Red Hat 9.2.1-1)
REM options -cpp -mtune=generic -march=x86-64 -g -O0 -fpre-include=/usr/include/finclude/math-vector-fortran.h
REM seed 670967205 1647925292 -410209589 -361893900 -1525866943 2119558293 -1912632031 909883711 1028323511 -1854572525 -1422234298 -113589310 -1813126352 -1495919000 1293441461 736334213 1777850466 -1728625999 2023421939 2052272208 -2042401983 -2048115279 1290479715 127820940 624520706 1579287745 889723488 -412701900 -1113646130 -1399006422 -72331109 528230262 -1025600482
REM
CELL 1.54180   50.00000   50.00000   50.00000   90.00000   90.00000   90.00000
LATT -1
SFAC C  
C      1  0.5791820000000  0.4201480000000  0.4943570000000 1.0
C      1  0.3979290000000  0.4773670000000  0.4949600000000 1.0
C      1  0.5307500000000  0.5982320000000  0.5005360000000 1.0
C      1  0.4987570000000  0.4478370000000  0.5403260000000 1.0
C      1  0.4490000000000  0.5237320000000  0.5403650000000 1.0
C      1  0.5439030000000  0.5286720000000  0.5426150000000 1.0
C      1  0.4031150000000  0.4755060000000  0.4627440000000 1.0
C      1  0.5239620000000  0.5923190000000  0.4682420000000 1.0
C      1  0.5729670000000  0.4295530000000  0.4657640000000 1.0
C      1  0.4848720000000  0.5583350000000  0.5513050000000 1.0
C      1  0.5576630000000  0.4796410000000  0.5446660000000 1.0
C      1  0.4545790000000  0.4534710000000  0.5527160000000 1.0
C      1  0.4198170000000  0.5360480000000  0.5647260000000 1.0
C      1  0.5745270000000  0.5542440000000  0.5620550000000 1.0
C      1  0.5036430000000  0.4159360000000  0.5713140000000 1.0
C      1  0.4468120000000  0.5726880000000  0.4425430000000 1.0
C      1  0.5909200000000  0.5053570000000  0.4313180000000 1.0
C      1  0.4694930000000  0.4109820000000  0.4349900000000 1.0
C      1  0.4242330000000  0.5309890000000  0.4919820000000 1.0
C      1  0.5868780000000  0.5707720000000  0.4932630000000 1.0
C      1  0.5071670000000  0.4253290000000  0.4916200000000 1.0
C      1  0.5590180000000  0.5370650000000  0.4615680000000 1.0
C      1  0.5058160000000  0.4438350000000  0.4563220000000 1.0
C      1  0.4443660000000  0.5279850000000  0.4561750000000 1.0
C      1  0.4143860000000  0.5575720000000  0.5388780000000 1.0
C      1  0.5947100000000  0.5500410000000  0.5362210000000 1.0
C      1  0.4925350000000  0.4054280000000  0.5409010000000 1.0
C      1  0.4235110000000  0.4507990000000  0.4225620000000 1.0
C      1  0.5020470000000  0.5718300000000  0.4320180000000 1.0
C      1  0.5583740000000  0.4635560000000  0.4333360000000 1.0
C      1  0.5489690000000  0.5428700000000  0.5796700000000 1.0
C      1  0.5196750000000  0.4393990000000  0.5869230000000 1.0
C      1  0.4374230000000  0.5147150000000  0.5841490000000 1.0
C      1  0.4634760000000  0.4103670000000  0.5318720000000 1.0
C      1  0.4388250000000  0.5802490000000  0.5333020000000 1.0
C      1  0.5922640000000  0.5175620000000  0.5284030000000 1.0
C      1  0.5461710000000  0.4526540000000  0.4840290000000 1.0
C      1  0.4322920000000  0.4835230000000  0.4749170000000 1.0
C      1  0.5299690000000  0.5624360000000  0.4827500000000 1.0
C      1  0.4792630000000  0.4971260000000  0.5564180000000 1.0
C      1  0.5078690000000  0.5161660000000  0.5561550000000 1.0
C      1  0.5101250000000  0.4828160000000  0.5560250000000 1.0
C      1  0.4617870000000  0.4635540000000  0.5906480000000 1.0
C      1  0.4804910000000  0.5439020000000  0.5883530000000 1.0
C      1  0.5461790000000  0.4820310000000  0.5828540000000 1.0
C      1  0.5117940000000  0.5164890000000  0.6058470000000 1.0
C      1  0.5039330000000  0.4852890000000  0.6077150000000 1.0
C      1  0.4805780000000  0.5066600000000  0.6055130000000 1.0
C      1  0.5636890000000  0.5294860000000  0.5152800000000 1.0
C      1  0.4752340000000  0.4362680000000  0.5224090000000 1.0
C      1  0.4521130000000  0.5544430000000  0.5275230000000 1.0
C      1  0.5836510000000  0.5214050000000  0.5610730000000 1.0
C      1  0.4699460000000  0.4207800000000  0.5697860000000 1.0
C      1  0.4373050000000  0.5650760000000  0.5702290000000 1.0
C      1  0.4181420000000  0.4341620000000  0.5112000000000 1.0
C      1  0.4874440000000  0.6083870000000  0.5205810000000 1.0
C      1  0.5929390000000  0.4649760000000  0.5214370000000 1.0
C      1  0.5533790000000  0.5852130000000  0.5078840000000 1.0
C      1  0.5535300000000  0.4131960000000  0.5086760000000 1.0
C      1  0.3964410000000  0.5053480000000  0.5048790000000 1.0
C      1  0.5735740000000  0.5067690000000  0.4672180000000 1.0
C      1  0.4599890000000  0.4395020000000  0.4609790000000 1.0
C      1  0.4766300000000  0.5609030000000  0.4606330000000 1.0
C      1  0.6069720000000  0.5277550000000  0.4489210000000 1.0
C      1  0.4723160000000  0.3902050000000  0.4571380000000 1.0
C      1  0.4377040000000  0.5707990000000  0.4736890000000 1.0
C      1  0.5146060000000  0.6036510000000  0.5227640000000 1.0
C      1  0.5819890000000  0.4388270000000  0.5198490000000 1.0
C      1  0.4065790000000  0.4595510000000  0.5151580000000 1.0
C      1  0.5303780000000  0.5568100000000  0.5473380000000 1.0
C      1  0.5291200000000  0.4396360000000  0.5399580000000 1.0
C      1  0.4288470000000  0.5027420000000  0.5378990000000 1.0
C      1  0.4565580000000  0.4559580000000  0.5123500000000 1.0
C      1  0.4781440000000  0.5550630000000  0.5104560000000 1.0
C      1  0.5543510000000  0.4997560000000  0.5015650000000 1.0
C      1  0.5888960000000  0.4882510000000  0.5551680000000 1.0
C      1  0.4415430000000  0.4248370000000  0.5677290000000 1.0
C      1  0.4638730000000  0.5801790000000  0.5680150000000 1.0
C      1  0.4728440000000  0.4584020000000  0.4393890000000 1.0
C      1  0.4816320000000  0.5361170000000  0.4441880000000 1.0
C      1  0.5520780000000  0.5005920000000  0.4467170000000 1.0
C      1  0.4299760000000  0.5007720000000  0.4998120000000 1.0
C      1  0.5583750000000  0.5542820000000  0.4982110000000 1.0
C      1  0.5352330000000  0.4334070000000  0.5009460000000 1.0
C      1  0.5022850000000  0.5585360000000  0.4067070000000 1.0
C      1  0.5485110000000  0.4662180000000  0.4074650000000 1.0
C      1  0.4409400000000  0.4676410000000  0.4080930000000 1.0
C      1  0.5222430000000  0.4761750000000  0.5045800000000 1.0
C      1  0.4591250000000  0.4952400000000  0.5080030000000 1.0
C      1  0.5106760000000  0.5338610000000  0.5021270000000 1.0
C      1  0.4594360000000  0.5411400000000  0.5640940000000 1.0
C      1  0.5546500000000  0.5067060000000  0.5635700000000 1.0
C      1  0.4844720000000  0.4508310000000  0.5686220000000 1.0
C      1  0.4711680000000  0.4857060000000  0.4466270000000 1.0
C      1  0.5096190000000  0.5259570000000  0.4487050000000 1.0
C      1  0.5313960000000  0.4854490000000  0.4559640000000 1.0
C      1  0.4342610000000  0.4670520000000  0.5879930000000 1.0
C      1  0.4985960000000  0.5640840000000  0.5888630000000 1.0
C      1  0.5630570000000  0.4581170000000  0.5848750000000 1.0
C      1  0.5655250000000  0.4749350000000  0.4897440000000 1.0
C      1  0.4437420000000  0.4554440000000  0.4833740000000 1.0
C      1  0.4962520000000  0.5672670000000  0.4858220000000 1.0
C      1  0.5265540000000  0.5647130000000  0.5797260000000 1.0
C      1  0.5469390000000  0.4355270000000  0.5925400000000 1.0
C      1  0.4200160000000  0.4915540000000  0.5902440000000 1.0
C      1  0.6030100000000  0.5046920000000  0.4693480000000 1.0
C      1  0.4532490000000  0.4098030000000  0.4714450000000 1.0
C      1  0.4565710000000  0.5746790000000  0.4933980000000 1.0
C      1  0.4553990000000  0.6013060000000  0.5232080000000 1.0
C      1  0.6019710000000  0.4914270000000  0.5168100000000 1.0
C      1  0.4365500000000  0.4083660000000  0.5229980000000 1.0
C      1  0.5540160000000  0.5046040000000  0.4170170000000 1.0
C      1  0.4682940000000  0.4568220000000  0.4104730000000 1.0
C      1  0.4654300000000  0.5342720000000  0.4217780000000 1.0
C      1  0.5251730000000  0.4256440000000  0.4264430000000 1.0
C      1  0.4269620000000  0.5118470000000  0.4242140000000 1.0
C      1  0.5469160000000  0.5554990000000  0.4282350000000 1.0
C      1  0.5845370000000  0.4782410000000  0.4404620000000 1.0
C      1  0.4393640000000  0.4263170000000  0.4378530000000 1.0
C      1  0.4758560000000  0.5887590000000  0.4409480000000 1.0
C      1  0.6153620000000  0.4948990000000  0.4922030000000 1.0
C      1  0.4332130000000  0.4110020000000  0.4913760000000 1.0
C      1  0.4720250000000  0.6022220000000  0.4927120000000 1.0
C      1  0.5153860000000  0.5556540000000  0.4527780000000 1.0
C      1  0.5342480000000  0.4553920000000  0.4556530000000 1.0
C      1  0.4488560000000  0.4988450000000  0.4550250000000 1.0
C      1  0.4219500000000  0.4497070000000  0.4565140000000 1.0
C      1  0.4915370000000  0.5970120000000  0.4683730000000 1.0
C      1  0.5808330000000  0.4603160000000  0.4660110000000 1.0
C      1  0.5058580000000  0.5409030000000  0.5352500000000 1.0
C      1  0.5312280000000  0.4707860000000  0.5361120000000 1.0
C      1  0.4597620000000  0.4803930000000  0.5364180000000 1.0
C      1  0.5487960000000  0.5767030000000  0.4504970000000 1.0
C      1  0.5443560000000  0.4172130000000  0.4520480000000 1.0
C      1  0.4100140000000  0.5040310000000  0.4470150000000 1.0
C      1  0.4972370000000  0.5868450000000  0.5640500000000 1.0
C      1  0.5782050000000  0.4558890000000  0.5574690000000 1.0
C      1  0.4228230000000  0.4527240000000  0.5622020000000 1.0
C      1  0.5186480000000  0.4069640000000  0.4681790000000 1.0
C      1  0.4055660000000  0.5258150000000  0.4651040000000 1.0
C      1  0.5735950000000  0.5741030000000  0.4649390000000 1.0
C      1  0.4948660000000  0.4711980000000  0.5202500000000 1.0
C      1  0.4739270000000  0.5225120000000  0.5203250000000 1.0
C      1  0.5285120000000  0.5117510000000  0.5204580000000 1.0
C      1  0.5690950000000  0.5317580000000  0.4290080000000 1.0
C      1  0.4948750000000  0.4254230000000  0.4346530000000 1.0
C      1  0.4358540000000  0.5445340000000  0.4275050000000 1.0
C      1  0.5091530000000  0.4096030000000  0.5196820000000 1.0
C      1  0.4088550000000  0.5455000000000  0.5146020000000 1.0
C      1  0.6026170000000  0.5671510000000  0.5163790000000 1.0
C      1  0.4452330000000  0.4967280000000  0.4080880000000 1.0
C      1  0.5278910000000  0.5444130000000  0.4088080000000 1.0
C      1  0.5288070000000  0.4432060000000  0.4030640000000 1.0
C      1  0.5095080000000  0.5174610000000  0.3982250000000 1.0
C      1  0.5121220000000  0.4677930000000  0.3925930000000 1.0
C      1  0.4770910000000  0.5041790000000  0.3981540000000 1.0
C      1  0.4645410000000  0.5062770000000  0.5825120000000 1.0
C      1  0.5241020000000  0.5249620000000  0.5816330000000 1.0
C      1  0.5160660000000  0.4704340000000  0.5846840000000 1.0
C      1  0.5203260000000  0.4954530000000  0.4811350000000 1.0
C      1  0.4764250000000  0.4782510000000  0.4857780000000 1.0
C      1  0.4855040000000  0.5276480000000  0.4828500000000 1.0
C      1  0.5568980000000  0.5832470000000  0.5594200000000 1.0
C      1  0.5359440000000  0.4148160000000  0.5601840000000 1.0
C      1  0.4066900000000  0.5039870000000  0.5614730000000 1.0
C      1  0.5308060000000  0.4942650000000  0.3983700000000 1.0
C      1  0.4855430000000  0.4735110000000  0.3952600000000 1.0
C      1  0.4815710000000  0.5371110000000  0.3952300000000 1.0
C      1  0.4570890000000  0.5349010000000  0.4833880000000 1.0
C      1  0.5377040000000  0.5235330000000  0.4836460000000 1.0
C      1  0.4903800000000  0.4532010000000  0.4823520000000 1.0
C      1  0.5251320000000  0.5904110000000  0.5491590000000 1.0
C      1  0.5614920000000  0.4305860000000  0.5437990000000 1.0
C      1  0.4105860000000  0.4745180000000  0.5432700000000 1.0
C      1  0.5002140000000  0.3856990000000  0.4625930000000 1.0
C      1  0.4171800000000  0.5531720000000  0.4596770000000 1.0
C      1  0.5908400000000  0.5498480000000  0.4567560000000 1.0
C      1  0.4917500000000  0.5008250000000  0.4772010000000 1.0
C      1  0.4969230000000  0.5016100000000  0.5209120000000 1.0
END
