TITL C-2782234-8014-252 0.00321264491938594 125000 -1040.57505360815 0 0 177 (C1) n - 1
REM
REM in /home/nfs/bkarasulu/CARBON/AIRSS/Generating-Clusters/REBO/Higher-Symm/SD-CG/HFTN-CG
REM
REM
REM
REM
REM
REM ./C.cell (12c818d87b63d06a65506943cc24bca4)
REM
REM compiler GCC version 9.2.1 20190827 (Red Hat 9.2.1-1)
REM options -cpp -mtune=generic -march=x86-64 -g -O0 -fpre-include=/usr/include/finclude/math-vector-fortran.h
REM seed -1169993640 853464941 469651973 1085135875 -434924813 1496539287 2125345230 596585399 218581215 226002813 -225641475 1773192092 1055681889 -1879250802 595143541 -786498033 -1037693041 1119790062 -1898738122 1362523354 -916903523 -1776483750 2008795173 1792402798 415348267 -1300087687 1754861252 -1444822317 -420544535 -1629790530 1923850973 1385401476 1451795713
REM
CELL 1.54180   50.00000   50.00000   50.00000   90.00000   90.00000   90.00000
LATT -1
SFAC C  
C      1  0.4531610000000  0.4325920000000  0.5448460000000 1.0
C      1  0.4284500000000  0.5440140000000  0.4614860000000 1.0
C      1  0.5529130000000  0.4554080000000  0.4304230000000 1.0
C      1  0.5415800000000  0.5673600000000  0.5409120000000 1.0
C      1  0.4552950000000  0.5646590000000  0.4607940000000 1.0
C      1  0.5531450000000  0.4286820000000  0.4519730000000 1.0
C      1  0.5763970000000  0.4538910000000  0.4548410000000 1.0
C      1  0.4301380000000  0.4565240000000  0.5423180000000 1.0
C      1  0.5676030000000  0.5450610000000  0.5401420000000 1.0
C      1  0.4480140000000  0.5474410000000  0.4326340000000 1.0
C      1  0.5440640000000  0.5435750000000  0.5653020000000 1.0
C      1  0.4512350000000  0.4574420000000  0.5692580000000 1.0
C      1  0.4629060000000  0.4262740000000  0.4530970000000 1.0
C      1  0.4266280000000  0.5495540000000  0.5476930000000 1.0
C      1  0.5456130000000  0.4504160000000  0.5711340000000 1.0
C      1  0.5461380000000  0.5733440000000  0.4506810000000 1.0
C      1  0.4522270000000  0.5719960000000  0.5449710000000 1.0
C      1  0.5452600000000  0.4262140000000  0.5469250000000 1.0
C      1  0.5692560000000  0.4505730000000  0.5463620000000 1.0
C      1  0.4371020000000  0.4482230000000  0.4569620000000 1.0
C      1  0.5697370000000  0.5486950000000  0.4504040000000 1.0
C      1  0.4510250000000  0.5511030000000  0.5723750000000 1.0
C      1  0.5417030000000  0.5465560000000  0.4304320000000 1.0
C      1  0.4599950000000  0.4529960000000  0.4319780000000 1.0
C      1  0.5814010000000  0.5512940000000  0.5095580000000 1.0
C      1  0.5502450000000  0.5126710000000  0.5781130000000 1.0
C      1  0.5109900000000  0.5797680000000  0.5473150000000 1.0
C      1  0.4155420000000  0.4498850000000  0.5143040000000 1.0
C      1  0.5914440000000  0.4489350000000  0.4837310000000 1.0
C      1  0.4092390000000  0.5446190000000  0.4862800000000 1.0
C      1  0.4460250000000  0.4888480000000  0.5820100000000 1.0
C      1  0.5571280000000  0.4861300000000  0.4205680000000 1.0
C      1  0.4441530000000  0.5163970000000  0.4186860000000 1.0
C      1  0.4840160000000  0.4201110000000  0.5520400000000 1.0
C      1  0.5224040000000  0.4153890000000  0.4455980000000 1.0
C      1  0.4900060000000  0.5940450000000  0.4433620000000 1.0
C      1  0.5898530000000  0.5552840000000  0.4767220000000 1.0
C      1  0.5517650000000  0.5184430000000  0.4142410000000 1.0
C      1  0.5219250000000  0.5935310000000  0.4421220000000 1.0
C      1  0.4199940000000  0.4378140000000  0.4828660000000 1.0
C      1  0.5818970000000  0.4459990000000  0.5162960000000 1.0
C      1  0.4098360000000  0.5558800000000  0.5184580000000 1.0
C      1  0.4504060000000  0.4828590000000  0.4186250000000 1.0
C      1  0.5516450000000  0.4797390000000  0.5865510000000 1.0
C      1  0.4449930000000  0.5223110000000  0.5900510000000 1.0
C      1  0.4897680000000  0.4078300000000  0.4468370000000 1.0
C      1  0.5156050000000  0.4125960000000  0.5510460000000 1.0
C      1  0.4803470000000  0.5894880000000  0.5528630000000 1.0
C      1  0.5272160000000  0.4127530000000  0.4849940000000 1.0
C      1  0.4117960000000  0.4889150000000  0.5211100000000 1.0
C      1  0.4818340000000  0.5257630000000  0.4278620000000 1.0
C      1  0.4816820000000  0.5797310000000  0.4867650000000 1.0
C      1  0.5157590000000  0.5810690000000  0.5076360000000 1.0
C      1  0.4816380000000  0.4178930000000  0.5123050000000 1.0
C      1  0.5834680000000  0.5119240000000  0.5148700000000 1.0
C      1  0.4196790000000  0.5060160000000  0.4859070000000 1.0
C      1  0.5910190000000  0.4888380000000  0.4827180000000 1.0
C      1  0.5174330000000  0.4831440000000  0.4202670000000 1.0
C      1  0.4853890000000  0.4838220000000  0.5847800000000 1.0
C      1  0.5107110000000  0.5165810000000  0.5818240000000 1.0
C      1  0.5206060000000  0.4101770000000  0.5116690000000 1.0
C      1  0.4197170000000  0.4775930000000  0.4839650000000 1.0
C      1  0.4841890000000  0.5236560000000  0.5835540000000 1.0
C      1  0.4765640000000  0.5801820000000  0.5143240000000 1.0
C      1  0.5210920000000  0.5821370000000  0.4804530000000 1.0
C      1  0.4874580000000  0.4162400000000  0.4856530000000 1.0
C      1  0.5888190000000  0.5155550000000  0.4755370000000 1.0
C      1  0.4139330000000  0.5167450000000  0.5239820000000 1.0
C      1  0.5833250000000  0.4853540000000  0.5216380000000 1.0
C      1  0.5120870000000  0.4767990000000  0.5848360000000 1.0
C      1  0.4901430000000  0.4850890000000  0.4200620000000 1.0
C      1  0.5090330000000  0.5218840000000  0.4254170000000 1.0
C      1  0.4541880000000  0.5513840000000  0.4910490000000 1.0
C      1  0.5639880000000  0.4852250000000  0.4540810000000 1.0
C      1  0.4831510000000  0.4525590000000  0.5606700000000 1.0
C      1  0.5609570000000  0.4336120000000  0.4848750000000 1.0
C      1  0.4478000000000  0.4385150000000  0.5115210000000 1.0
C      1  0.5480690000000  0.5584730000000  0.5087300000000 1.0
C      1  0.4371430000000  0.5143720000000  0.4513750000000 1.0
C      1  0.5576170000000  0.5128890000000  0.5448180000000 1.0
C      1  0.4397610000000  0.4886090000000  0.5484470000000 1.0
C      1  0.5114120000000  0.5467140000000  0.5561980000000 1.0
C      1  0.4773680000000  0.5648480000000  0.4347660000000 1.0
C      1  0.5213100000000  0.4478460000000  0.4382960000000 1.0
C      1  0.4397770000000  0.5655070000000  0.5140530000000 1.0
C      1  0.5607470000000  0.4826150000000  0.5540090000000 1.0
C      1  0.4905500000000  0.4535720000000  0.4444730000000 1.0
C      1  0.5485130000000  0.4377730000000  0.5152630000000 1.0
C      1  0.4477540000000  0.4198870000000  0.4828770000000 1.0
C      1  0.5594560000000  0.5697350000000  0.4817040000000 1.0
C      1  0.4347730000000  0.5185070000000  0.5578290000000 1.0
C      1  0.5626050000000  0.5164530000000  0.4459270000000 1.0
C      1  0.4411190000000  0.4817170000000  0.4513590000000 1.0
C      1  0.5113590000000  0.5616620000000  0.4348480000000 1.0
C      1  0.4828070000000  0.5594150000000  0.5664690000000 1.0
C      1  0.5136950000000  0.4455800000000  0.5603400000000 1.0
C      1  0.4863970000000  0.5479080000000  0.4792890000000 1.0
C      1  0.5609090000000  0.4793080000000  0.4880850000000 1.0
C      1  0.4789460000000  0.4854870000000  0.5526250000000 1.0
C      1  0.5292960000000  0.4449540000000  0.4794240000000 1.0
C      1  0.4802470000000  0.4481170000000  0.5199870000000 1.0
C      1  0.5160560000000  0.5484600000000  0.5166740000000 1.0
C      1  0.4491020000000  0.5189440000000  0.4892660000000 1.0
C      1  0.5521640000000  0.5191510000000  0.5115040000000 1.0
C      1  0.4445450000000  0.4817390000000  0.5150110000000 1.0
C      1  0.5180940000000  0.5132040000000  0.5505190000000 1.0
C      1  0.4693360000000  0.5132070000000  0.4534590000000 1.0
C      1  0.5248740000000  0.4793950000000  0.4514780000000 1.0
C      1  0.4840780000000  0.5542530000000  0.5262670000000 1.0
C      1  0.5524010000000  0.4765190000000  0.5210150000000 1.0
C      1  0.4806330000000  0.4850250000000  0.4499220000000 1.0
C      1  0.5138450000000  0.4403570000000  0.5202830000000 1.0
C      1  0.4984040000000  0.4414260000000  0.4739270000000 1.0
C      1  0.5139280000000  0.5557700000000  0.4665530000000 1.0
C      1  0.4414780000000  0.5259970000000  0.5191470000000 1.0
C      1  0.5586090000000  0.5249730000000  0.4805370000000 1.0
C      1  0.4528720000000  0.4740230000000  0.4828320000000 1.0
C      1  0.5230240000000  0.5114070000000  0.4479230000000 1.0
C      1  0.4689650000000  0.5146960000000  0.5590950000000 1.0
C      1  0.5209030000000  0.4794290000000  0.5543380000000 1.0
C      1  0.6361760000000  0.5160720000000  0.4695860000000 1.0
C      1  0.5110860000000  0.4834160000000  0.6321400000000 1.0
C      1  0.4681750000000  0.6280060000000  0.5090060000000 1.0
C      1  0.3717860000000  0.4744280000000  0.4813950000000 1.0
C      1  0.6301740000000  0.4848500000000  0.5142310000000 1.0
C      1  0.3654690000000  0.5135050000000  0.5219740000000 1.0
C      1  0.4893900000000  0.5294210000000  0.6309950000000 1.0
C      1  0.5099690000000  0.5342680000000  0.3786260000000 1.0
C      1  0.4902020000000  0.4893630000000  0.3725320000000 1.0
C      1  0.5130050000000  0.3643540000000  0.5115010000000 1.0
C      1  0.4499630000000  0.3875100000000  0.4882650000000 1.0
C      1  0.5410310000000  0.6260130000000  0.4881340000000 1.0
C      1  0.6302680000000  0.5126970000000  0.5106380000000 1.0
C      1  0.5180930000000  0.4900350000000  0.3729500000000 1.0
C      1  0.4733150000000  0.6259660000000  0.4818220000000 1.0
C      1  0.3651220000000  0.4855690000000  0.5200820000000 1.0
C      1  0.6372950000000  0.4883040000000  0.4730780000000 1.0
C      1  0.3708470000000  0.5020070000000  0.4839810000000 1.0
C      1  0.4825500000000  0.5372500000000  0.3794220000000 1.0
C      1  0.5167310000000  0.5245320000000  0.6285270000000 1.0
C      1  0.4834600000000  0.4880680000000  0.6316320000000 1.0
C      1  0.5150940000000  0.3667110000000  0.4835030000000 1.0
C      1  0.4526610000000  0.3807340000000  0.5159820000000 1.0
C      1  0.5365620000000  0.6239730000000  0.5154030000000 1.0
C      1  0.5275500000000  0.4785800000000  0.6097110000000 1.0
C      1  0.4705120000000  0.6066570000000  0.5269010000000 1.0
C      1  0.6128520000000  0.5319080000000  0.4711300000000 1.0
C      1  0.4712230000000  0.5284800000000  0.6095780000000 1.0
C      1  0.5241180000000  0.5259170000000  0.4011690000000 1.0
C      1  0.4743800000000  0.4867240000000  0.3956060000000 1.0
C      1  0.5154580000000  0.3871240000000  0.5284120000000 1.0
C      1  0.4751160000000  0.3930800000000  0.4714460000000 1.0
C      1  0.5333620000000  0.6066650000000  0.4695380000000 1.0
C      1  0.3960380000000  0.4605740000000  0.4810800000000 1.0
C      1  0.6071580000000  0.4689090000000  0.5184890000000 1.0
C      1  0.3875800000000  0.5309510000000  0.5230500000000 1.0
C      1  0.5335200000000  0.4873840000000  0.3962790000000 1.0
C      1  0.4806690000000  0.6015240000000  0.4692900000000 1.0
C      1  0.6067640000000  0.5284650000000  0.5104940000000 1.0
C      1  0.4676300000000  0.5313340000000  0.4021150000000 1.0
C      1  0.5292600000000  0.5181620000000  0.6042160000000 1.0
C      1  0.4684310000000  0.4886340000000  0.6077190000000 1.0
C      1  0.5209650000000  0.3897480000000  0.4680160000000 1.0
C      1  0.4686590000000  0.3986930000000  0.5306160000000 1.0
C      1  0.5241410000000  0.6016790000000  0.5267030000000 1.0
C      1  0.3892670000000  0.4709110000000  0.5190130000000 1.0
C      1  0.6148210000000  0.4724230000000  0.4794580000000 1.0
C      1  0.3931240000000  0.5191310000000  0.4852500000000 1.0
C      1  0.4776050000000  0.4790590000000  0.5221360000000 1.0
C      1  0.4826440000000  0.5145130000000  0.4848170000000 1.0
C      1  0.5279960000000  0.4773550000000  0.4826430000000 1.0
C      1  0.5198860000000  0.5161140000000  0.5181460000000 1.0
C      1  0.4844680000000  0.4706780000000  0.4799400000000 1.0
C      1  0.4643380000000  0.5343680000000  0.5344740000000 1.0
C      1  0.5215690000000  0.4712320000000  0.5228690000000 1.0
C      1  0.5317950000000  0.5309690000000  0.4664870000000 1.0
C      1  0.5024350000000  0.4915780000000  0.5014170000000 1.0
END
