TITL C-2782226-7400-423 0.00192291334215277 125000 -268.152047631042 0 0 46 (D2) n - 1
REM
REM in /home/nfs/bkarasulu/CARBON/AIRSS/Generating-Clusters/REBO/Higher-Symm/SD-CG/HFTN-CG
REM
REM
REM
REM
REM
REM ./C.cell (12c818d87b63d06a65506943cc24bca4)
REM
REM compiler GCC version 9.2.1 20190827 (Red Hat 9.2.1-1)
REM options -cpp -mtune=generic -march=x86-64 -g -O0 -fpre-include=/usr/include/finclude/math-vector-fortran.h
REM seed -683447320 -1631011720 -164030245 -11755181 -1365113680 -1370719542 -422969122 1882089463 713636868 -366035824 -171352204 -80742940 -1892346870 431940845 1140141058 -993022960 -1488889249 1192274569 -1916150561 1796972055 -815836622 -1110195710 -1849719037 200480983 327403413 1297341448 417300151 -1733331054 1567969488 1272634319 1578376544 1543425122 1048231302
REM
CELL 1.54180   50.00000   50.00000   50.00000   90.00000   90.00000   90.00000
LATT -1
SFAC C  
C      1  0.5444320000000  0.5189830000000  0.4497640000000 1.0
C      1  0.4555260000000  0.4810160000000  0.4498010000000 1.0
C      1  0.4555770000000  0.5190040000000  0.5530590000000 1.0
C      1  0.5444650000000  0.4809980000000  0.5530230000000 1.0
C      1  0.4719250000000  0.4962130000000  0.5564860000000 1.0
C      1  0.5281200000000  0.5037880000000  0.5564630000000 1.0
C      1  0.5280730000000  0.4961990000000  0.4463370000000 1.0
C      1  0.4718820000000  0.5038000000000  0.4463600000000 1.0
C      1  0.4926040000000  0.5473440000000  0.5361990000000 1.0
C      1  0.5074240000000  0.4526570000000  0.5361940000000 1.0
C      1  0.5074170000000  0.5473400000000  0.4666230000000 1.0
C      1  0.4925550000000  0.4526590000000  0.4666300000000 1.0
C      1  0.4912390000000  0.4853770000000  0.4761050000000 1.0
C      1  0.5087410000000  0.5146230000000  0.4760980000000 1.0
C      1  0.5087550000000  0.4853730000000  0.5267190000000 1.0
C      1  0.4912660000000  0.5146270000000  0.5267250000000 1.0
C      1  0.4487750000000  0.4537120000000  0.4911030000000 1.0
C      1  0.5512170000000  0.5462880000000  0.4910600000000 1.0
C      1  0.5512050000000  0.4536890000000  0.5117220000000 1.0
C      1  0.4488040000000  0.5463110000000  0.5117630000000 1.0
C      1  0.4619230000000  0.5406740000000  0.5364590000000 1.0
C      1  0.5381060000000  0.4593270000000  0.5364280000000 1.0
C      1  0.5380960000000  0.5406560000000  0.4663640000000 1.0
C      1  0.4618760000000  0.4593430000000  0.4663960000000 1.0
C      1  0.5434410000000  0.4678790000000  0.4862960000000 1.0
C      1  0.4565470000000  0.5321200000000  0.4863300000000 1.0
C      1  0.4565450000000  0.4678990000000  0.5165280000000 1.0
C      1  0.5434670000000  0.5321010000000  0.5164920000000 1.0
C      1  0.4640280000000  0.5293730000000  0.4580940000000 1.0
C      1  0.5359360000000  0.4706260000000  0.4580650000000 1.0
C      1  0.5359850000000  0.5293580000000  0.5447290000000 1.0
C      1  0.4640510000000  0.4706430000000  0.5447590000000 1.0
C      1  0.4822930000000  0.4503610000000  0.5535360000000 1.0
C      1  0.5177490000000  0.5496400000000  0.5535200000000 1.0
C      1  0.5176850000000  0.4503520000000  0.4492890000000 1.0
C      1  0.4822730000000  0.5496470000000  0.4493020000000 1.0
C      1  0.5031590000000  0.5672420000000  0.4896010000000 1.0
C      1  0.4968320000000  0.4327580000000  0.4896060000000 1.0
C      1  0.4968710000000  0.5672440000000  0.5132200000000 1.0
C      1  0.5031380000000  0.4327560000000  0.5132190000000 1.0
C      1  0.5292390000000  0.5133550000000  0.4965400000000 1.0
C      1  0.4707570000000  0.4866450000000  0.4965640000000 1.0
C      1  0.4707670000000  0.5133680000000  0.5062830000000 1.0
C      1  0.5292370000000  0.4866320000000  0.5062600000000 1.0
C      1  0.5000250000000  0.5000010000000  0.5628620000000 1.0
C      1  0.4999750000000  0.4999990000000  0.4399610000000 1.0
END
