TITL C-2782225-7408-1385 -0.121479774064634 125000 -203.659901141016 0 0 36 (C1) n - 1
REM
REM in /home/nfs/bkarasulu/CARBON/AIRSS/Generating-Clusters/REBO/Higher-Symm/SD-CG/HFTN-CG
REM
REM
REM
REM
REM
REM ./C.cell (12c818d87b63d06a65506943cc24bca4)
REM
REM compiler GCC version 9.2.1 20190827 (Red Hat 9.2.1-1)
REM options -cpp -mtune=generic -march=x86-64 -g -O0 -fpre-include=/usr/include/finclude/math-vector-fortran.h
REM seed -518929120 527745142 1281061351 1131292074 918645804 -1713450347 556050582 1799917235 -264578123 -2096553363 -1405683014 -1059412316 1632669620 365823709 -809706305 -1487703567 -1980402406 88505462 -1211988866 -1664173580 -1983865206 -1561271043 -1725632366 977387455 64855870 520827371 -1237455082 -1143304224 -1233843507 701043172 765709968 -1740836143 -1456026724
REM
CELL 1.54180   50.00000   50.00000   50.00000   90.00000   90.00000   90.00000
LATT -1
SFAC C  
C      1  0.5525290000000  0.4661120000000  0.4954700000000 1.0
C      1  0.5524940000000  0.5318670000000  0.5023310000000 1.0
C      1  0.5357100000000  0.5452890000000  0.5207030000000 1.0
C      1  0.5355560000000  0.4490460000000  0.4802560000000 1.0
C      1  0.5446020000000  0.5068780000000  0.4612970000000 1.0
C      1  0.5378610000000  0.4970090000000  0.5148530000000 1.0
C      1  0.4553530000000  0.4716780000000  0.4937430000000 1.0
C      1  0.4509970000000  0.5262650000000  0.5082420000000 1.0
C      1  0.4716470000000  0.4738640000000  0.5435250000000 1.0
C      1  0.4708920000000  0.5258980000000  0.4585380000000 1.0
C      1  0.5097530000000  0.4764590000000  0.4436350000000 1.0
C      1  0.4982290000000  0.5110360000000  0.5339720000000 1.0
C      1  0.4657340000000  0.4981830000000  0.4514800000000 1.0
C      1  0.4615670000000  0.5004370000000  0.5483360000000 1.0
C      1  0.5087930000000  0.4403670000000  0.4743520000000 1.0
C      1  0.5122570000000  0.5572090000000  0.5327540000000 1.0
C      1  0.4997310000000  0.5343840000000  0.4626160000000 1.0
C      1  0.4973340000000  0.4655400000000  0.5521300000000 1.0
C      1  0.5465920000000  0.5343110000000  0.4729360000000 1.0
C      1  0.5421480000000  0.4692970000000  0.5265610000000 1.0
C      1  0.5105650000000  0.5840020000000  0.5372190000000 1.0
C      1  0.4982210000000  0.4175660000000  0.4847230000000 1.0
C      1  0.4687880000000  0.4725270000000  0.4648250000000 1.0
C      1  0.4618200000000  0.5268810000000  0.5363740000000 1.0
C      1  0.5234190000000  0.5492470000000  0.4649470000000 1.0
C      1  0.5233280000000  0.4609920000000  0.5455580000000 1.0
C      1  0.4532010000000  0.5380140000000  0.4776380000000 1.0
C      1  0.4607170000000  0.4593530000000  0.5212850000000 1.0
C      1  0.4930840000000  0.4588850000000  0.4586020000000 1.0
C      1  0.4901050000000  0.5394500000000  0.5382750000000 1.0
C      1  0.5120680000000  0.5051800000000  0.5106040000000 1.0
C      1  0.5177690000000  0.4990660000000  0.4580660000000 1.0
C      1  0.5576760000000  0.4996760000000  0.4898930000000 1.0
C      1  0.4972440000000  0.5078920000000  0.4836720000000 1.0
C      1  0.4687520000000  0.5027430000000  0.4910080000000 1.0
C      1  0.4352950000000  0.4981520000000  0.4976550000000 1.0
END
