TITL C-2782226-7400-647 0.00429032889670675 125000 -146.191921623371 0 0 29 (C1) n - 1
REM
REM in /home/nfs/bkarasulu/CARBON/AIRSS/Generating-Clusters/REBO/Higher-Symm/SD-CG/HFTN-CG
REM
REM
REM
REM
REM
REM ./C.cell (12c818d87b63d06a65506943cc24bca4)
REM
REM compiler GCC version 9.2.1 20190827 (Red Hat 9.2.1-1)
REM options -cpp -mtune=generic -march=x86-64 -g -O0 -fpre-include=/usr/include/finclude/math-vector-fortran.h
REM seed 2025947311 -1301633285 -1238121144 1492001835 -1402461871 257693240 -53499790 937436662 -570302125 -687704674 -1351177599 -254703326 -698617106 -921758670 123098531 -1510122173 1094261124 1211943370 -911889803 1229709112 -762243854 1364019220 714838407 514792275 -1809632941 82494492 -1867694720 1066947244 1742561168 750491825 1698380964 -787007491 -39720035
REM
CELL 1.54180   50.00000   50.00000   50.00000   90.00000   90.00000   90.00000
LATT -1
SFAC C  
C      1  0.5196410000000  0.4542000000000  0.5180860000000 1.0
C      1  0.4631260000000  0.4680380000000  0.5169220000000 1.0
C      1  0.4603780000000  0.5261380000000  0.5135550000000 1.0
C      1  0.5125510000000  0.5473180000000  0.5140000000000 1.0
C      1  0.5507890000000  0.5033940000000  0.5170230000000 1.0
C      1  0.5393250000000  0.4758910000000  0.5010990000000 1.0
C      1  0.4904230000000  0.4560390000000  0.5013640000000 1.0
C      1  0.4579170000000  0.4960180000000  0.4983750000000 1.0
C      1  0.4850860000000  0.5402840000000  0.4962510000000 1.0
C      1  0.5354950000000  0.5275810000000  0.4989280000000 1.0
C      1  0.4945680000000  0.4709340000000  0.4757300000000 1.0
C      1  0.4749900000000  0.4953070000000  0.4733460000000 1.0
C      1  0.4920150000000  0.5236870000000  0.4715910000000 1.0
C      1  0.5238720000000  0.5156440000000  0.4739280000000 1.0
C      1  0.5259690000000  0.4840090000000  0.4754830000000 1.0
C      1  0.4697620000000  0.5009090000000  0.4440690000000 1.0
C      1  0.4890470000000  0.5395310000000  0.4428400000000 1.0
C      1  0.5194340000000  0.5244220000000  0.4425490000000 1.0
C      1  0.5209690000000  0.4903150000000  0.4420200000000 1.0
C      1  0.5064220000000  0.4629270000000  0.4481240000000 1.0
C      1  0.4927080000000  0.4678650000000  0.5337240000000 1.0
C      1  0.4672020000000  0.4981620000000  0.5316590000000 1.0
C      1  0.4883340000000  0.5318530000000  0.5319350000000 1.0
C      1  0.5269430000000  0.5222770000000  0.5319900000000 1.0
C      1  0.5294740000000  0.4827380000000  0.5335300000000 1.0
C      1  0.5003190000000  0.5018600000000  0.5719660000000 1.0
C      1  0.4944300000000  0.5064180000000  0.4280670000000 1.0
C      1  0.5007390000000  0.5010030000000  0.5417680000000 1.0
C      1  0.5013990000000  0.4995650000000  0.5076020000000 1.0
END
