TITL C-2782233-7966-1189 0.00264305523722822 125000 -478.491755462178 0 0 84 (C1) n - 1
REM
REM in /home/nfs/bkarasulu/CARBON/AIRSS/Generating-Clusters/REBO/Higher-Symm/SD-CG/HFTN-CG
REM
REM
REM
REM
REM
REM ./C.cell (12c818d87b63d06a65506943cc24bca4)
REM
REM compiler GCC version 9.2.1 20190827 (Red Hat 9.2.1-1)
REM options -cpp -mtune=generic -march=x86-64 -g -O0 -fpre-include=/usr/include/finclude/math-vector-fortran.h
REM seed -520133937 945037034 984796186 570833532 952223836 1996516612 -305996115 717008688 370818691 -1406066299 -1404098297 1931558848 -401608175 -1010683307 1704921456 -1387655309 -1418227391 -2037631089 1636883993 -469376974 730504936 -844392961 1648122180 2024738071 624897129 617812319 -349825946 958931521 1049182421 861970007 925601815 -1260343925 273788178
REM
CELL 1.54180   50.00000   50.00000   50.00000   90.00000   90.00000   90.00000
LATT -1
SFAC C  
C      1  0.4797020000000  0.5369350000000  0.5146990000000 1.0
C      1  0.5230680000000  0.4641140000000  0.5149220000000 1.0
C      1  0.5681260000000  0.4579720000000  0.4952130000000 1.0
C      1  0.4306820000000  0.5421760000000  0.4957890000000 1.0
C      1  0.4856870000000  0.4920770000000  0.4572720000000 1.0
C      1  0.5146550000000  0.5035240000000  0.4559240000000 1.0
C      1  0.4119400000000  0.5182540000000  0.4999300000000 1.0
C      1  0.5838030000000  0.4831140000000  0.5023650000000 1.0
C      1  0.4913720000000  0.5565250000000  0.5377250000000 1.0
C      1  0.5108570000000  0.4386670000000  0.5406730000000 1.0
C      1  0.5237690000000  0.5695980000000  0.4699560000000 1.0
C      1  0.4702860000000  0.4403310000000  0.4705090000000 1.0
C      1  0.6017100000000  0.4751670000000  0.5249380000000 1.0
C      1  0.3945460000000  0.5247260000000  0.5235040000000 1.0
C      1  0.4862730000000  0.5050120000000  0.5179590000000 1.0
C      1  0.5163730000000  0.4967570000000  0.5180270000000 1.0
C      1  0.5622160000000  0.5520900000000  0.5404670000000 1.0
C      1  0.4379570000000  0.4505940000000  0.5362070000000 1.0
C      1  0.5596420000000  0.4642810000000  0.5564960000000 1.0
C      1  0.4419920000000  0.5332970000000  0.5542020000000 1.0
C      1  0.4300790000000  0.4780910000000  0.4668420000000 1.0
C      1  0.5709470000000  0.5214130000000  0.4687630000000 1.0
C      1  0.4810220000000  0.4275890000000  0.5009810000000 1.0
C      1  0.5186210000000  0.5794300000000  0.5025870000000 1.0
C      1  0.5476940000000  0.5299480000000  0.4914740000000 1.0
C      1  0.4490830000000  0.4720670000000  0.4940440000000 1.0
C      1  0.5746490000000  0.4548020000000  0.5287040000000 1.0
C      1  0.4222860000000  0.5431670000000  0.5291040000000 1.0
C      1  0.4929110000000  0.5372710000000  0.5646300000000 1.0
C      1  0.5098930000000  0.4617130000000  0.5657690000000 1.0
C      1  0.4597180000000  0.4700120000000  0.4556870000000 1.0
C      1  0.5424330000000  0.5232820000000  0.4526380000000 1.0
C      1  0.4432600000000  0.4814180000000  0.5425420000000 1.0
C      1  0.5567560000000  0.5221900000000  0.5486620000000 1.0
C      1  0.4788420000000  0.5521750000000  0.4404600000000 1.0
C      1  0.5210340000000  0.4478620000000  0.4394550000000 1.0
C      1  0.4484690000000  0.5552210000000  0.4788150000000 1.0
C      1  0.5519580000000  0.4439650000000  0.4773010000000 1.0
C      1  0.5076710000000  0.4667100000000  0.4864560000000 1.0
C      1  0.4926050000000  0.5326200000000  0.4859710000000 1.0
C      1  0.4897950000000  0.5753930000000  0.5114410000000 1.0
C      1  0.5100000000000  0.4266930000000  0.5101000000000 1.0
C      1  0.4203610000000  0.4732270000000  0.5223230000000 1.0
C      1  0.5784570000000  0.5277710000000  0.5262690000000 1.0
C      1  0.5369650000000  0.5638970000000  0.5268030000000 1.0
C      1  0.4665110000000  0.4393700000000  0.5294140000000 1.0
C      1  0.5075090000000  0.4420350000000  0.4648670000000 1.0
C      1  0.4940790000000  0.5582320000000  0.4662180000000 1.0
C      1  0.5296210000000  0.5073370000000  0.5440520000000 1.0
C      1  0.4726520000000  0.4914380000000  0.5427080000000 1.0
C      1  0.4882700000000  0.5302320000000  0.4245630000000 1.0
C      1  0.5107710000000  0.4697460000000  0.4235860000000 1.0
C      1  0.4474050000000  0.5195530000000  0.4451120000000 1.0
C      1  0.5535040000000  0.4802960000000  0.4445320000000 1.0
C      1  0.5303040000000  0.5500320000000  0.4436220000000 1.0
C      1  0.4693610000000  0.4458840000000  0.4363200000000 1.0
C      1  0.4731420000000  0.5673270000000  0.4891860000000 1.0
C      1  0.5268270000000  0.4317460000000  0.4878200000000 1.0
C      1  0.4705860000000  0.5164270000000  0.5620150000000 1.0
C      1  0.5317400000000  0.4825440000000  0.5626640000000 1.0
C      1  0.4519490000000  0.5474010000000  0.4500510000000 1.0
C      1  0.5484360000000  0.4523410000000  0.4486310000000 1.0
C      1  0.4852650000000  0.4613470000000  0.5444370000000 1.0
C      1  0.5204430000000  0.5400880000000  0.5447870000000 1.0
C      1  0.5294070000000  0.4962990000000  0.4266050000000 1.0
C      1  0.4708130000000  0.5033170000000  0.4288280000000 1.0
C      1  0.5192940000000  0.5187780000000  0.4848040000000 1.0
C      1  0.4801350000000  0.4791770000000  0.4883800000000 1.0
C      1  0.5752470000000  0.5117460000000  0.5004040000000 1.0
C      1  0.4197050000000  0.4898050000000  0.4965690000000 1.0
C      1  0.5161110000000  0.5276090000000  0.4240300000000 1.0
C      1  0.4825740000000  0.4718900000000  0.4230390000000 1.0
C      1  0.4441800000000  0.5068850000000  0.4701770000000 1.0
C      1  0.5578020000000  0.4914890000000  0.4706540000000 1.0
C      1  0.5569070000000  0.4813800000000  0.5834550000000 1.0
C      1  0.4459890000000  0.5170840000000  0.5834060000000 1.0
C      1  0.5038410000000  0.4527170000000  0.5939470000000 1.0
C      1  0.4967210000000  0.5482730000000  0.5925550000000 1.0
C      1  0.4510330000000  0.4419920000000  0.4994470000000 1.0
C      1  0.5433760000000  0.5585200000000  0.4949560000000 1.0
C      1  0.5329960000000  0.4897830000000  0.4885600000000 1.0
C      1  0.4681090000000  0.5091530000000  0.4888470000000 1.0
C      1  0.4549010000000  0.5499390000000  0.5285120000000 1.0
C      1  0.5423200000000  0.4476480000000  0.5336410000000 1.0
END
