TITL C-2782231-7322-395 0.00157115682440516 125000 -535.363639746616 0 0 96 (C1) n - 1
REM
REM in /home/nfs/bkarasulu/CARBON/AIRSS/Generating-Clusters/REBO/Higher-Symm/SD-CG/HFTN-CG
REM
REM
REM
REM
REM
REM ./C.cell (12c818d87b63d06a65506943cc24bca4)
REM
REM compiler GCC version 9.2.1 20190827 (Red Hat 9.2.1-1)
REM options -cpp -mtune=generic -march=x86-64 -g -O0 -fpre-include=/usr/include/finclude/math-vector-fortran.h
REM seed -1691968812 -1818690690 361237101 -173713899 1341750937 -973335023 -1572599183 -1821697950 -2025572114 -1014300730 1519861501 -153674461 543617114 -1848723431 -1267128345 -528086602 1129623070 1754454124 -1150733029 -824737156 1295036962 1522113760 1423909742 -964241716 -1155436772 -1438490534 901679417 -139095356 -674696576 7322270 1723150744 -956522014 671314569
REM
CELL 1.54180   50.00000   50.00000   50.00000   90.00000   90.00000   90.00000
LATT -1
SFAC C  
C      1  0.5278370000000  0.5159410000000  0.4595220000000 1.0
C      1  0.4474760000000  0.5175400000000  0.4947950000000 1.0
C      1  0.5263810000000  0.5146040000000  0.5436070000000 1.0
C      1  0.4972840000000  0.5523530000000  0.5493850000000 1.0
C      1  0.5479570000000  0.5576800000000  0.4750230000000 1.0
C      1  0.4573100000000  0.5558270000000  0.4709010000000 1.0
C      1  0.4321470000000  0.4961440000000  0.5423560000000 1.0
C      1  0.5822080000000  0.5006660000000  0.5330780000000 1.0
C      1  0.4875680000000  0.5005240000000  0.4161600000000 1.0
C      1  0.5652670000000  0.5024660000000  0.5606550000000 1.0
C      1  0.5186590000000  0.5020670000000  0.4139200000000 1.0
C      1  0.4095320000000  0.5103040000000  0.5245220000000 1.0
C      1  0.5557490000000  0.4597420000000  0.4505810000000 1.0
C      1  0.4259820000000  0.4579400000000  0.4819810000000 1.0
C      1  0.5171050000000  0.4555340000000  0.5724830000000 1.0
C      1  0.4783040000000  0.4630560000000  0.4173580000000 1.0
C      1  0.4419660000000  0.4484110000000  0.5646090000000 1.0
C      1  0.5861180000000  0.4689890000000  0.5269020000000 1.0
C      1  0.5009990000000  0.5609490000000  0.4334730000000 1.0
C      1  0.4424120000000  0.5628880000000  0.5333430000000 1.0
C      1  0.5578050000000  0.5680380000000  0.5352220000000 1.0
C      1  0.4571510000000  0.5094210000000  0.4256920000000 1.0
C      1  0.4540960000000  0.5072260000000  0.5654830000000 1.0
C      1  0.5871810000000  0.5168310000000  0.5035410000000 1.0
C      1  0.5167990000000  0.4711970000000  0.5357920000000 1.0
C      1  0.5238900000000  0.4777140000000  0.4702690000000 1.0
C      1  0.4557360000000  0.4770850000000  0.5005070000000 1.0
C      1  0.5308720000000  0.5384980000000  0.5658670000000 1.0
C      1  0.5445190000000  0.5367340000000  0.4411410000000 1.0
C      1  0.4269070000000  0.5440520000000  0.4939580000000 1.0
C      1  0.4089510000000  0.4827510000000  0.4780270000000 1.0
C      1  0.5240660000000  0.4815170000000  0.5858990000000 1.0
C      1  0.5629880000000  0.4856130000000  0.4357410000000 1.0
C      1  0.5419220000000  0.4404680000000  0.4954760000000 1.0
C      1  0.4780110000000  0.4405980000000  0.4731810000000 1.0
C      1  0.4779270000000  0.4396010000000  0.5353790000000 1.0
C      1  0.5342600000000  0.5143690000000  0.4897770000000 1.0
C      1  0.4718390000000  0.5188500000000  0.4754220000000 1.0
C      1  0.4966410000000  0.5113810000000  0.5333630000000 1.0
C      1  0.4290130000000  0.5373120000000  0.4629020000000 1.0
C      1  0.5021520000000  0.5322090000000  0.5773710000000 1.0
C      1  0.5720560000000  0.5406620000000  0.4569600000000 1.0
C      1  0.5318560000000  0.4895270000000  0.4394320000000 1.0
C      1  0.4270450000000  0.4919930000000  0.5029300000000 1.0
C      1  0.5381550000000  0.4860920000000  0.5575600000000 1.0
C      1  0.5038940000000  0.5018160000000  0.5865240000000 1.0
C      1  0.5742700000000  0.5082370000000  0.4495650000000 1.0
C      1  0.4190710000000  0.5062920000000  0.4630630000000 1.0
C      1  0.4807580000000  0.4967080000000  0.5072570000000 1.0
C      1  0.5327450000000  0.4906900000000  0.5124990000000 1.0
C      1  0.4984510000000  0.4979550000000  0.4796240000000 1.0
C      1  0.4856660000000  0.4995930000000  0.5602990000000 1.0
C      1  0.5647120000000  0.5088180000000  0.4800070000000 1.0
C      1  0.4501460000000  0.5039140000000  0.4573590000000 1.0
C      1  0.4572730000000  0.4774340000000  0.4389040000000 1.0
C      1  0.4635890000000  0.4740890000000  0.5641010000000 1.0
C      1  0.5797820000000  0.4838710000000  0.4968990000000 1.0
C      1  0.5596590000000  0.5270990000000  0.5731570000000 1.0
C      1  0.5346540000000  0.5257860000000  0.4125140000000 1.0
C      1  0.4053100000000  0.5360230000000  0.5147140000000 1.0
C      1  0.4721630000000  0.5364130000000  0.5674030000000 1.0
C      1  0.5771450000000  0.5457480000000  0.4886680000000 1.0
C      1  0.4521840000000  0.5399570000000  0.4405780000000 1.0
C      1  0.5052570000000  0.4500560000000  0.4643260000000 1.0
C      1  0.4557230000000  0.4523740000000  0.5216420000000 1.0
C      1  0.5330560000000  0.4425680000000  0.5256920000000 1.0
C      1  0.4915320000000  0.4605180000000  0.5529830000000 1.0
C      1  0.5540420000000  0.4672050000000  0.4821830000000 1.0
C      1  0.4563110000000  0.4627820000000  0.4695750000000 1.0
C      1  0.4949860000000  0.5429970000000  0.4686050000000 1.0
C      1  0.4818450000000  0.5369000000000  0.5161630000000 1.0
C      1  0.5295480000000  0.5409350000000  0.5063610000000 1.0
C      1  0.5379370000000  0.4417230000000  0.5589910000000 1.0
C      1  0.5317080000000  0.4386310000000  0.4456910000000 1.0
C      1  0.4269720000000  0.4451350000000  0.5072340000000 1.0
C      1  0.4727720000000  0.4166610000000  0.4828170000000 1.0
C      1  0.4854880000000  0.4145270000000  0.5334330000000 1.0
C      1  0.5331260000000  0.4234800000000  0.4749150000000 1.0
C      1  0.5226750000000  0.5561460000000  0.4535750000000 1.0
C      1  0.4551610000000  0.5553580000000  0.5048720000000 1.0
C      1  0.5293200000000  0.5540490000000  0.5378170000000 1.0
C      1  0.5534610000000  0.5149210000000  0.5247390000000 1.0
C      1  0.4982500000000  0.5096360000000  0.4472870000000 1.0
C      1  0.4547280000000  0.5096840000000  0.5256110000000 1.0
C      1  0.5195360000000  0.5674230000000  0.4914300000000 1.0
C      1  0.4860610000000  0.5687130000000  0.4849320000000 1.0
C      1  0.4972590000000  0.5650060000000  0.5173070000000 1.0
C      1  0.5660580000000  0.4499480000000  0.5469900000000 1.0
C      1  0.5072390000000  0.4465870000000  0.4245540000000 1.0
C      1  0.4244070000000  0.4347440000000  0.5388430000000 1.0
C      1  0.4315320000000  0.4679890000000  0.5397420000000 1.0
C      1  0.5535440000000  0.4681140000000  0.5217850000000 1.0
C      1  0.4964250000000  0.4717980000000  0.4421560000000 1.0
C      1  0.4827510000000  0.5375040000000  0.4375740000000 1.0
C      1  0.4589130000000  0.5376300000000  0.5401240000000 1.0
C      1  0.5608050000000  0.5444480000000  0.5153720000000 1.0
END
