TITL C-2782233-7966-1453 -0.00415389035454832 125000 -991.073473575933 0 0 171 (C1) n - 1
REM
REM in /home/nfs/bkarasulu/CARBON/AIRSS/Generating-Clusters/REBO/Higher-Symm/SD-CG/HFTN-CG
REM
REM
REM
REM
REM
REM ./C.cell (12c818d87b63d06a65506943cc24bca4)
REM
REM compiler GCC version 9.2.1 20190827 (Red Hat 9.2.1-1)
REM options -cpp -mtune=generic -march=x86-64 -g -O0 -fpre-include=/usr/include/finclude/math-vector-fortran.h
REM seed -678106767 847727296 427128831 1521796583 1397507215 -860061490 1072253184 1869684446 1309092077 -1437958872 -700121640 898284463 1572779118 -305437662 1045101779 -1759050174 1432976330 839926118 1525268919 -1968778259 -542612400 -407533726 -1064891798 1390652826 378685581 785511022 2017824213 -1955309333 1176731366 -1315038174 675967834 1945925498 -1266290204
REM
CELL 1.54180   50.00000   50.00000   50.00000   90.00000   90.00000   90.00000
LATT -1
SFAC C  
C      1  0.5655850000000  0.4685910000000  0.5721170000000 1.0
C      1  0.4292850000000  0.5241820000000  0.4059350000000 1.0
C      1  0.4875790000000  0.4844810000000  0.5228620000000 1.0
C      1  0.5310520000000  0.5133880000000  0.4737600000000 1.0
C      1  0.5375650000000  0.5298400000000  0.5552460000000 1.0
C      1  0.4626920000000  0.4631030000000  0.4541320000000 1.0
C      1  0.4870310000000  0.5864960000000  0.5752650000000 1.0
C      1  0.5117620000000  0.4289110000000  0.4207150000000 1.0
C      1  0.5849070000000  0.5399290000000  0.5474430000000 1.0
C      1  0.4228220000000  0.4609600000000  0.4592430000000 1.0
C      1  0.5666280000000  0.4691880000000  0.5402710000000 1.0
C      1  0.4431970000000  0.5076340000000  0.4688660000000 1.0
C      1  0.4301930000000  0.5094420000000  0.5801390000000 1.0
C      1  0.5712240000000  0.4938770000000  0.4180060000000 1.0
C      1  0.5332800000000  0.4078390000000  0.5040340000000 1.0
C      1  0.4693500000000  0.5837930000000  0.5056240000000 1.0
C      1  0.5881450000000  0.5128440000000  0.5557530000000 1.0
C      1  0.4140750000000  0.4906030000000  0.4474500000000 1.0
C      1  0.5274450000000  0.3974960000000  0.4739250000000 1.0
C      1  0.4774260000000  0.6093830000000  0.5212990000000 1.0
C      1  0.5048380000000  0.4642740000000  0.5318640000000 1.0
C      1  0.4985110000000  0.5219720000000  0.4662260000000 1.0
C      1  0.5035580000000  0.4616010000000  0.5786220000000 1.0
C      1  0.5017620000000  0.5326080000000  0.4161480000000 1.0
C      1  0.5108520000000  0.4520290000000  0.4432300000000 1.0
C      1  0.4899290000000  0.5573810000000  0.5582280000000 1.0
C      1  0.4821220000000  0.5165650000000  0.5294730000000 1.0
C      1  0.5172190000000  0.4855120000000  0.4638900000000 1.0
C      1  0.5340100000000  0.5109660000000  0.5066130000000 1.0
C      1  0.4647840000000  0.4923600000000  0.4987970000000 1.0
C      1  0.5179870000000  0.5565130000000  0.4669470000000 1.0
C      1  0.4762290000000  0.4280310000000  0.5183270000000 1.0
C      1  0.4665460000000  0.4485720000000  0.5861700000000 1.0
C      1  0.5361120000000  0.5543970000000  0.4075490000000 1.0
C      1  0.4735050000000  0.4454350000000  0.4922800000000 1.0
C      1  0.5396210000000  0.5502990000000  0.4999320000000 1.0
C      1  0.5274720000000  0.4982090000000  0.6153840000000 1.0
C      1  0.4724170000000  0.4952470000000  0.3860500000000 1.0
C      1  0.5425450000000  0.4532510000000  0.5808370000000 1.0
C      1  0.4552550000000  0.5426320000000  0.4077730000000 1.0
C      1  0.5825190000000  0.5522730000000  0.4707300000000 1.0
C      1  0.4151580000000  0.4467530000000  0.5362750000000 1.0
C      1  0.4680740000000  0.4021130000000  0.4768200000000 1.0
C      1  0.5270390000000  0.6008570000000  0.5255150000000 1.0
C      1  0.4553340000000  0.4185970000000  0.5746720000000 1.0
C      1  0.5421490000000  0.5769320000000  0.4314450000000 1.0
C      1  0.5826530000000  0.4768130000000  0.4423940000000 1.0
C      1  0.4203950000000  0.5403640000000  0.5799690000000 1.0
C      1  0.5770580000000  0.5247310000000  0.4225030000000 1.0
C      1  0.4232540000000  0.4760240000000  0.5806050000000 1.0
C      1  0.5527310000000  0.5251670000000  0.5280070000000 1.0
C      1  0.4467690000000  0.4777910000000  0.4766400000000 1.0
C      1  0.4046220000000  0.4691650000000  0.5548680000000 1.0
C      1  0.5944580000000  0.5326290000000  0.4500210000000 1.0
C      1  0.4714190000000  0.5901520000000  0.5450470000000 1.0
C      1  0.5436570000000  0.4170160000000  0.4557230000000 1.0
C      1  0.5028020000000  0.6159280000000  0.5104540000000 1.0
C      1  0.4973610000000  0.3977750000000  0.4900140000000 1.0
C      1  0.4165600000000  0.5176670000000  0.4617370000000 1.0
C      1  0.5903910000000  0.4927270000000  0.5369580000000 1.0
C      1  0.4894240000000  0.4737100000000  0.4509580000000 1.0
C      1  0.5142560000000  0.5179680000000  0.5329500000000 1.0
C      1  0.4998820000000  0.4948620000000  0.4291330000000 1.0
C      1  0.5045990000000  0.5080910000000  0.5614350000000 1.0
C      1  0.4926640000000  0.5334200000000  0.5756690000000 1.0
C      1  0.5010050000000  0.4667430000000  0.4134590000000 1.0
C      1  0.4130790000000  0.4323260000000  0.5062000000000 1.0
C      1  0.5838130000000  0.5650830000000  0.5022470000000 1.0
C      1  0.5011840000000  0.4618450000000  0.4915250000000 1.0
C      1  0.5082740000000  0.5514740000000  0.4973180000000 1.0
C      1  0.5621370000000  0.5308540000000  0.5797900000000 1.0
C      1  0.4445000000000  0.4680960000000  0.4265000000000 1.0
C      1  0.4580040000000  0.5175860000000  0.5517740000000 1.0
C      1  0.5442730000000  0.4861330000000  0.4476540000000 1.0
C      1  0.4279430000000  0.4682440000000  0.5131740000000 1.0
C      1  0.5609130000000  0.5354290000000  0.4885980000000 1.0
C      1  0.6006250000000  0.5175010000000  0.5070030000000 1.0
C      1  0.3944980000000  0.4856860000000  0.5023270000000 1.0
C      1  0.4638020000000  0.5803040000000  0.4536050000000 1.0
C      1  0.5267810000000  0.4020860000000  0.5547900000000 1.0
C      1  0.4018810000000  0.4938640000000  0.5349840000000 1.0
C      1  0.5941990000000  0.5025170000000  0.4599540000000 1.0
C      1  0.4917550000000  0.4327860000000  0.5687890000000 1.0
C      1  0.5063980000000  0.5641810000000  0.4212270000000 1.0
C      1  0.5544580000000  0.5739690000000  0.5149860000000 1.0
C      1  0.4434580000000  0.4292160000000  0.4925450000000 1.0
C      1  0.4632070000000  0.3993720000000  0.5103590000000 1.0
C      1  0.5335790000000  0.5990790000000  0.4921890000000 1.0
C      1  0.5346490000000  0.4682160000000  0.5446230000000 1.0
C      1  0.4654010000000  0.5226110000000  0.4576820000000 1.0
C      1  0.5217820000000  0.4709020000000  0.3935630000000 1.0
C      1  0.4766160000000  0.5286960000000  0.5969600000000 1.0
C      1  0.5970420000000  0.4700670000000  0.4927140000000 1.0
C      1  0.4065840000000  0.5456260000000  0.5170530000000 1.0
C      1  0.4629520000000  0.4351130000000  0.4163290000000 1.0
C      1  0.5310510000000  0.5547960000000  0.5778900000000 1.0
C      1  0.5005800000000  0.3910650000000  0.5491830000000 1.0
C      1  0.4873270000000  0.5947190000000  0.4599100000000 1.0
C      1  0.5459610000000  0.5233910000000  0.4086920000000 1.0
C      1  0.4554250000000  0.4804020000000  0.5908210000000 1.0
C      1  0.5137320000000  0.5838480000000  0.4468490000000 1.0
C      1  0.4811010000000  0.4023620000000  0.5673990000000 1.0
C      1  0.4169940000000  0.5462110000000  0.4610920000000 1.0
C      1  0.5916590000000  0.4667490000000  0.5193440000000 1.0
C      1  0.4683640000000  0.4329470000000  0.4618830000000 1.0
C      1  0.5119150000000  0.5763740000000  0.5438900000000 1.0
C      1  0.5743520000000  0.4994620000000  0.5810410000000 1.0
C      1  0.4244880000000  0.4929160000000  0.4186940000000 1.0
C      1  0.4864730000000  0.4202220000000  0.4147350000000 1.0
C      1  0.5140230000000  0.5763120000000  0.5838230000000 1.0
C      1  0.5725900000000  0.4677080000000  0.4736070000000 1.0
C      1  0.4402780000000  0.5474850000000  0.5217660000000 1.0
C      1  0.5470840000000  0.4060630000000  0.5324910000000 1.0
C      1  0.4376500000000  0.5649580000000  0.4665030000000 1.0
C      1  0.5260420000000  0.5357260000000  0.4409980000000 1.0
C      1  0.4760840000000  0.4680350000000  0.5594820000000 1.0
C      1  0.4569050000000  0.5634230000000  0.4891010000000 1.0
C      1  0.5397060000000  0.4373070000000  0.5199920000000 1.0
C      1  0.4498650000000  0.5197050000000  0.5061630000000 1.0
C      1  0.5513870000000  0.4847070000000  0.4931070000000 1.0
C      1  0.5439750000000  0.4909660000000  0.3978630000000 1.0
C      1  0.4560010000000  0.5119280000000  0.6005590000000 1.0
C      1  0.5268500000000  0.5056740000000  0.4307710000000 1.0
C      1  0.4753320000000  0.4981360000000  0.5685310000000 1.0
C      1  0.5563710000000  0.5414710000000  0.4427640000000 1.0
C      1  0.4444330000000  0.4654090000000  0.5554680000000 1.0
C      1  0.5441930000000  0.4369060000000  0.4279140000000 1.0
C      1  0.4556120000000  0.5741430000000  0.5701030000000 1.0
C      1  0.5346960000000  0.4586380000000  0.4967540000000 1.0
C      1  0.4767880000000  0.5417190000000  0.5066320000000 1.0
C      1  0.4924660000000  0.3881700000000  0.5221600000000 1.0
C      1  0.5053140000000  0.6077300000000  0.4804820000000 1.0
C      1  0.4228520000000  0.5685790000000  0.5658170000000 1.0
C      1  0.5703740000000  0.4456270000000  0.4482670000000 1.0
C      1  0.4909180000000  0.5513420000000  0.4493630000000 1.0
C      1  0.4928890000000  0.4391130000000  0.5378410000000 1.0
C      1  0.3980990000000  0.5182920000000  0.5116880000000 1.0
C      1  0.6077700000000  0.4959830000000  0.4859810000000 1.0
C      1  0.5320220000000  0.4357030000000  0.5536380000000 1.0
C      1  0.4609510000000  0.5501790000000  0.4376540000000 1.0
C      1  0.4365870000000  0.4375390000000  0.4382930000000 1.0
C      1  0.5620080000000  0.5601690000000  0.5626000000000 1.0
C      1  0.5268530000000  0.4433410000000  0.4670590000000 1.0
C      1  0.4674560000000  0.5576620000000  0.5356510000000 1.0
C      1  0.4327030000000  0.4966830000000  0.5482670000000 1.0
C      1  0.5613370000000  0.5111660000000  0.4573300000000 1.0
C      1  0.5722560000000  0.5105440000000  0.4963580000000 1.0
C      1  0.4260490000000  0.5003720000000  0.5041750000000 1.0
C      1  0.4789930000000  0.5281000000000  0.3922280000000 1.0
C      1  0.5243980000000  0.4664460000000  0.6035840000000 1.0
C      1  0.5612270000000  0.5835380000000  0.4832440000000 1.0
C      1  0.4381830000000  0.4168310000000  0.5235220000000 1.0
C      1  0.4762810000000  0.5142150000000  0.4294060000000 1.0
C      1  0.5231980000000  0.4857520000000  0.5680130000000 1.0
C      1  0.5639620000000  0.5724290000000  0.4532120000000 1.0
C      1  0.4397600000000  0.4320270000000  0.5515940000000 1.0
C      1  0.5424030000000  0.4973940000000  0.5866160000000 1.0
C      1  0.4550560000000  0.5031440000000  0.4116450000000 1.0
C      1  0.4694540000000  0.4664690000000  0.4042370000000 1.0
C      1  0.5334760000000  0.5275550000000  0.5984700000000 1.0
C      1  0.4171300000000  0.5662660000000  0.5383080000000 1.0
C      1  0.5770950000000  0.4169950000000  0.4589480000000 1.0
C      1  0.5095340000000  0.4285270000000  0.4911320000000 1.0
C      1  0.4969940000000  0.5751030000000  0.5150870000000 1.0
C      1  0.4080700000000  0.4584880000000  0.4870720000000 1.0
C      1  0.5952880000000  0.5434140000000  0.5209220000000 1.0
C      1  0.4510660000000  0.5413890000000  0.5682260000000 1.0
C      1  0.5497040000000  0.4672260000000  0.4219480000000 1.0
C      1  0.5452510000000  0.5781580000000  0.5435440000000 1.0
C      1  0.4401850000000  0.4148640000000  0.4618460000000 1.0
C      1  0.4936140000000  0.4939680000000  0.4850820000000 1.0
END
