TITL C-2782237-5345-639 0.00546263424552503 125000 -1130.10924826613 0 0 194 (C1) n - 1
REM
REM in /home/nfs/bkarasulu/CARBON/AIRSS/Generating-Clusters/REBO/Higher-Symm/SD-CG/HFTN-CG
REM
REM
REM
REM
REM
REM ./C.cell (12c818d87b63d06a65506943cc24bca4)
REM
REM compiler GCC version 9.2.1 20190827 (Red Hat 9.2.1-1)
REM options -cpp -mtune=generic -march=x86-64 -g -O0 -fpre-include=/usr/include/finclude/math-vector-fortran.h
REM seed 435112031 317818877 1214480823 -1828557430 -809484294 1576703559 944594026 1421261039 -340772637 -391528151 789666762 -885890851 -154789957 -1456555212 100317986 402559863 825381900 1685670119 -1407249976 1998725183 679959480 -1610414787 -163976499 533020537 2099046918 1386872491 379826666 -1962291662 -1615576359 -634053040 644861160 -1479619076 -1032033923
REM
CELL 1.54180   50.00000   50.00000   50.00000   90.00000   90.00000   90.00000
LATT -1
SFAC C  
C      1  0.5230180000000  0.5825090000000  0.4336910000000 1.0
C      1  0.4540400000000  0.5809350000000  0.4642280000000 1.0
C      1  0.4485600000000  0.5841270000000  0.5346130000000 1.0
C      1  0.5178910000000  0.5795740000000  0.5615190000000 1.0
C      1  0.5644390000000  0.5808640000000  0.5008340000000 1.0
C      1  0.4370390000000  0.4897180000000  0.4251810000000 1.0
C      1  0.4009170000000  0.4887280000000  0.5321990000000 1.0
C      1  0.5092680000000  0.4878400000000  0.5980840000000 1.0
C      1  0.5985980000000  0.4894830000000  0.5291720000000 1.0
C      1  0.5579890000000  0.4938820000000  0.4051670000000 1.0
C      1  0.5386270000000  0.3988510000000  0.5449490000000 1.0
C      1  0.5478820000000  0.4025470000000  0.4824780000000 1.0
C      1  0.4970990000000  0.4033470000000  0.4502610000000 1.0
C      1  0.4454250000000  0.3981570000000  0.4845950000000 1.0
C      1  0.4736260000000  0.4042430000000  0.5471460000000 1.0
C      1  0.5180890000000  0.4925530000000  0.4171960000000 1.0
C      1  0.4348800000000  0.4910420000000  0.4650470000000 1.0
C      1  0.4329900000000  0.4923330000000  0.5556680000000 1.0
C      1  0.5329510000000  0.4895040000000  0.5659150000000 1.0
C      1  0.5828950000000  0.4935950000000  0.4927310000000 1.0
C      1  0.4493480000000  0.5144610000000  0.4450770000000 1.0
C      1  0.4233040000000  0.5143880000000  0.5333190000000 1.0
C      1  0.5108110000000  0.5123910000000  0.5745560000000 1.0
C      1  0.5785050000000  0.5143990000000  0.5172610000000 1.0
C      1  0.5395920000000  0.5150970000000  0.4249180000000 1.0
C      1  0.5778020000000  0.5495430000000  0.4802740000000 1.0
C      1  0.5039910000000  0.5509940000000  0.4185910000000 1.0
C      1  0.4316430000000  0.5495790000000  0.4738810000000 1.0
C      1  0.4478770000000  0.5513350000000  0.5569640000000 1.0
C      1  0.5425340000000  0.5486090000000  0.5643120000000 1.0
C      1  0.5765820000000  0.5203230000000  0.4113020000000 1.0
C      1  0.4459230000000  0.5152820000000  0.4052440000000 1.0
C      1  0.3860870000000  0.5167890000000  0.5197550000000 1.0
C      1  0.4874170000000  0.5125080000000  0.6068780000000 1.0
C      1  0.6034760000000  0.5169700000000  0.5482180000000 1.0
C      1  0.5165750000000  0.4348610000000  0.4886150000000 1.0
C      1  0.4925900000000  0.4352560000000  0.4779360000000 1.0
C      1  0.4691680000000  0.4283310000000  0.4978700000000 1.0
C      1  0.4871590000000  0.4391240000000  0.5221800000000 1.0
C      1  0.5165760000000  0.4296510000000  0.5185460000000 1.0
C      1  0.5426880000000  0.4297670000000  0.4345050000000 1.0
C      1  0.4359200000000  0.4236210000000  0.4342090000000 1.0
C      1  0.4249870000000  0.4310880000000  0.5268240000000 1.0
C      1  0.5171560000000  0.4217160000000  0.5889830000000 1.0
C      1  0.5795480000000  0.4311630000000  0.5199780000000 1.0
C      1  0.4806430000000  0.6037910000000  0.5180800000000 1.0
C      1  0.5125870000000  0.6029850000000  0.5232240000000 1.0
C      1  0.5284190000000  0.6030500000000  0.4943090000000 1.0
C      1  0.5059800000000  0.6058420000000  0.4712030000000 1.0
C      1  0.4764110000000  0.6061910000000  0.4855150000000 1.0
C      1  0.4664980000000  0.5351780000000  0.5983720000000 1.0
C      1  0.5906430000000  0.5455990000000  0.5607690000000 1.0
C      1  0.5867110000000  0.5379230000000  0.4353790000000 1.0
C      1  0.4624010000000  0.5427720000000  0.3975970000000 1.0
C      1  0.3875720000000  0.5457080000000  0.5022860000000 1.0
C      1  0.4749020000000  0.3956360000000  0.4955540000000 1.0
C      1  0.4862630000000  0.3921300000000  0.5247910000000 1.0
C      1  0.5172650000000  0.3973720000000  0.5225970000000 1.0
C      1  0.5237390000000  0.3935440000000  0.4918780000000 1.0
C      1  0.4997380000000  0.3932350000000  0.4764690000000 1.0
C      1  0.5341770000000  0.5642550000000  0.4078090000000 1.0
C      1  0.4333460000000  0.5645630000000  0.4427550000000 1.0
C      1  0.4204760000000  0.5668720000000  0.5431920000000 1.0
C      1  0.5221980000000  0.5607880000000  0.5895760000000 1.0
C      1  0.5920720000000  0.5646840000000  0.5078830000000 1.0
C      1  0.5676910000000  0.4285720000000  0.4894720000000 1.0
C      1  0.5143980000000  0.4260970000000  0.4372190000000 1.0
C      1  0.4434100000000  0.3994330000000  0.4563620000000 1.0
C      1  0.4514010000000  0.4283950000000  0.5450000000000 1.0
C      1  0.5293970000000  0.3975180000000  0.5708110000000 1.0
C      1  0.5570090000000  0.4203530000000  0.5382970000000 1.0
C      1  0.5562490000000  0.4131620000000  0.4548700000000 1.0
C      1  0.4679690000000  0.4139420000000  0.4401390000000 1.0
C      1  0.4307480000000  0.4173880000000  0.4992760000000 1.0
C      1  0.4924430000000  0.4153740000000  0.5690790000000 1.0
C      1  0.5155460000000  0.4607480000000  0.5973400000000 1.0
C      1  0.6194300000000  0.4674070000000  0.5155560000000 1.0
C      1  0.5538390000000  0.4664810000000  0.4025570000000 1.0
C      1  0.4319780000000  0.4627820000000  0.4278520000000 1.0
C      1  0.3932990000000  0.4651010000000  0.5545980000000 1.0
C      1  0.5407230000000  0.4406660000000  0.4728230000000 1.0
C      1  0.4854480000000  0.4412100000000  0.4479700000000 1.0
C      1  0.4434000000000  0.4473690000000  0.4953160000000 1.0
C      1  0.4815910000000  0.4425830000000  0.5537980000000 1.0
C      1  0.5389280000000  0.4461200000000  0.5336160000000 1.0
C      1  0.5440200000000  0.5932660000000  0.5229780000000 1.0
C      1  0.5360110000000  0.5926470000000  0.4628010000000 1.0
C      1  0.4807030000000  0.5951780000000  0.4534360000000 1.0
C      1  0.4507520000000  0.5958060000000  0.5041980000000 1.0
C      1  0.4913290000000  0.5920250000000  0.5475490000000 1.0
C      1  0.4767900000000  0.4694860000000  0.5245960000000 1.0
C      1  0.5157780000000  0.4814900000000  0.5307620000000 1.0
C      1  0.5293950000000  0.4750920000000  0.4925480000000 1.0
C      1  0.5047390000000  0.4776140000000  0.4687420000000 1.0
C      1  0.4678310000000  0.4821300000000  0.4858330000000 1.0
C      1  0.4721570000000  0.4597230000000  0.4015840000000 1.0
C      1  0.3903060000000  0.4631050000000  0.4958440000000 1.0
C      1  0.4676870000000  0.4569970000000  0.5921560000000 1.0
C      1  0.5883960000000  0.4630980000000  0.5656840000000 1.0
C      1  0.5781560000000  0.4655350000000  0.4442480000000 1.0
C      1  0.5304020000000  0.4591420000000  0.5602450000000 1.0
C      1  0.5760060000000  0.4659350000000  0.5006100000000 1.0
C      1  0.5217760000000  0.4635520000000  0.4259830000000 1.0
C      1  0.4395230000000  0.4605480000000  0.4679850000000 1.0
C      1  0.4354970000000  0.4650750000000  0.5453940000000 1.0
C      1  0.5840290000000  0.4516430000000  0.4703870000000 1.0
C      1  0.4987500000000  0.4514380000000  0.4038560000000 1.0
C      1  0.3943210000000  0.4487570000000  0.4722880000000 1.0
C      1  0.4467360000000  0.4471740000000  0.5727530000000 1.0
C      1  0.5722360000000  0.4480300000000  0.5826750000000 1.0
C      1  0.4900310000000  0.5807110000000  0.4284310000000 1.0
C      1  0.4292830000000  0.5807730000000  0.4874570000000 1.0
C      1  0.4673380000000  0.5785520000000  0.5624320000000 1.0
C      1  0.5487950000000  0.5790700000000  0.5497610000000 1.0
C      1  0.5621830000000  0.5771440000000  0.4675610000000 1.0
C      1  0.5147920000000  0.5341600000000  0.3909500000000 1.0
C      1  0.4090010000000  0.5352230000000  0.4547100000000 1.0
C      1  0.4194260000000  0.5377240000000  0.5699180000000 1.0
C      1  0.5486530000000  0.5313580000000  0.5930080000000 1.0
C      1  0.6082360000000  0.5355960000000  0.4861040000000 1.0
C      1  0.4450220000000  0.5225560000000  0.5842830000000 1.0
C      1  0.5745690000000  0.5231670000000  0.5750400000000 1.0
C      1  0.5960270000000  0.5204510000000  0.4596590000000 1.0
C      1  0.4846860000000  0.5205260000000  0.3970360000000 1.0
C      1  0.3930260000000  0.5235970000000  0.4809610000000 1.0
C      1  0.5737750000000  0.5613190000000  0.5430990000000 1.0
C      1  0.5669820000000  0.5575340000000  0.4430740000000 1.0
C      1  0.4656930000000  0.5616730000000  0.4195140000000 1.0
C      1  0.4121930000000  0.5615700000000  0.5063260000000 1.0
C      1  0.4783750000000  0.5555670000000  0.5822430000000 1.0
C      1  0.5463000000000  0.5005080000000  0.5916990000000 1.0
C      1  0.6100000000000  0.5058980000000  0.4941700000000 1.0
C      1  0.5229070000000  0.5045810000000  0.3901300000000 1.0
C      1  0.4109380000000  0.5047800000000  0.4506310000000 1.0
C      1  0.4111750000000  0.5063530000000  0.5705490000000 1.0
C      1  0.3879300000000  0.4931460000000  0.4948410000000 1.0
C      1  0.4698620000000  0.4859340000000  0.5945250000000 1.0
C      1  0.5878680000000  0.4930930000000  0.5673490000000 1.0
C      1  0.5842480000000  0.4980670000000  0.4362270000000 1.0
C      1  0.4688040000000  0.4903060000000  0.4010230000000 1.0
C      1  0.5166740000000  0.5582260000000  0.4566580000000 1.0
C      1  0.4798840000000  0.5598090000000  0.4722530000000 1.0
C      1  0.4633120000000  0.5578310000000  0.5195350000000 1.0
C      1  0.5082840000000  0.5561500000000  0.5385430000000 1.0
C      1  0.5397400000000  0.5578290000000  0.4993370000000 1.0
C      1  0.4510530000000  0.4456810000000  0.4130810000000 1.0
C      1  0.4034740000000  0.4556300000000  0.5234470000000 1.0
C      1  0.4916160000000  0.4432060000000  0.5968980000000 1.0
C      1  0.5942380000000  0.4561370000000  0.5357170000000 1.0
C      1  0.5602770000000  0.4520200000000  0.4263990000000 1.0
C      1  0.5206450000000  0.5193740000000  0.4718630000000 1.0
C      1  0.4809120000000  0.5200380000000  0.4704650000000 1.0
C      1  0.4653140000000  0.5191640000000  0.5099050000000 1.0
C      1  0.4979260000000  0.5177760000000  0.5355420000000 1.0
C      1  0.5331060000000  0.5198710000000  0.5097550000000 1.0
C      1  0.5494660000000  0.4669780000000  0.5140220000000 1.0
C      1  0.5312240000000  0.4637030000000  0.4544620000000 1.0
C      1  0.4688490000000  0.4661100000000  0.4558410000000 1.0
C      1  0.4468630000000  0.4676020000000  0.5175160000000 1.0
C      1  0.4995570000000  0.4672570000000  0.5571170000000 1.0
C      1  0.4841230000000  0.4948530000000  0.4517340000000 1.0
C      1  0.4448150000000  0.4961750000000  0.5037700000000 1.0
C      1  0.4820010000000  0.4935670000000  0.5480340000000 1.0
C      1  0.5439520000000  0.4958680000000  0.5278890000000 1.0
C      1  0.5409170000000  0.4939200000000  0.4670810000000 1.0
C      1  0.4161690000000  0.4411810000000  0.5584250000000 1.0
C      1  0.5416530000000  0.4443340000000  0.5856760000000 1.0
C      1  0.6026130000000  0.4449970000000  0.4984240000000 1.0
C      1  0.5275630000000  0.4565370000000  0.3915980000000 1.0
C      1  0.4174510000000  0.4453170000000  0.4513450000000 1.0
C      1  0.6044510000000  0.5363330000000  0.5201630000000 1.0
C      1  0.5484790000000  0.5348290000000  0.3982570000000 1.0
C      1  0.4287870000000  0.5350980000000  0.4269760000000 1.0
C      1  0.4006820000000  0.5390550000000  0.5413360000000 1.0
C      1  0.5163410000000  0.5302900000000  0.6037820000000 1.0
C      1  0.4343510000000  0.5424170000000  0.5204460000000 1.0
C      1  0.5031640000000  0.5431340000000  0.5684120000000 1.0
C      1  0.5654140000000  0.5446250000000  0.5177240000000 1.0
C      1  0.5397340000000  0.5463060000000  0.4354430000000 1.0
C      1  0.4617450000000  0.5458530000000  0.4468140000000 1.0
C      1  0.5506140000000  0.5305010000000  0.4835730000000 1.0
C      1  0.5018490000000  0.5314730000000  0.4462060000000 1.0
C      1  0.4572980000000  0.5380010000000  0.4854100000000 1.0
C      1  0.4670650000000  0.5312060000000  0.5404840000000 1.0
C      1  0.5290940000000  0.5305540000000  0.5409590000000 1.0
C      1  0.5592310000000  0.5029290000000  0.5534740000000 1.0
C      1  0.5695380000000  0.4999610000000  0.4662610000000 1.0
C      1  0.4899270000000  0.5007120000000  0.4237940000000 1.0
C      1  0.4188870000000  0.5040830000000  0.4897890000000 1.0
C      1  0.4597760000000  0.4993510000000  0.5676930000000 1.0
C      1  0.4974550000000  0.4852320000000  0.5022990000000 1.0
C      1  0.4995670000000  0.5196810000000  0.5001450000000 1.0
C      1  0.4932060000000  0.5520250000000  0.5125260000000 1.0
C      1  0.5105570000000  0.5620110000000  0.4869670000000 1.0
END
