TITL C-2782240-8521-680 -0.0231391634077945 125000 -402.713472526716 0 0 71 (C1) n - 1
REM
REM in /home/nfs/bkarasulu/CARBON/AIRSS/Generating-Clusters/REBO/Higher-Symm/SD-CG/HFTN-CG
REM
REM
REM
REM
REM
REM ./C.cell (12c818d87b63d06a65506943cc24bca4)
REM
REM compiler GCC version 9.2.1 20190827 (Red Hat 9.2.1-1)
REM options -cpp -mtune=generic -march=x86-64 -g -O0 -fpre-include=/usr/include/finclude/math-vector-fortran.h
REM seed -848840622 -1813735651 189010757 -2071136009 814906069 398165283 2022090228 1101787383 1678534698 832274200 -1543345290 1545570990 -712311034 -1357066525 937794059 -441145094 1212340483 2130348834 -374565646 -859298697 1424451011 -1918802916 -667996798 -94784078 1208490921 240068565 -1140220548 -624969521 1175058800 591347659 1136634507 -1851257136 1316641448
REM
CELL 1.54180   50.00000   50.00000   50.00000   90.00000   90.00000   90.00000
LATT -1
SFAC C  
C      1  0.5921570000000  0.4704170000000  0.4583760000000 1.0
C      1  0.6175170000000  0.4965710000000  0.5180550000000 1.0
C      1  0.6017200000000  0.4497380000000  0.5030600000000 1.0
C      1  0.6077260000000  0.5091540000000  0.4901680000000 1.0
C      1  0.4560030000000  0.5220360000000  0.5392830000000 1.0
C      1  0.4693060000000  0.4801850000000  0.4604320000000 1.0
C      1  0.4634570000000  0.5113630000000  0.4543990000000 1.0
C      1  0.4611700000000  0.4901760000000  0.5455630000000 1.0
C      1  0.4587180000000  0.5389510000000  0.5173400000000 1.0
C      1  0.4688330000000  0.4674740000000  0.4849640000000 1.0
C      1  0.4608210000000  0.5317710000000  0.4728560000000 1.0
C      1  0.4705810000000  0.4692810000000  0.5298380000000 1.0
C      1  0.5346610000000  0.5450830000000  0.4934370000000 1.0
C      1  0.5452160000000  0.4549380000000  0.5135300000000 1.0
C      1  0.5589640000000  0.5166870000000  0.5300290000000 1.0
C      1  0.5371710000000  0.4721510000000  0.4770090000000 1.0
C      1  0.5884760000000  0.4495850000000  0.5283420000000 1.0
C      1  0.5841710000000  0.5251220000000  0.4870150000000 1.0
C      1  0.5714840000000  0.4878220000000  0.4496590000000 1.0
C      1  0.6006150000000  0.4969880000000  0.5407750000000 1.0
C      1  0.5509820000000  0.4508310000000  0.4644450000000 1.0
C      1  0.5707710000000  0.5415120000000  0.5366480000000 1.0
C      1  0.5590580000000  0.4344770000000  0.4996240000000 1.0
C      1  0.5506570000000  0.5694680000000  0.5040760000000 1.0
C      1  0.4740300000000  0.4188560000000  0.5284620000000 1.0
C      1  0.4417790000000  0.5774500000000  0.4612690000000 1.0
C      1  0.4495990000000  0.4208460000000  0.4797260000000 1.0
C      1  0.4357140000000  0.5841990000000  0.5141260000000 1.0
C      1  0.3618150000000  0.5079380000000  0.5137510000000 1.0
C      1  0.3943630000000  0.5194070000000  0.4671560000000 1.0
C      1  0.4012170000000  0.4751280000000  0.4920130000000 1.0
C      1  0.3892100000000  0.5234770000000  0.5156530000000 1.0
C      1  0.5649500000000  0.4666250000000  0.5306690000000 1.0
C      1  0.5561910000000  0.5217520000000  0.4810510000000 1.0
C      1  0.5516550000000  0.4958070000000  0.4690330000000 1.0
C      1  0.5723470000000  0.4934170000000  0.5371420000000 1.0
C      1  0.4368940000000  0.5507010000000  0.4754490000000 1.0
C      1  0.4551530000000  0.4429230000000  0.5254600000000 1.0
C      1  0.4345840000000  0.5545160000000  0.5064630000000 1.0
C      1  0.4481080000000  0.4473170000000  0.4952310000000 1.0
C      1  0.4458430000000  0.5997100000000  0.4494690000000 1.0
C      1  0.4897040000000  0.3988720000000  0.5309540000000 1.0
C      1  0.4366530000000  0.6088910000000  0.5205000000000 1.0
C      1  0.4508370000000  0.3988520000000  0.4668430000000 1.0
C      1  0.4116680000000  0.5366670000000  0.4643800000000 1.0
C      1  0.4322440000000  0.4406120000000  0.5418680000000 1.0
C      1  0.4085020000000  0.5413010000000  0.5169250000000 1.0
C      1  0.4199030000000  0.4597410000000  0.4930790000000 1.0
C      1  0.4745110000000  0.5129490000000  0.5642000000000 1.0
C      1  0.4919060000000  0.4987010000000  0.4463140000000 1.0
C      1  0.5060300000000  0.4323880000000  0.4926440000000 1.0
C      1  0.4991520000000  0.5751050000000  0.4748160000000 1.0
C      1  0.5160390000000  0.5092170000000  0.4568490000000 1.0
C      1  0.5023980000000  0.5175740000000  0.5610680000000 1.0
C      1  0.5354970000000  0.5179310000000  0.4399030000000 1.0
C      1  0.5185440000000  0.5243360000000  0.5817820000000 1.0
C      1  0.5821330000000  0.4444950000000  0.4766340000000 1.0
C      1  0.5676940000000  0.5662170000000  0.5252150000000 1.0
C      1  0.4977440000000  0.4090630000000  0.4864380000000 1.0
C      1  0.4933890000000  0.5974430000000  0.4623830000000 1.0
C      1  0.5179330000000  0.5105610000000  0.4842790000000 1.0
C      1  0.5102260000000  0.5149690000000  0.5350510000000 1.0
C      1  0.6195730000000  0.4720660000000  0.4987000000000 1.0
C      1  0.6140960000000  0.4841220000000  0.4709240000000 1.0
C      1  0.5050470000000  0.5522580000000  0.4875330000000 1.0
C      1  0.5162200000000  0.4610740000000  0.5002770000000 1.0
C      1  0.4819120000000  0.5330530000000  0.4962890000000 1.0
C      1  0.4901130000000  0.4768160000000  0.5064440000000 1.0
C      1  0.4961340000000  0.5064920000000  0.5073000000000 1.0
C      1  0.3858670000000  0.5011450000000  0.4906250000000 1.0
C      1  0.5336900000000  0.5183080000000  0.5137510000000 1.0
END
