TITL C-2782226-7400-296 -0.000431251958463345 125000 -405.16107860127 0 0 73 (C1) n - 1
REM
REM in /home/nfs/bkarasulu/CARBON/AIRSS/Generating-Clusters/REBO/Higher-Symm/SD-CG/HFTN-CG
REM
REM
REM
REM
REM
REM ./C.cell (12c818d87b63d06a65506943cc24bca4)
REM
REM compiler GCC version 9.2.1 20190827 (Red Hat 9.2.1-1)
REM options -cpp -mtune=generic -march=x86-64 -g -O0 -fpre-include=/usr/include/finclude/math-vector-fortran.h
REM seed -444721867 -1415735191 -36131026 2006551782 698481950 1722811342 1555049650 -1195969017 -824166246 -781133331 -1185660059 -138379372 -1912417947 -1833441366 1030210281 -182681830 -1740362125 -1676516569 1598613316 166594111 959731325 1648196163 -1391320854 -88132120 1843528670 381295831 487335670 -22636984 1862182338 148720704 449079337 1964226343 -386299512
REM
CELL 1.54180   50.00000   50.00000   50.00000   90.00000   90.00000   90.00000
LATT -1
SFAC C  
C      1  0.5519080000000  0.4671440000000  0.4752480000000 1.0
C      1  0.4944490000000  0.5864650000000  0.4610550000000 1.0
C      1  0.4403600000000  0.5361060000000  0.5236040000000 1.0
C      1  0.4505240000000  0.4874390000000  0.5707550000000 1.0
C      1  0.4627590000000  0.4669160000000  0.4506890000000 1.0
C      1  0.4973970000000  0.4215950000000  0.5301680000000 1.0
C      1  0.4987590000000  0.5083700000000  0.5779720000000 1.0
C      1  0.5172360000000  0.5272390000000  0.5006680000000 1.0
C      1  0.5490050000000  0.5171000000000  0.4946190000000 1.0
C      1  0.4491140000000  0.4393090000000  0.5218990000000 1.0
C      1  0.5733870000000  0.4841970000000  0.5461540000000 1.0
C      1  0.5601100000000  0.4794090000000  0.4475290000000 1.0
C      1  0.4522660000000  0.5156020000000  0.5681330000000 1.0
C      1  0.4358080000000  0.4839560000000  0.5227820000000 1.0
C      1  0.5499880000000  0.4864660000000  0.4988860000000 1.0
C      1  0.4770110000000  0.4401000000000  0.4738480000000 1.0
C      1  0.5176140000000  0.4856190000000  0.5737170000000 1.0
C      1  0.5134410000000  0.5183270000000  0.4289000000000 1.0
C      1  0.4677570000000  0.4986220000000  0.4816130000000 1.0
C      1  0.5441100000000  0.5057470000000  0.4442410000000 1.0
C      1  0.5352390000000  0.4455180000000  0.5474450000000 1.0
C      1  0.5615510000000  0.5294490000000  0.4363930000000 1.0
C      1  0.4253650000000  0.4558650000000  0.5626560000000 1.0
C      1  0.4736650000000  0.4114340000000  0.4651360000000 1.0
C      1  0.5272600000000  0.4721540000000  0.5187810000000 1.0
C      1  0.5187990000000  0.5070810000000  0.4666250000000 1.0
C      1  0.4967950000000  0.5603910000000  0.5266620000000 1.0
C      1  0.4649380000000  0.4653520000000  0.5641060000000 1.0
C      1  0.5194270000000  0.5494460000000  0.4380930000000 1.0
C      1  0.5132330000000  0.4416830000000  0.5143950000000 1.0
C      1  0.5820270000000  0.5014600000000  0.4561740000000 1.0
C      1  0.4489380000000  0.5361980000000  0.4765230000000 1.0
C      1  0.4778910000000  0.5676160000000  0.5034640000000 1.0
C      1  0.4305990000000  0.5316780000000  0.5649920000000 1.0
C      1  0.5134200000000  0.5406280000000  0.4692670000000 1.0
C      1  0.4356110000000  0.4826280000000  0.4645090000000 1.0
C      1  0.4872990000000  0.4715200000000  0.5199020000000 1.0
C      1  0.4865980000000  0.5463550000000  0.5489630000000 1.0
C      1  0.5604750000000  0.4674910000000  0.5245430000000 1.0
C      1  0.5431940000000  0.4543430000000  0.4377610000000 1.0
C      1  0.5002680000000  0.4897120000000  0.4441440000000 1.0
C      1  0.5112510000000  0.4922650000000  0.5349610000000 1.0
C      1  0.4875470000000  0.4591380000000  0.5484780000000 1.0
C      1  0.5381630000000  0.4410230000000  0.4833450000000 1.0
C      1  0.5489950000000  0.5509830000000  0.5037590000000 1.0
C      1  0.4818430000000  0.5174870000000  0.4359710000000 1.0
C      1  0.4302000000000  0.5155110000000  0.4701230000000 1.0
C      1  0.4745670000000  0.5356260000000  0.4608320000000 1.0
C      1  0.4880960000000  0.5044020000000  0.5155070000000 1.0
C      1  0.4330940000000  0.5107240000000  0.5299600000000 1.0
C      1  0.4958070000000  0.4590030000000  0.4526550000000 1.0
C      1  0.5036740000000  0.5694670000000  0.4266730000000 1.0
C      1  0.5216630000000  0.5304290000000  0.5342890000000 1.0
C      1  0.4966570000000  0.4575870000000  0.4924830000000 1.0
C      1  0.4687840000000  0.5946030000000  0.5065820000000 1.0
C      1  0.4990740000000  0.4894790000000  0.4861880000000 1.0
C      1  0.5464830000000  0.4375420000000  0.5161570000000 1.0
C      1  0.4943200000000  0.5650900000000  0.4771440000000 1.0
C      1  0.4606420000000  0.5000200000000  0.4494810000000 1.0
C      1  0.4579030000000  0.4491250000000  0.4975270000000 1.0
C      1  0.4843980000000  0.5261350000000  0.4919150000000 1.0
C      1  0.4792280000000  0.5254210000000  0.5664830000000 1.0
C      1  0.5497720000000  0.5516840000000  0.4338340000000 1.0
C      1  0.5312900000000  0.5089110000000  0.5547550000000 1.0
C      1  0.5721630000000  0.5482710000000  0.4853860000000 1.0
C      1  0.4475500000000  0.4778970000000  0.4950690000000 1.0
C      1  0.5616990000000  0.5040910000000  0.5561420000000 1.0
C      1  0.5139900000000  0.4603680000000  0.5603710000000 1.0
C      1  0.4354020000000  0.4594180000000  0.5378030000000 1.0
C      1  0.5750430000000  0.5212250000000  0.4731350000000 1.0
C      1  0.5278690000000  0.5591400000000  0.5218940000000 1.0
C      1  0.5242610000000  0.4455920000000  0.4561550000000 1.0
C      1  0.4529760000000  0.5486120000000  0.5019310000000 1.0
END
