TITL C-2782237-5345-224 0.000578000252943797 125000 -331.366691034925 0 0 60 (C1) n - 1
REM
REM in /home/nfs/bkarasulu/CARBON/AIRSS/Generating-Clusters/REBO/Higher-Symm/SD-CG/HFTN-CG
REM
REM
REM
REM
REM
REM ./C.cell (12c818d87b63d06a65506943cc24bca4)
REM
REM compiler GCC version 9.2.1 20190827 (Red Hat 9.2.1-1)
REM options -cpp -mtune=generic -march=x86-64 -g -O0 -fpre-include=/usr/include/finclude/math-vector-fortran.h
REM seed -1703507335 52196139 780483037 193822680 -467159888 -5643857 1245602373 1061458420 502885533 714444102 -1149088781 -755164667 477106162 460101365 1999410027 -305836711 -929204460 -1179894458 -1682273421 -1905157927 -378586394 134117724 1515085657 1905584341 -91438133 -938853259 62178179 -1880866285 -693884492 1942077580 76602545 877209415 1548338057
REM
CELL 1.54180   50.00000   50.00000   50.00000   90.00000   90.00000   90.00000
LATT -1
SFAC C  
C      1  0.5367170000000  0.5271970000000  0.5332370000000 1.0
C      1  0.5388740000000  0.5047970000000  0.5185670000000 1.0
C      1  0.5298370000000  0.4838210000000  0.5044310000000 1.0
C      1  0.5099450000000  0.4678380000000  0.4931590000000 1.0
C      1  0.4834960000000  0.4724730000000  0.5009460000000 1.0
C      1  0.4633610000000  0.4859960000000  0.5124370000000 1.0
C      1  0.4523180000000  0.5059750000000  0.5266160000000 1.0
C      1  0.4545080000000  0.5286940000000  0.5409270000000 1.0
C      1  0.4712310000000  0.5472840000000  0.5511360000000 1.0
C      1  0.4973450000000  0.5540330000000  0.5531130000000 1.0
C      1  0.5221020000000  0.5458180000000  0.5460860000000 1.0
C      1  0.4175200000000  0.5002490000000  0.5744530000000 1.0
C      1  0.4523060000000  0.5289670000000  0.6098790000000 1.0
C      1  0.4946130000000  0.5141530000000  0.5517420000000 1.0
C      1  0.4963400000000  0.5511100000000  0.6152840000000 1.0
C      1  0.5464780000000  0.5645640000000  0.5913460000000 1.0
C      1  0.5687720000000  0.5240180000000  0.5569460000000 1.0
C      1  0.5165450000000  0.4904720000000  0.5961290000000 1.0
C      1  0.5516810000000  0.4708010000000  0.5353000000000 1.0
C      1  0.5004300000000  0.4472320000000  0.5269380000000 1.0
C      1  0.4921230000000  0.4785890000000  0.5924890000000 1.0
C      1  0.4442000000000  0.4631470000000  0.5390930000000 1.0
C      1  0.4799560000000  0.5278300000000  0.3927450000000 1.0
C      1  0.4951880000000  0.5645220000000  0.4317370000000 1.0
C      1  0.5302050000000  0.5550700000000  0.4677110000000 1.0
C      1  0.5538710000000  0.5095190000000  0.4818160000000 1.0
C      1  0.5433000000000  0.4886090000000  0.4155510000000 1.0
C      1  0.5597800000000  0.4414830000000  0.4475410000000 1.0
C      1  0.5203900000000  0.4221590000000  0.4795720000000 1.0
C      1  0.4975650000000  0.4579170000000  0.4251670000000 1.0
C      1  0.4539010000000  0.4510040000000  0.4833710000000 1.0
C      1  0.4560890000000  0.5083990000000  0.4741350000000 1.0
C      1  0.4556250000000  0.4823080000000  0.4084230000000 1.0
C      1  0.4634150000000  0.4900440000000  0.4553280000000 1.0
C      1  0.4669440000000  0.4980660000000  0.4277650000000 1.0
C      1  0.4826940000000  0.5205870000000  0.4191220000000 1.0
C      1  0.5004640000000  0.5375180000000  0.4351680000000 1.0
C      1  0.5228330000000  0.5327500000000  0.4531690000000 1.0
C      1  0.5387220000000  0.5093340000000  0.4590210000000 1.0
C      1  0.5395790000000  0.4856870000000  0.4424880000000 1.0
C      1  0.5394220000000  0.4592960000000  0.4538200000000 1.0
C      1  0.5155420000000  0.4485060000000  0.4702100000000 1.0
C      1  0.4909790000000  0.4497070000000  0.4515730000000 1.0
C      1  0.4678950000000  0.4624110000000  0.4629930000000 1.0
C      1  0.4839350000000  0.4708670000000  0.5663740000000 1.0
C      1  0.4570740000000  0.4765900000000  0.5589070000000 1.0
C      1  0.4446300000000  0.4977530000000  0.5735410000000 1.0
C      1  0.4616430000000  0.5160930000000  0.5877070000000 1.0
C      1  0.4879510000000  0.5216850000000  0.5778890000000 1.0
C      1  0.5057530000000  0.5379610000000  0.5932790000000 1.0
C      1  0.5331430000000  0.5415790000000  0.5853200000000 1.0
C      1  0.5461120000000  0.5202150000000  0.5714850000000 1.0
C      1  0.5334440000000  0.4948210000000  0.5736900000000 1.0
C      1  0.5308910000000  0.4758330000000  0.5521570000000 1.0
C      1  0.5050540000000  0.4636610000000  0.5481630000000 1.0
C      1  0.4993630000000  0.5091320000000  0.4988900000000 1.0
C      1  0.4978060000000  0.5110760000000  0.5254350000000 1.0
C      1  0.5043500000000  0.4846110000000  0.4235810000000 1.0
C      1  0.5004190000000  0.5058230000000  0.4724510000000 1.0
C      1  0.5021610000000  0.4991720000000  0.4466240000000 1.0
END
