TITL C-2782226-7400-437 0.00717938968357021 125000 -968.783320741676 0 0 168 (C1) n - 1
REM
REM in /home/nfs/bkarasulu/CARBON/AIRSS/Generating-Clusters/REBO/Higher-Symm/SD-CG/HFTN-CG
REM
REM
REM
REM
REM
REM ./C.cell (12c818d87b63d06a65506943cc24bca4)
REM
REM compiler GCC version 9.2.1 20190827 (Red Hat 9.2.1-1)
REM options -cpp -mtune=generic -march=x86-64 -g -O0 -fpre-include=/usr/include/finclude/math-vector-fortran.h
REM seed -1225505589 193752763 -1975607821 -1468884442 -584802964 1299246863 -1446890608 1701469439 1245151710 1787121817 -652928236 -853527612 -450072085 1902757753 -1723410851 -1793478450 -184930971 1151990851 -1949241620 -694374541 2041440552 1391093963 460116240 -1305976004 -436584059 1845849628 -1213909524 1378654467 431612360 -1760119650 361641210 2059631649 -41705559
REM
CELL 1.54180   50.00000   50.00000   50.00000   90.00000   90.00000   90.00000
LATT -1
SFAC C  
C      1  0.5371910000000  0.4197590000000  0.5713250000000 1.0
C      1  0.5381610000000  0.5665770000000  0.5689430000000 1.0
C      1  0.4375890000000  0.4714380000000  0.3939880000000 1.0
C      1  0.4344290000000  0.5300180000000  0.4002330000000 1.0
C      1  0.5806260000000  0.5332160000000  0.5302230000000 1.0
C      1  0.5773850000000  0.4738710000000  0.5252540000000 1.0
C      1  0.5134210000000  0.5747250000000  0.5146670000000 1.0
C      1  0.5044940000000  0.4226670000000  0.5162320000000 1.0
C      1  0.4400460000000  0.5417130000000  0.4971060000000 1.0
C      1  0.4460030000000  0.4585630000000  0.5058840000000 1.0
C      1  0.4692070000000  0.5306640000000  0.4879010000000 1.0
C      1  0.4781200000000  0.4680110000000  0.4992480000000 1.0
C      1  0.5636980000000  0.5732000000000  0.5469320000000 1.0
C      1  0.5591960000000  0.4107050000000  0.5463130000000 1.0
C      1  0.4198740000000  0.5409690000000  0.5313560000000 1.0
C      1  0.4156760000000  0.4539280000000  0.5312660000000 1.0
C      1  0.5280330000000  0.4153040000000  0.5330820000000 1.0
C      1  0.5354010000000  0.5839650000000  0.5332760000000 1.0
C      1  0.4646350000000  0.5412150000000  0.4021340000000 1.0
C      1  0.4682940000000  0.4615200000000  0.3990410000000 1.0
C      1  0.5557740000000  0.4150580000000  0.5134920000000 1.0
C      1  0.5625680000000  0.5816850000000  0.5139200000000 1.0
C      1  0.4942950000000  0.4535950000000  0.4039550000000 1.0
C      1  0.4911860000000  0.5477790000000  0.4039340000000 1.0
C      1  0.4518150000000  0.4191390000000  0.5474190000000 1.0
C      1  0.4582370000000  0.5787000000000  0.5374540000000 1.0
C      1  0.5752870000000  0.4669890000000  0.4520350000000 1.0
C      1  0.5743420000000  0.5344290000000  0.4490450000000 1.0
C      1  0.4728630000000  0.6016430000000  0.5167270000000 1.0
C      1  0.4641920000000  0.4023140000000  0.5204400000000 1.0
C      1  0.5151520000000  0.4676690000000  0.4263760000000 1.0
C      1  0.5150160000000  0.5335570000000  0.4224210000000 1.0
C      1  0.4035010000000  0.5290400000000  0.5052790000000 1.0
C      1  0.4104890000000  0.4748250000000  0.5139300000000 1.0
C      1  0.5519110000000  0.4749450000000  0.4946240000000 1.0
C      1  0.5526660000000  0.5394540000000  0.4949610000000 1.0
C      1  0.5048180000000  0.5473110000000  0.4963650000000 1.0
C      1  0.5033980000000  0.4475730000000  0.4973990000000 1.0
C      1  0.4983580000000  0.5999530000000  0.5043580000000 1.0
C      1  0.4926630000000  0.3963980000000  0.5022640000000 1.0
C      1  0.5016660000000  0.4728630000000  0.5600630000000 1.0
C      1  0.4998130000000  0.5321430000000  0.5622900000000 1.0
C      1  0.4820030000000  0.4238080000000  0.4409580000000 1.0
C      1  0.4849370000000  0.5801190000000  0.4405800000000 1.0
C      1  0.4401790000000  0.4077560000000  0.4966880000000 1.0
C      1  0.4492810000000  0.5904790000000  0.5005350000000 1.0
C      1  0.4734220000000  0.5316450000000  0.5412450000000 1.0
C      1  0.4843010000000  0.4710780000000  0.5325510000000 1.0
C      1  0.4455590000000  0.4547180000000  0.4203330000000 1.0
C      1  0.4438280000000  0.5500380000000  0.4244640000000 1.0
C      1  0.5667320000000  0.4366650000000  0.4662300000000 1.0
C      1  0.5701980000000  0.5656180000000  0.4634580000000 1.0
C      1  0.4750800000000  0.5490070000000  0.5771820000000 1.0
C      1  0.4777660000000  0.4565190000000  0.5722710000000 1.0
C      1  0.4527330000000  0.4407440000000  0.4451720000000 1.0
C      1  0.4541760000000  0.5685670000000  0.4479820000000 1.0
C      1  0.4664870000000  0.4713820000000  0.5995550000000 1.0
C      1  0.4698380000000  0.5243770000000  0.5985390000000 1.0
C      1  0.4679640000000  0.5806120000000  0.4765270000000 1.0
C      1  0.4552890000000  0.4187190000000  0.4695100000000 1.0
C      1  0.4471440000000  0.5480710000000  0.5486020000000 1.0
C      1  0.4321580000000  0.4456530000000  0.5559820000000 1.0
C      1  0.5017010000000  0.4303970000000  0.4219720000000 1.0
C      1  0.5017100000000  0.5711090000000  0.4196660000000 1.0
C      1  0.5726800000000  0.4356410000000  0.5630820000000 1.0
C      1  0.5697110000000  0.5439380000000  0.5606640000000 1.0
C      1  0.5472280000000  0.5422710000000  0.5277630000000 1.0
C      1  0.5472020000000  0.4681380000000  0.5258840000000 1.0
C      1  0.5451220000000  0.4575450000000  0.4391770000000 1.0
C      1  0.5454400000000  0.5440240000000  0.4337150000000 1.0
C      1  0.5824820000000  0.5325930000000  0.4817940000000 1.0
C      1  0.5825110000000  0.4819650000000  0.4817320000000 1.0
C      1  0.5831560000000  0.5652310000000  0.4941900000000 1.0
C      1  0.5772990000000  0.4326440000000  0.4971410000000 1.0
C      1  0.4354100000000  0.5663380000000  0.5153370000000 1.0
C      1  0.4358590000000  0.4304800000000  0.5195930000000 1.0
C      1  0.5151400000000  0.4480160000000  0.4726650000000 1.0
C      1  0.5128250000000  0.5501010000000  0.4684790000000 1.0
C      1  0.4463820000000  0.5297990000000  0.5761630000000 1.0
C      1  0.4451530000000  0.4677640000000  0.5733010000000 1.0
C      1  0.5491820000000  0.5409620000000  0.5866780000000 1.0
C      1  0.5476080000000  0.4490770000000  0.5728120000000 1.0
C      1  0.5226900000000  0.5482260000000  0.5461540000000 1.0
C      1  0.5336980000000  0.4674560000000  0.5537640000000 1.0
C      1  0.5499600000000  0.5846790000000  0.4833550000000 1.0
C      1  0.5436280000000  0.4174530000000  0.4828730000000 1.0
C      1  0.4692860000000  0.4275980000000  0.4982190000000 1.0
C      1  0.4751380000000  0.5601460000000  0.5022730000000 1.0
C      1  0.4704270000000  0.5331120000000  0.4559860000000 1.0
C      1  0.4737180000000  0.4685720000000  0.4651350000000 1.0
C      1  0.4885810000000  0.4092480000000  0.4672050000000 1.0
C      1  0.4973850000000  0.5910820000000  0.4654920000000 1.0
C      1  0.5085370000000  0.4161460000000  0.5610940000000 1.0
C      1  0.5121040000000  0.5847580000000  0.5581500000000 1.0
C      1  0.5298390000000  0.4305460000000  0.4278860000000 1.0
C      1  0.5303190000000  0.5704660000000  0.4212480000000 1.0
C      1  0.4384340000000  0.5426090000000  0.4633940000000 1.0
C      1  0.4425320000000  0.4583490000000  0.4725220000000 1.0
C      1  0.4807420000000  0.4285990000000  0.5588290000000 1.0
C      1  0.4816760000000  0.5748890000000  0.5600000000000 1.0
C      1  0.5900290000000  0.4533690000000  0.5101660000000 1.0
C      1  0.5980330000000  0.5488820000000  0.5146800000000 1.0
C      1  0.5169760000000  0.4081440000000  0.4812120000000 1.0
C      1  0.5228140000000  0.5942890000000  0.4812720000000 1.0
C      1  0.5426140000000  0.4572160000000  0.4724290000000 1.0
C      1  0.5416000000000  0.5498010000000  0.4658340000000 1.0
C      1  0.4162280000000  0.4754980000000  0.4852660000000 1.0
C      1  0.4092890000000  0.5292460000000  0.4748670000000 1.0
C      1  0.4974300000000  0.5427700000000  0.4475660000000 1.0
C      1  0.4989330000000  0.4581400000000  0.4522290000000 1.0
C      1  0.4917700000000  0.5575020000000  0.5325590000000 1.0
C      1  0.4793110000000  0.4403890000000  0.5281430000000 1.0
C      1  0.6414420000000  0.5028860000000  0.4873070000000 1.0
C      1  0.6349740000000  0.5014370000000  0.4607120000000 1.0
C      1  0.4066120000000  0.5038030000000  0.5254170000000 1.0
C      1  0.5722410000000  0.5016620000000  0.5993320000000 1.0
C      1  0.5474170000000  0.5162570000000  0.6000070000000 1.0
C      1  0.5040910000000  0.5042730000000  0.4717960000000 1.0
C      1  0.5241230000000  0.5017840000000  0.4523350000000 1.0
C      1  0.3703980000000  0.4929510000000  0.4941120000000 1.0
C      1  0.4756310000000  0.5022370000000  0.4995300000000 1.0
C      1  0.5037120000000  0.4991060000000  0.6250030000000 1.0
C      1  0.4415130000000  0.5008840000000  0.4660720000000 1.0
C      1  0.5174850000000  0.5080520000000  0.5274550000000 1.0
C      1  0.5201550000000  0.5056240000000  0.6032460000000 1.0
C      1  0.6200970000000  0.5045810000000  0.5061590000000 1.0
C      1  0.5121950000000  0.5002720000000  0.4212740000000 1.0
C      1  0.5052020000000  0.5037070000000  0.5753100000000 1.0
C      1  0.4236950000000  0.4998390000000  0.3998840000000 1.0
C      1  0.4367260000000  0.5085040000000  0.4942770000000 1.0
C      1  0.5763240000000  0.4990790000000  0.4097300000000 1.0
C      1  0.5581990000000  0.5128460000000  0.5552990000000 1.0
C      1  0.5959080000000  0.4972740000000  0.5857790000000 1.0
C      1  0.3977410000000  0.4986740000000  0.4741530000000 1.0
C      1  0.6136960000000  0.5008090000000  0.4435080000000 1.0
C      1  0.3793700000000  0.4918840000000  0.5520060000000 1.0
C      1  0.4408580000000  0.4997540000000  0.6105010000000 1.0
C      1  0.5530410000000  0.5070340000000  0.4905600000000 1.0
C      1  0.6235960000000  0.5013360000000  0.5344170000000 1.0
C      1  0.4034260000000  0.4965700000000  0.4263200000000 1.0
C      1  0.4533120000000  0.4994130000000  0.4173410000000 1.0
C      1  0.5571270000000  0.4982260000000  0.3914790000000 1.0
C      1  0.4885110000000  0.5030080000000  0.5373240000000 1.0
C      1  0.3976650000000  0.4936780000000  0.5724010000000 1.0
C      1  0.5043130000000  0.5172500000000  0.5014170000000 1.0
C      1  0.4311710000000  0.4990810000000  0.4389580000000 1.0
C      1  0.5946180000000  0.5063710000000  0.4917470000000 1.0
C      1  0.4573070000000  0.4959750000000  0.5481440000000 1.0
C      1  0.5398010000000  0.4969660000000  0.3638840000000 1.0
C      1  0.5491290000000  0.5100950000000  0.5217020000000 1.0
C      1  0.4287370000000  0.5113320000000  0.5455390000000 1.0
C      1  0.5251990000000  0.4985030000000  0.3925670000000 1.0
C      1  0.4744210000000  0.5001380000000  0.4594800000000 1.0
C      1  0.3601450000000  0.4902850000000  0.4647650000000 1.0
C      1  0.5793420000000  0.5005620000000  0.4437940000000 1.0
C      1  0.5501600000000  0.5021020000000  0.4606250000000 1.0
C      1  0.4493420000000  0.4893750000000  0.5167680000000 1.0
C      1  0.5839310000000  0.5002740000000  0.5383240000000 1.0
C      1  0.4792730000000  0.4991240000000  0.4270390000000 1.0
C      1  0.6061940000000  0.4994700000000  0.4142720000000 1.0
C      1  0.4742270000000  0.4981500000000  0.6176660000000 1.0
C      1  0.5313040000000  0.4990770000000  0.5554770000000 1.0
C      1  0.5119710000000  0.4955300000000  0.6510660000000 1.0
C      1  0.3840430000000  0.4936890000000  0.4450500000000 1.0
C      1  0.4309310000000  0.4986770000000  0.5779090000000 1.0
C      1  0.6069640000000  0.4976930000000  0.5597390000000 1.0
C      1  0.4716740000000  0.4972190000000  0.5779020000000 1.0
C      1  0.3757090000000  0.4929920000000  0.5213190000000 1.0
END
