TITL C-2782240-8521-705 0.00107540383393046 125000 -875.708781960848 0 0 152 (C1) n - 1
REM
REM in /home/nfs/bkarasulu/CARBON/AIRSS/Generating-Clusters/REBO/Higher-Symm/SD-CG/HFTN-CG
REM
REM
REM
REM
REM
REM ./C.cell (12c818d87b63d06a65506943cc24bca4)
REM
REM compiler GCC version 9.2.1 20190827 (Red Hat 9.2.1-1)
REM options -cpp -mtune=generic -march=x86-64 -g -O0 -fpre-include=/usr/include/finclude/math-vector-fortran.h
REM seed -1416261210 -29705409 -52879147 1429316861 526686052 -1940943525 1812930413 577111884 -1929093423 1646100794 1350203076 -423620684 -9535970 -1978826645 1420523129 -1700217648 -227506033 1054980007 1872999668 924773217 -1639532146 273463560 -309261803 615071776 470539265 -1017470303 1589758787 614462058 -1797890192 -1264731745 680417580 -1462582189 491458531
REM
CELL 1.54180   50.00000   50.00000   50.00000   90.00000   90.00000   90.00000
LATT -1
SFAC C  
C      1  0.4577190000000  0.5044360000000  0.4924630000000 1.0
C      1  0.4691160000000  0.4757650000000  0.4897110000000 1.0
C      1  0.5000070000000  0.4629990000000  0.4938280000000 1.0
C      1  0.5282070000000  0.4802360000000  0.5021740000000 1.0
C      1  0.5300540000000  0.5114840000000  0.4919240000000 1.0
C      1  0.5091380000000  0.5374260000000  0.4920700000000 1.0
C      1  0.4775480000000  0.5302520000000  0.4934090000000 1.0
C      1  0.4020060000000  0.5313890000000  0.5035940000000 1.0
C      1  0.4370920000000  0.4420980000000  0.5067890000000 1.0
C      1  0.5169310000000  0.3977360000000  0.4887330000000 1.0
C      1  0.5655620000000  0.4586580000000  0.5234170000000 1.0
C      1  0.5810310000000  0.5206470000000  0.5099300000000 1.0
C      1  0.5415200000000  0.5726460000000  0.5040300000000 1.0
C      1  0.4741550000000  0.5763310000000  0.5007480000000 1.0
C      1  0.5913780000000  0.5736140000000  0.4742380000000 1.0
C      1  0.4734230000000  0.6126660000000  0.4685020000000 1.0
C      1  0.4006060000000  0.5696300000000  0.4722220000000 1.0
C      1  0.3328530000000  0.5400020000000  0.4803690000000 1.0
C      1  0.4647920000000  0.3950310000000  0.4681750000000 1.0
C      1  0.5750430000000  0.4059350000000  0.4794620000000 1.0
C      1  0.6092960000000  0.4789180000000  0.4886360000000 1.0
C      1  0.5074250000000  0.5749190000000  0.5064630000000 1.0
C      1  0.4309470000000  0.5377960000000  0.5060010000000 1.0
C      1  0.4234800000000  0.4671070000000  0.5069370000000 1.0
C      1  0.4695120000000  0.4318860000000  0.5089150000000 1.0
C      1  0.5446140000000  0.4402250000000  0.5156100000000 1.0
C      1  0.5756970000000  0.4868020000000  0.5088200000000 1.0
C      1  0.5594410000000  0.5465340000000  0.5166250000000 1.0
C      1  0.3889380000000  0.5395660000000  0.4772540000000 1.0
C      1  0.4246870000000  0.4230330000000  0.4495480000000 1.0
C      1  0.4954600000000  0.4063090000000  0.4680670000000 1.0
C      1  0.5904240000000  0.4295340000000  0.4734060000000 1.0
C      1  0.6011660000000  0.5104360000000  0.4843000000000 1.0
C      1  0.5576110000000  0.5782840000000  0.4745840000000 1.0
C      1  0.4587520000000  0.5866430000000  0.4761110000000 1.0
C      1  0.5337710000000  0.4420800000000  0.5702140000000 1.0
C      1  0.5622980000000  0.4915820000000  0.5601010000000 1.0
C      1  0.5400900000000  0.5510290000000  0.5628150000000 1.0
C      1  0.4847240000000  0.5596040000000  0.5627930000000 1.0
C      1  0.4305260000000  0.5183400000000  0.5621590000000 1.0
C      1  0.4288220000000  0.4711560000000  0.5581630000000 1.0
C      1  0.4813690000000  0.4207480000000  0.5553780000000 1.0
C      1  0.4268620000000  0.5606780000000  0.4392990000000 1.0
C      1  0.4033360000000  0.4919180000000  0.4567000000000 1.0
C      1  0.4519300000000  0.4343090000000  0.4127540000000 1.0
C      1  0.5322780000000  0.4141620000000  0.4322860000000 1.0
C      1  0.5864360000000  0.4708910000000  0.4561950000000 1.0
C      1  0.5847920000000  0.5396570000000  0.4421270000000 1.0
C      1  0.5134580000000  0.5865400000000  0.4437150000000 1.0
C      1  0.4115950000000  0.5370210000000  0.4336500000000 1.0
C      1  0.4207120000000  0.4740890000000  0.4334560000000 1.0
C      1  0.4843020000000  0.4329250000000  0.4233750000000 1.0
C      1  0.5564990000000  0.4380260000000  0.4329010000000 1.0
C      1  0.5895690000000  0.4929370000000  0.4384120000000 1.0
C      1  0.5561710000000  0.5518160000000  0.4304780000000 1.0
C      1  0.4853290000000  0.5706420000000  0.4328910000000 1.0
C      1  0.4835450000000  0.5701710000000  0.5868680000000 1.0
C      1  0.4176130000000  0.5157650000000  0.5849820000000 1.0
C      1  0.4135750000000  0.4698120000000  0.5810290000000 1.0
C      1  0.4709290000000  0.4405760000000  0.5657580000000 1.0
C      1  0.5310210000000  0.4288650000000  0.5942420000000 1.0
C      1  0.5617860000000  0.4722000000000  0.5780480000000 1.0
C      1  0.5385080000000  0.5297960000000  0.5860690000000 1.0
C      1  0.5494470000000  0.5210400000000  0.4424580000000 1.0
C      1  0.5065650000000  0.5478450000000  0.4392560000000 1.0
C      1  0.4518220000000  0.5326030000000  0.4256750000000 1.0
C      1  0.4351030000000  0.5048980000000  0.4365340000000 1.0
C      1  0.4692590000000  0.4560560000000  0.4412350000000 1.0
C      1  0.5280460000000  0.4518740000000  0.4443280000000 1.0
C      1  0.5378590000000  0.4905650000000  0.4445570000000 1.0
C      1  0.5334260000000  0.5335640000000  0.6784480000000 1.0
C      1  0.5333640000000  0.5062130000000  0.6754630000000 1.0
C      1  0.5345680000000  0.4926180000000  0.6516510000000 1.0
C      1  0.5360710000000  0.5014670000000  0.6258280000000 1.0
C      1  0.5369880000000  0.5268520000000  0.6130760000000 1.0
C      1  0.5361800000000  0.5488930000000  0.6310040000000 1.0
C      1  0.5347040000000  0.5519700000000  0.6581290000000 1.0
C      1  0.5132040000000  0.5328190000000  0.5555510000000 1.0
C      1  0.4797760000000  0.5286880000000  0.5565990000000 1.0
C      1  0.4565530000000  0.5054160000000  0.5557420000000 1.0
C      1  0.4592480000000  0.4695420000000  0.5622210000000 1.0
C      1  0.4900950000000  0.4743530000000  0.5564270000000 1.0
C      1  0.5204130000000  0.4653410000000  0.5623540000000 1.0
C      1  0.5400810000000  0.5115530000000  0.5573620000000 1.0
C      1  0.4593660000000  0.5727080000000  0.5267660000000 1.0
C      1  0.3924700000000  0.5202130000000  0.5290700000000 1.0
C      1  0.4347130000000  0.4123040000000  0.5106380000000 1.0
C      1  0.5113520000000  0.4012060000000  0.5166570000000 1.0
C      1  0.5793120000000  0.4486150000000  0.5477290000000 1.0
C      1  0.5980660000000  0.5245310000000  0.5389510000000 1.0
C      1  0.5356770000000  0.5958350000000  0.5254730000000 1.0
C      1  0.5423870000000  0.5320300000000  0.4707560000000 1.0
C      1  0.5178790000000  0.5541510000000  0.4674040000000 1.0
C      1  0.4499960000000  0.5345270000000  0.4586280000000 1.0
C      1  0.4377500000000  0.5068000000000  0.4697400000000 1.0
C      1  0.4712370000000  0.4539650000000  0.4677810000000 1.0
C      1  0.5227080000000  0.4520570000000  0.4745600000000 1.0
C      1  0.5410360000000  0.4789370000000  0.4715110000000 1.0
C      1  0.4689520000000  0.5262030000000  0.5244330000000 1.0
C      1  0.4563040000000  0.4940590000000  0.5239630000000 1.0
C      1  0.4706750000000  0.4633910000000  0.5208340000000 1.0
C      1  0.5039600000000  0.4600280000000  0.5267280000000 1.0
C      1  0.5301000000000  0.4802560000000  0.5347310000000 1.0
C      1  0.5290700000000  0.5129740000000  0.5251260000000 1.0
C      1  0.5023040000000  0.5348510000000  0.5244320000000 1.0
C      1  0.5369290000000  0.4321090000000  0.4908970000000 1.0
C      1  0.5705020000000  0.4785220000000  0.4793160000000 1.0
C      1  0.5644330000000  0.5466530000000  0.4846910000000 1.0
C      1  0.5158950000000  0.5863610000000  0.4767450000000 1.0
C      1  0.4422220000000  0.5512990000000  0.4844730000000 1.0
C      1  0.4166870000000  0.4842630000000  0.4842390000000 1.0
C      1  0.4789100000000  0.4302430000000  0.4804340000000 1.0
C      1  0.4909910000000  0.5754320000000  0.5366420000000 1.0
C      1  0.4204930000000  0.5350420000000  0.5387870000000 1.0
C      1  0.4150690000000  0.4758150000000  0.5333560000000 1.0
C      1  0.4834780000000  0.4092330000000  0.5266350000000 1.0
C      1  0.5506770000000  0.4304390000000  0.5476860000000 1.0
C      1  0.5868060000000  0.4951820000000  0.5399270000000 1.0
C      1  0.5623920000000  0.5531480000000  0.5464230000000 1.0
C      1  0.5961800000000  0.5167510000000  0.4520590000000 1.0
C      1  0.5437370000000  0.5767000000000  0.4468800000000 1.0
C      1  0.4577110000000  0.5669900000000  0.4510180000000 1.0
C      1  0.3989420000000  0.5211590000000  0.4542240000000 1.0
C      1  0.4298210000000  0.4416120000000  0.4287470000000 1.0
C      1  0.5049770000000  0.4136510000000  0.4392880000000 1.0
C      1  0.5815720000000  0.4429550000000  0.4492280000000 1.0
C      1  0.4553880000000  0.3955710000000  0.5176520000000 1.0
C      1  0.5327020000000  0.4064690000000  0.5332110000000 1.0
C      1  0.5953410000000  0.4689620000000  0.5565310000000 1.0
C      1  0.5885240000000  0.5450750000000  0.5543330000000 1.0
C      1  0.5146270000000  0.5968680000000  0.5390670000000 1.0
C      1  0.4366060000000  0.5630950000000  0.5362820000000 1.0
C      1  0.3919470000000  0.4926190000000  0.5343310000000 1.0
C      1  0.5635140000000  0.4966370000000  0.4233020000000 1.0
C      1  0.5261840000000  0.5438880000000  0.4196910000000 1.0
C      1  0.4652390000000  0.5543680000000  0.4138340000000 1.0
C      1  0.4213020000000  0.5204860000000  0.4093360000000 1.0
C      1  0.4541170000000  0.4731700000000  0.4269810000000 1.0
C      1  0.5052500000000  0.4582760000000  0.4245900000000 1.0
C      1  0.5465140000000  0.4680710000000  0.4204710000000 1.0
C      1  0.6044860000000  0.4515580000000  0.4878970000000 1.0
C      1  0.5964790000000  0.5437720000000  0.4812360000000 1.0
C      1  0.4986770000000  0.6128860000000  0.4696220000000 1.0
C      1  0.4268840000000  0.5757630000000  0.4762970000000 1.0
C      1  0.3583330000000  0.5398040000000  0.4789540000000 1.0
C      1  0.4402730000000  0.4046790000000  0.4623310000000 1.0
C      1  0.5464480000000  0.4051470000000  0.4815590000000 1.0
C      1  0.4953930000000  0.4834880000000  0.4284400000000 1.0
C      1  0.4947860000000  0.5045080000000  0.4792080000000 1.0
C      1  0.4940740000000  0.4974950000000  0.5360620000000 1.0
C      1  0.4933880000000  0.4976580000000  0.4515000000000 1.0
C      1  0.4940160000000  0.4983810000000  0.5108830000000 1.0
END
