TITL C-2782233-7966-1157 -0.00289838269488401 125000 -1101.15175700882 0 0 185 (C1) n - 1
REM
REM in /home/nfs/bkarasulu/CARBON/AIRSS/Generating-Clusters/REBO/Higher-Symm/SD-CG/HFTN-CG
REM
REM
REM
REM
REM
REM ./C.cell (12c818d87b63d06a65506943cc24bca4)
REM
REM compiler GCC version 9.2.1 20190827 (Red Hat 9.2.1-1)
REM options -cpp -mtune=generic -march=x86-64 -g -O0 -fpre-include=/usr/include/finclude/math-vector-fortran.h
REM seed -752892031 875571184 572977848 1124253830 -890698840 -1748039296 116689987 630497518 -524574451 1083605131 1158980296 12693753 615380508 -979045261 -1203148662 2127484576 -415458268 -169814470 -1569850018 1127103140 1760721327 833885524 1174070893 -1314926410 -1806896860 -860209535 -1887292550 -1703552680 -68403525 639697039 -1305429460 -528031503 -1984579653
REM
CELL 1.54180   50.00000   50.00000   50.00000   90.00000   90.00000   90.00000
LATT -1
SFAC C  
C      1  0.5306840000000  0.5257820000000  0.5563200000000 1.0
C      1  0.5356210000000  0.4948530000000  0.5635940000000 1.0
C      1  0.5185730000000  0.4674340000000  0.5672340000000 1.0
C      1  0.4880610000000  0.4701280000000  0.5670680000000 1.0
C      1  0.4704770000000  0.4956240000000  0.5681900000000 1.0
C      1  0.4734760000000  0.5269550000000  0.5603650000000 1.0
C      1  0.5032450000000  0.5368180000000  0.5550040000000 1.0
C      1  0.4481040000000  0.4727060000000  0.4630250000000 1.0
C      1  0.4449980000000  0.5297140000000  0.4587790000000 1.0
C      1  0.4908640000000  0.5668230000000  0.4645410000000 1.0
C      1  0.5406400000000  0.5522700000000  0.4620230000000 1.0
C      1  0.5684160000000  0.4913570000000  0.4624500000000 1.0
C      1  0.5418860000000  0.4500950000000  0.4620420000000 1.0
C      1  0.4823690000000  0.4377040000000  0.4681700000000 1.0
C      1  0.5273660000000  0.5723170000000  0.4192730000000 1.0
C      1  0.5779560000000  0.5170220000000  0.4217270000000 1.0
C      1  0.5682700000000  0.4431500000000  0.4154200000000 1.0
C      1  0.5000110000000  0.4099320000000  0.4151540000000 1.0
C      1  0.4465680000000  0.4476320000000  0.4164820000000 1.0
C      1  0.4125150000000  0.5201940000000  0.4160660000000 1.0
C      1  0.4473000000000  0.5752360000000  0.4155810000000 1.0
C      1  0.4301640000000  0.5735600000000  0.4743020000000 1.0
C      1  0.5114910000000  0.6008840000000  0.4631860000000 1.0
C      1  0.5892180000000  0.5504000000000  0.4740190000000 1.0
C      1  0.6023930000000  0.4515340000000  0.4656300000000 1.0
C      1  0.5225670000000  0.4027190000000  0.4606440000000 1.0
C      1  0.4431040000000  0.4187070000000  0.4701140000000 1.0
C      1  0.4036790000000  0.4966270000000  0.4608870000000 1.0
C      1  0.3878980000000  0.5780470000000  0.5547400000000 1.0
C      1  0.4777960000000  0.6274490000000  0.5445540000000 1.0
C      1  0.6318140000000  0.5621960000000  0.5535820000000 1.0
C      1  0.6346720000000  0.4577910000000  0.5532710000000 1.0
C      1  0.5699510000000  0.3823860000000  0.5457200000000 1.0
C      1  0.3969930000000  0.3942500000000  0.5426930000000 1.0
C      1  0.3602190000000  0.4822690000000  0.5550430000000 1.0
C      1  0.4238030000000  0.4762220000000  0.4489520000000 1.0
C      1  0.4323630000000  0.5544780000000  0.4461990000000 1.0
C      1  0.4855000000000  0.5932850000000  0.4439320000000 1.0
C      1  0.5683710000000  0.5595150000000  0.4491190000000 1.0
C      1  0.5923970000000  0.4756090000000  0.4447840000000 1.0
C      1  0.5423990000000  0.4232140000000  0.4493680000000 1.0
C      1  0.4633720000000  0.4247300000000  0.4445490000000 1.0
C      1  0.4634670000000  0.5386610000000  0.5901210000000 1.0
C      1  0.4962580000000  0.5457580000000  0.5871110000000 1.0
C      1  0.5484900000000  0.5317130000000  0.5837170000000 1.0
C      1  0.5433690000000  0.4844530000000  0.5944370000000 1.0
C      1  0.5222090000000  0.4589010000000  0.6003200000000 1.0
C      1  0.4718680000000  0.4499670000000  0.5878280000000 1.0
C      1  0.4516050000000  0.4933690000000  0.5943240000000 1.0
C      1  0.4948940000000  0.4605810000000  0.4461490000000 1.0
C      1  0.4712650000000  0.4829750000000  0.4469850000000 1.0
C      1  0.4674820000000  0.5165390000000  0.4412850000000 1.0
C      1  0.4923900000000  0.5379080000000  0.4507420000000 1.0
C      1  0.5256740000000  0.5323430000000  0.4449170000000 1.0
C      1  0.5404420000000  0.5014410000000  0.4457490000000 1.0
C      1  0.5256800000000  0.4708210000000  0.4466960000000 1.0
C      1  0.3847020000000  0.4917870000000  0.5455720000000 1.0
C      1  0.4148090000000  0.5738220000000  0.5487070000000 1.0
C      1  0.4952880000000  0.6057290000000  0.5442020000000 1.0
C      1  0.6161510000000  0.5408900000000  0.5447460000000 1.0
C      1  0.6076840000000  0.4559160000000  0.5463430000000 1.0
C      1  0.5462810000000  0.3971450000000  0.5459450000000 1.0
C      1  0.4099000000000  0.4186130000000  0.5385250000000 1.0
C      1  0.6039770000000  0.5407310000000  0.5194730000000 1.0
C      1  0.5995690000000  0.4478850000000  0.5204000000000 1.0
C      1  0.5284930000000  0.3973710000000  0.5244220000000 1.0
C      1  0.4254050000000  0.4236710000000  0.5157410000000 1.0
C      1  0.3887240000000  0.4980560000000  0.5179730000000 1.0
C      1  0.4264880000000  0.5832360000000  0.5243440000000 1.0
C      1  0.5138390000000  0.6017080000000  0.5230540000000 1.0
C      1  0.5211850000000  0.5724380000000  0.4782000000000 1.0
C      1  0.5850290000000  0.5165790000000  0.4762130000000 1.0
C      1  0.5702630000000  0.4586320000000  0.4733770000000 1.0
C      1  0.5005110000000  0.4153820000000  0.4812950000000 1.0
C      1  0.4564730000000  0.4541350000000  0.4833900000000 1.0
C      1  0.4223510000000  0.5149310000000  0.4794180000000 1.0
C      1  0.4627230000000  0.5828000000000  0.4749900000000 1.0
C      1  0.4256900000000  0.4768180000000  0.4956470000000 1.0
C      1  0.4359450000000  0.5385450000000  0.5086730000000 1.0
C      1  0.4887900000000  0.5770190000000  0.5042960000000 1.0
C      1  0.5598940000000  0.5588390000000  0.5119780000000 1.0
C      1  0.5826010000000  0.4851640000000  0.5000880000000 1.0
C      1  0.5386960000000  0.4341210000000  0.5125080000000 1.0
C      1  0.4743220000000  0.4300210000000  0.5069780000000 1.0
C      1  0.5332760000000  0.4582610000000  0.4909540000000 1.0
C      1  0.5018200000000  0.4497050000000  0.5009270000000 1.0
C      1  0.4471520000000  0.4998800000000  0.4954710000000 1.0
C      1  0.4576720000000  0.5314510000000  0.4879290000000 1.0
C      1  0.4843630000000  0.5459670000000  0.4977240000000 1.0
C      1  0.5428490000000  0.5419770000000  0.4916730000000 1.0
C      1  0.5519240000000  0.4835530000000  0.4979820000000 1.0
C      1  0.5459860000000  0.4256790000000  0.4212380000000 1.0
C      1  0.4739350000000  0.4252730000000  0.4160830000000 1.0
C      1  0.4291770000000  0.4743600000000  0.4208010000000 1.0
C      1  0.4254720000000  0.5474410000000  0.4164170000000 1.0
C      1  0.4779210000000  0.5833390000000  0.4176960000000 1.0
C      1  0.5494770000000  0.5553740000000  0.4225180000000 1.0
C      1  0.5799010000000  0.4894170000000  0.4198210000000 1.0
C      1  0.4615290000000  0.5717510000000  0.5678340000000 1.0
C      1  0.5187830000000  0.5715980000000  0.5667020000000 1.0
C      1  0.5858640000000  0.4988960000000  0.5689940000000 1.0
C      1  0.5623630000000  0.4420930000000  0.5679540000000 1.0
C      1  0.5123420000000  0.4219620000000  0.5707330000000 1.0
C      1  0.4255040000000  0.4656560000000  0.5656190000000 1.0
C      1  0.4202330000000  0.5244310000000  0.5707670000000 1.0
C      1  0.5549850000000  0.4537430000000  0.5958660000000 1.0
C      1  0.5005980000000  0.4389140000000  0.5904680000000 1.0
C      1  0.4462980000000  0.4647310000000  0.5896750000000 1.0
C      1  0.4404450000000  0.5201220000000  0.5945990000000 1.0
C      1  0.4748270000000  0.5694720000000  0.5981730000000 1.0
C      1  0.5278000000000  0.5526100000000  0.5883500000000 1.0
C      1  0.5635100000000  0.5077440000000  0.5891400000000 1.0
C      1  0.5544320000000  0.5291680000000  0.4122200000000 1.0
C      1  0.5612360000000  0.4704900000000  0.4085640000000 1.0
C      1  0.5202620000000  0.4288900000000  0.4090260000000 1.0
C      1  0.4771900000000  0.4566670000000  0.4045540000000 1.0
C      1  0.4315390000000  0.5002770000000  0.4085960000000 1.0
C      1  0.4510680000000  0.5497890000000  0.3949910000000 1.0
C      1  0.4989410000000  0.5635010000000  0.4070280000000 1.0
C      1  0.5079480000000  0.4564550000000  0.4142640000000 1.0
C      1  0.4676440000000  0.4839910000000  0.4157830000000 1.0
C      1  0.4610730000000  0.5137360000000  0.4083910000000 1.0
C      1  0.4802690000000  0.5365650000000  0.3979580000000 1.0
C      1  0.5091010000000  0.5328700000000  0.4148700000000 1.0
C      1  0.5302460000000  0.5092990000000  0.4129060000000 1.0
C      1  0.5323680000000  0.4783550000000  0.4142360000000 1.0
C      1  0.4537080000000  0.5392560000000  0.5368070000000 1.0
C      1  0.4989280000000  0.5602070000000  0.5320860000000 1.0
C      1  0.5559270000000  0.5387300000000  0.5389610000000 1.0
C      1  0.5585200000000  0.4875740000000  0.5427830000000 1.0
C      1  0.5283960000000  0.4454540000000  0.5430100000000 1.0
C      1  0.4757980000000  0.4498700000000  0.5453760000000 1.0
C      1  0.4504100000000  0.4933160000000  0.5440910000000 1.0
C      1  0.4781930000000  0.4665730000000  0.5174890000000 1.0
C      1  0.4656270000000  0.4937120000000  0.5177690000000 1.0
C      1  0.4859330000000  0.5177420000000  0.5151340000000 1.0
C      1  0.5132550000000  0.5324380000000  0.5020500000000 1.0
C      1  0.5377320000000  0.5120770000000  0.5007020000000 1.0
C      1  0.5347320000000  0.4900990000000  0.5239670000000 1.0
C      1  0.5101030000000  0.4731780000000  0.5240300000000 1.0
C      1  0.5597160000000  0.4568740000000  0.5374170000000 1.0
C      1  0.4987260000000  0.4286320000000  0.5423990000000 1.0
C      1  0.4454480000000  0.4614720000000  0.5396070000000 1.0
C      1  0.4311700000000  0.5165660000000  0.5413870000000 1.0
C      1  0.4672990000000  0.5674140000000  0.5361530000000 1.0
C      1  0.5311740000000  0.5621320000000  0.5389610000000 1.0
C      1  0.5769940000000  0.5137120000000  0.5390310000000 1.0
C      1  0.6093870000000  0.5194140000000  0.5617670000000 1.0
C      1  0.5872250000000  0.4654340000000  0.5646530000000 1.0
C      1  0.5411330000000  0.4163070000000  0.5668630000000 1.0
C      1  0.4097220000000  0.4390100000000  0.5582830000000 1.0
C      1  0.4078650000000  0.4933580000000  0.5636130000000 1.0
C      1  0.4313140000000  0.5563710000000  0.5651580000000 1.0
C      1  0.4930960000000  0.5844010000000  0.5633230000000 1.0
C      1  0.4446530000000  0.5862830000000  0.4463990000000 1.0
C      1  0.5258620000000  0.5950650000000  0.4346670000000 1.0
C      1  0.5877840000000  0.5317420000000  0.4457590000000 1.0
C      1  0.5897300000000  0.4437310000000  0.4349000000000 1.0
C      1  0.5068210000000  0.3921240000000  0.4353940000000 1.0
C      1  0.4309580000000  0.4324080000000  0.4427180000000 1.0
C      1  0.3943930000000  0.5130940000000  0.4358180000000 1.0
C      1  0.3977600000000  0.4859180000000  0.4916740000000 1.0
C      1  0.4231210000000  0.5645120000000  0.5011700000000 1.0
C      1  0.5031430000000  0.6041450000000  0.4935030000000 1.0
C      1  0.5886280000000  0.5593060000000  0.5027810000000 1.0
C      1  0.6032970000000  0.4645080000000  0.4950290000000 1.0
C      1  0.5316380000000  0.4077700000000  0.4931110000000 1.0
C      1  0.4484810000000  0.4175370000000  0.4972680000000 1.0
C      1  0.4613590000000  0.6478580000000  0.5448850000000 1.0
C      1  0.6465370000000  0.5822220000000  0.5618880000000 1.0
C      1  0.6599990000000  0.4595510000000  0.5597730000000 1.0
C      1  0.5921890000000  0.3685210000000  0.5455090000000 1.0
C      1  0.3848620000000  0.3713520000000  0.5466100000000 1.0
C      1  0.3372410000000  0.4733350000000  0.5639330000000 1.0
C      1  0.3626200000000  0.5820160000000  0.5604080000000 1.0
C      1  0.5918000000000  0.5132870000000  0.5095070000000 1.0
C      1  0.5687970000000  0.4480750000000  0.5058060000000 1.0
C      1  0.4990780000000  0.4108050000000  0.5153800000000 1.0
C      1  0.4372530000000  0.4529450000000  0.5116640000000 1.0
C      1  0.4143920000000  0.5154220000000  0.5126880000000 1.0
C      1  0.4567440000000  0.5846240000000  0.5086940000000 1.0
C      1  0.5309800000000  0.5765180000000  0.5079200000000 1.0
C      1  0.5009420000000  0.5053240000000  0.4555380000000 1.0
C      1  0.5020660000000  0.4941420000000  0.5016010000000 1.0
C      1  0.5098730000000  0.4920730000000  0.4766170000000 1.0
END
