TITL C-2782232-2968-147 0.00139869371638957 125000 -242.217585823514 0 0 43 (C1) n - 1
REM
REM in /home/nfs/bkarasulu/CARBON/AIRSS/Generating-Clusters/REBO/Higher-Symm/SD-CG/HFTN-CG
REM
REM
REM
REM
REM
REM ./C.cell (12c818d87b63d06a65506943cc24bca4)
REM
REM compiler GCC version 9.2.1 20190827 (Red Hat 9.2.1-1)
REM options -cpp -mtune=generic -march=x86-64 -g -O0 -fpre-include=/usr/include/finclude/math-vector-fortran.h
REM seed -242159928 -977117494 1857033104 2027118424 -965960522 1453355716 1038507165 -1933103732 1666697302 727269206 -1045517843 781251339 -149746787 -426824277 -847893438 -55286458 1917807827 -802624235 -1425112282 -1861921962 1526959798 1464618333 -1747101964 -1566317448 -935579528 -1750007079 -1692361069 207977318 17392689 -1808278081 1694632703 -1940445740 775220078
REM
CELL 1.54180   50.00000   50.00000   50.00000   90.00000   90.00000   90.00000
LATT -1
SFAC C  
C      1  0.4749470000000  0.5172870000000  0.4585430000000 1.0
C      1  0.4863010000000  0.4292710000000  0.4995590000000 1.0
C      1  0.5228390000000  0.4958670000000  0.4503410000000 1.0
C      1  0.4866630000000  0.4642640000000  0.4603720000000 1.0
C      1  0.5458440000000  0.5374350000000  0.4568520000000 1.0
C      1  0.4737120000000  0.4986640000000  0.5074880000000 1.0
C      1  0.4543160000000  0.4696890000000  0.5419730000000 1.0
C      1  0.5424270000000  0.4577230000000  0.5402040000000 1.0
C      1  0.5238220000000  0.5133100000000  0.5229700000000 1.0
C      1  0.4304590000000  0.5057730000000  0.4754100000000 1.0
C      1  0.5443000000000  0.4780870000000  0.4545740000000 1.0
C      1  0.4824350000000  0.4843180000000  0.5523020000000 1.0
C      1  0.4955840000000  0.5603320000000  0.5274530000000 1.0
C      1  0.4965580000000  0.5362700000000  0.4550490000000 1.0
C      1  0.5247460000000  0.5593980000000  0.4925520000000 1.0
C      1  0.4799930000000  0.5373640000000  0.5245910000000 1.0
C      1  0.4983030000000  0.4445890000000  0.4770620000000 1.0
C      1  0.5623180000000  0.4793970000000  0.5272860000000 1.0
C      1  0.5597920000000  0.4897680000000  0.5003030000000 1.0
C      1  0.5013630000000  0.4698640000000  0.5076080000000 1.0
C      1  0.5069140000000  0.4856250000000  0.5323480000000 1.0
C      1  0.5485590000000  0.4704810000000  0.4815300000000 1.0
C      1  0.5448100000000  0.5402660000000  0.4854890000000 1.0
C      1  0.4530990000000  0.5237350000000  0.4765230000000 1.0
C      1  0.4580180000000  0.5350860000000  0.5029970000000 1.0
C      1  0.4255490000000  0.4860130000000  0.4941460000000 1.0
C      1  0.4809650000000  0.4513020000000  0.5430960000000 1.0
C      1  0.5367770000000  0.4910140000000  0.5453830000000 1.0
C      1  0.4987620000000  0.5095280000000  0.5014530000000 1.0
C      1  0.5082430000000  0.5032730000000  0.4756830000000 1.0
C      1  0.4986190000000  0.5581080000000  0.4730030000000 1.0
C      1  0.4443070000000  0.5193190000000  0.5249090000000 1.0
C      1  0.5221520000000  0.5254630000000  0.4455150000000 1.0
C      1  0.5263400000000  0.4534350000000  0.4926930000000 1.0
C      1  0.4439220000000  0.4872440000000  0.5195090000000 1.0
C      1  0.4969430000000  0.4349230000000  0.5264080000000 1.0
C      1  0.5254770000000  0.4426410000000  0.5237450000000 1.0
C      1  0.4729650000000  0.4678800000000  0.4999950000000 1.0
C      1  0.4785370000000  0.4892670000000  0.4529610000000 1.0
C      1  0.4824650000000  0.5154980000000  0.5426950000000 1.0
C      1  0.5471610000000  0.5167870000000  0.5015470000000 1.0
C      1  0.5022690000000  0.5830880000000  0.4933960000000 1.0
C      1  0.5104270000000  0.5813540000000  0.5324850000000 1.0
END
