TITL C-2782230-7391-919 -0.00746424168447348 125000 -1024.68689110009 0 0 176 (C1) n - 1
REM
REM in /home/nfs/bkarasulu/CARBON/AIRSS/Generating-Clusters/REBO/Higher-Symm/SD-CG/HFTN-CG
REM
REM
REM
REM
REM
REM ./C.cell (12c818d87b63d06a65506943cc24bca4)
REM
REM compiler GCC version 9.2.1 20190827 (Red Hat 9.2.1-1)
REM options -cpp -mtune=generic -march=x86-64 -g -O0 -fpre-include=/usr/include/finclude/math-vector-fortran.h
REM seed 162510901 1394488209 -1230497404 -580008345 -2105435869 -1952461941 1349527423 -425746017 -2121144274 -409895156 -1056909684 1872771381 -323646582 697562658 -1218686178 -1725541795 1686683990 -236579539 1717366633 1041231373 -1973749831 -979808967 -292419732 -681145965 -651681162 -1756587216 -1647735768 -1813925623 1587245573 965952456 -923027862 541283093 -1877977513
REM
CELL 1.54180   50.00000   50.00000   50.00000   90.00000   90.00000   90.00000
LATT -1
SFAC C  
C      1  0.5614190000000  0.4394440000000  0.5583990000000 1.0
C      1  0.4663330000000  0.4359530000000  0.5798820000000 1.0
C      1  0.4045490000000  0.4355460000000  0.4968300000000 1.0
C      1  0.4873800000000  0.4371990000000  0.4142720000000 1.0
C      1  0.5782160000000  0.4333880000000  0.4526550000000 1.0
C      1  0.5283400000000  0.5989010000000  0.4917120000000 1.0
C      1  0.5178200000000  0.5983850000000  0.5238950000000 1.0
C      1  0.4842680000000  0.6001740000000  0.5235210000000 1.0
C      1  0.4727880000000  0.6010010000000  0.4914950000000 1.0
C      1  0.5006080000000  0.6015490000000  0.4719660000000 1.0
C      1  0.4128770000000  0.5411060000000  0.4795030000000 1.0
C      1  0.4909670000000  0.5326740000000  0.4158840000000 1.0
C      1  0.5758790000000  0.5346780000000  0.4705410000000 1.0
C      1  0.5561440000000  0.5330570000000  0.5655660000000 1.0
C      1  0.4459320000000  0.5406510000000  0.5755960000000 1.0
C      1  0.5970140000000  0.4622060000000  0.4959680000000 1.0
C      1  0.5266160000000  0.4835280000000  0.6060260000000 1.0
C      1  0.4243140000000  0.4567720000000  0.5602160000000 1.0
C      1  0.4209520000000  0.4814670000000  0.4549530000000 1.0
C      1  0.5310020000000  0.4713100000000  0.4019250000000 1.0
C      1  0.4993520000000  0.4681840000000  0.6083590000000 1.0
C      1  0.4039310000000  0.4690180000000  0.5357130000000 1.0
C      1  0.4427980000000  0.4691670000000  0.4096990000000 1.0
C      1  0.5621970000000  0.4707080000000  0.4129140000000 1.0
C      1  0.5983940000000  0.4700590000000  0.5292640000000 1.0
C      1  0.4947940000000  0.5120490000000  0.3924620000000 1.0
C      1  0.5933990000000  0.5074000000000  0.4655090000000 1.0
C      1  0.5650900000000  0.5081560000000  0.5847070000000 1.0
C      1  0.4343270000000  0.5138660000000  0.5891310000000 1.0
C      1  0.3916140000000  0.5161180000000  0.4740910000000 1.0
C      1  0.5178110000000  0.5215440000000  0.4954980000000 1.0
C      1  0.5090750000000  0.5122200000000  0.5258500000000 1.0
C      1  0.4773810000000  0.5239160000000  0.5218550000000 1.0
C      1  0.4646310000000  0.5178370000000  0.4907750000000 1.0
C      1  0.4922780000000  0.5160390000000  0.4748130000000 1.0
C      1  0.4581790000000  0.5307280000000  0.5485740000000 1.0
C      1  0.4423570000000  0.5260910000000  0.4713470000000 1.0
C      1  0.4954180000000  0.5181210000000  0.4432750000000 1.0
C      1  0.5512530000000  0.5266150000000  0.4909100000000 1.0
C      1  0.5262170000000  0.5209090000000  0.5539050000000 1.0
C      1  0.5250270000000  0.5332770000000  0.4463460000000 1.0
C      1  0.5601370000000  0.5364720000000  0.5200440000000 1.0
C      1  0.4963990000000  0.5371680000000  0.5592780000000 1.0
C      1  0.4489150000000  0.5427360000000  0.5173580000000 1.0
C      1  0.4641790000000  0.5420380000000  0.4500180000000 1.0
C      1  0.4273550000000  0.4265820000000  0.4781680000000 1.0
C      1  0.5179550000000  0.4323130000000  0.4211130000000 1.0
C      1  0.5826730000000  0.4342390000000  0.4827050000000 1.0
C      1  0.5366920000000  0.4327390000000  0.5702490000000 1.0
C      1  0.4451160000000  0.4337330000000  0.5602340000000 1.0
C      1  0.4246190000000  0.4903280000000  0.5665020000000 1.0
C      1  0.4169490000000  0.5094550000000  0.4557730000000 1.0
C      1  0.5224170000000  0.5025490000000  0.3933040000000 1.0
C      1  0.5998640000000  0.4958430000000  0.4918320000000 1.0
C      1  0.5346370000000  0.5042560000000  0.5825400000000 1.0
C      1  0.4838390000000  0.4775810000000  0.4255990000000 1.0
C      1  0.5578510000000  0.4688870000000  0.4597430000000 1.0
C      1  0.5501920000000  0.4747690000000  0.5436880000000 1.0
C      1  0.4686320000000  0.4731070000000  0.5653440000000 1.0
C      1  0.4320620000000  0.4739110000000  0.4924710000000 1.0
C      1  0.4480260000000  0.5718260000000  0.5444050000000 1.0
C      1  0.4423000000000  0.5739790000000  0.4590730000000 1.0
C      1  0.5182180000000  0.5706980000000  0.4345410000000 1.0
C      1  0.5790700000000  0.5738250000000  0.5072000000000 1.0
C      1  0.5206030000000  0.5684180000000  0.5640370000000 1.0
C      1  0.4338680000000  0.5684730000000  0.5722990000000 1.0
C      1  0.4119330000000  0.5642940000000  0.4622360000000 1.0
C      1  0.5029380000000  0.5588060000000  0.4097170000000 1.0
C      1  0.5877380000000  0.5586350000000  0.4828840000000 1.0
C      1  0.5451150000000  0.5585900000000  0.5792750000000 1.0
C      1  0.6006320000000  0.5126100000000  0.5573310000000 1.0
C      1  0.4650560000000  0.5198800000000  0.6033160000000 1.0
C      1  0.3966360000000  0.5179390000000  0.5075230000000 1.0
C      1  0.4608820000000  0.5192790000000  0.3942140000000 1.0
C      1  0.5831820000000  0.5181180000000  0.4351300000000 1.0
C      1  0.5838740000000  0.5417720000000  0.5515970000000 1.0
C      1  0.4743520000000  0.5500770000000  0.5904640000000 1.0
C      1  0.4101950000000  0.5491890000000  0.5099500000000 1.0
C      1  0.4621630000000  0.5491980000000  0.4108810000000 1.0
C      1  0.5659000000000  0.5462070000000  0.4417850000000 1.0
C      1  0.5244520000000  0.4856620000000  0.5106780000000 1.0
C      1  0.4858750000000  0.4752350000000  0.5293930000000 1.0
C      1  0.4804060000000  0.4896940000000  0.5023300000000 1.0
C      1  0.4958050000000  0.4830710000000  0.4778210000000 1.0
C      1  0.5254210000000  0.4942100000000  0.4774240000000 1.0
C      1  0.5394710000000  0.5473560000000  0.4211810000000 1.0
C      1  0.5933650000000  0.5457980000000  0.5202280000000 1.0
C      1  0.5075910000000  0.5485540000000  0.5885690000000 1.0
C      1  0.4236770000000  0.5482520000000  0.5396310000000 1.0
C      1  0.4366530000000  0.5522700000000  0.4331790000000 1.0
C      1  0.5327760000000  0.4355960000000  0.5307750000000 1.0
C      1  0.4811770000000  0.4293970000000  0.5434830000000 1.0
C      1  0.4544920000000  0.4283970000000  0.4981830000000 1.0
C      1  0.4948250000000  0.4290290000000  0.4526310000000 1.0
C      1  0.5376940000000  0.4391330000000  0.4840340000000 1.0
C      1  0.4708220000000  0.5910730000000  0.4587360000000 1.0
C      1  0.5294980000000  0.5887630000000  0.4591460000000 1.0
C      1  0.5492520000000  0.5875340000000  0.5162830000000 1.0
C      1  0.5001050000000  0.5892620000000  0.5516550000000 1.0
C      1  0.4523830000000  0.5903750000000  0.5168420000000 1.0
C      1  0.5122670000000  0.4733100000000  0.4274540000000 1.0
C      1  0.5638400000000  0.4683040000000  0.4907840000000 1.0
C      1  0.5257240000000  0.4697180000000  0.5599140000000 1.0
C      1  0.4561140000000  0.4648270000000  0.5379490000000 1.0
C      1  0.4485040000000  0.4726450000000  0.4630140000000 1.0
C      1  0.4380790000000  0.4999840000000  0.4088490000000 1.0
C      1  0.5691830000000  0.5029540000000  0.4111930000000 1.0
C      1  0.6113990000000  0.4990060000000  0.5343990000000 1.0
C      1  0.4909270000000  0.5008910000000  0.6094710000000 1.0
C      1  0.4024750000000  0.5009240000000  0.5334230000000 1.0
C      1  0.4905840000000  0.5572110000000  0.4487860000000 1.0
C      1  0.5372480000000  0.5445060000000  0.4695610000000 1.0
C      1  0.5383770000000  0.5557610000000  0.5378990000000 1.0
C      1  0.4779800000000  0.5568120000000  0.5443520000000 1.0
C      1  0.4489710000000  0.5607830000000  0.4893750000000 1.0
C      1  0.5549750000000  0.5741790000000  0.4495020000000 1.0
C      1  0.5683920000000  0.5700820000000  0.5392750000000 1.0
C      1  0.4841590000000  0.5785050000000  0.5769970000000 1.0
C      1  0.4235060000000  0.5783080000000  0.5135590000000 1.0
C      1  0.4658230000000  0.5787030000000  0.4274230000000 1.0
C      1  0.4746450000000  0.4877900000000  0.3959060000000 1.0
C      1  0.5824290000000  0.4851260000000  0.4444280000000 1.0
C      1  0.5866510000000  0.4942420000000  0.5738030000000 1.0
C      1  0.4553980000000  0.4891800000000  0.5918420000000 1.0
C      1  0.4021370000000  0.4884360000000  0.4906580000000 1.0
C      1  0.5462730000000  0.5252600000000  0.3991230000000 1.0
C      1  0.6111990000000  0.5204780000000  0.5110120000000 1.0
C      1  0.5160960000000  0.5217690000000  0.6031380000000 1.0
C      1  0.4180520000000  0.5220870000000  0.5538630000000 1.0
C      1  0.4210850000000  0.5229560000000  0.4275000000000 1.0
C      1  0.4952460000000  0.5622240000000  0.4756940000000 1.0
C      1  0.5211620000000  0.5601670000000  0.4858060000000 1.0
C      1  0.5193440000000  0.5597110000000  0.5141560000000 1.0
C      1  0.4919900000000  0.5611870000000  0.5197690000000 1.0
C      1  0.4771400000000  0.5616660000000  0.4964390000000 1.0
C      1  0.5550830000000  0.4912920000000  0.5143230000000 1.0
C      1  0.4974310000000  0.4866030000000  0.5590920000000 1.0
C      1  0.4514120000000  0.4877010000000  0.5134810000000 1.0
C      1  0.4707370000000  0.4943650000000  0.4490100000000 1.0
C      1  0.5330150000000  0.4861160000000  0.4495020000000 1.0
C      1  0.4768120000000  0.4388580000000  0.5130740000000 1.0
C      1  0.4942920000000  0.4553690000000  0.4696200000000 1.0
C      1  0.5229170000000  0.4482490000000  0.4573950000000 1.0
C      1  0.5239170000000  0.4547670000000  0.5074390000000 1.0
C      1  0.5046990000000  0.4512500000000  0.5421150000000 1.0
C      1  0.5785620000000  0.5094660000000  0.5142680000000 1.0
C      1  0.4956180000000  0.5105240000000  0.5771670000000 1.0
C      1  0.4364600000000  0.4995330000000  0.5363430000000 1.0
C      1  0.4537900000000  0.5162120000000  0.4343870000000 1.0
C      1  0.5380890000000  0.5033650000000  0.4243080000000 1.0
C      1  0.4543400000000  0.4125180000000  0.5348220000000 1.0
C      1  0.4574250000000  0.4151310000000  0.4669880000000 1.0
C      1  0.5225250000000  0.4099870000000  0.4467900000000 1.0
C      1  0.5578550000000  0.4171780000000  0.4986600000000 1.0
C      1  0.5169760000000  0.4133510000000  0.5511360000000 1.0
C      1  0.5642400000000  0.4244380000000  0.5289830000000 1.0
C      1  0.4968470000000  0.4274660000000  0.5732580000000 1.0
C      1  0.4282010000000  0.4226350000000  0.5176710000000 1.0
C      1  0.4670030000000  0.4273610000000  0.4398400000000 1.0
C      1  0.5514970000000  0.4207800000000  0.4587670000000 1.0
C      1  0.4304570000000  0.4548280000000  0.5208040000000 1.0
C      1  0.4594500000000  0.4580870000000  0.4366720000000 1.0
C      1  0.5437440000000  0.4509580000000  0.4337300000000 1.0
C      1  0.5683780000000  0.4551790000000  0.5223350000000 1.0
C      1  0.5156460000000  0.4507770000000  0.5865640000000 1.0
C      1  0.4704530000000  0.4618040000000  0.5976690000000 1.0
C      1  0.3942760000000  0.4607430000000  0.5052570000000 1.0
C      1  0.4703410000000  0.4539970000000  0.3967290000000 1.0
C      1  0.5834750000000  0.4536720000000  0.4333650000000 1.0
C      1  0.5801900000000  0.4678040000000  0.5581720000000 1.0
C      1  0.4795430000000  0.3992250000000  0.5158120000000 1.0
C      1  0.4810360000000  0.4012180000000  0.4857170000000 1.0
C      1  0.5092720000000  0.4011870000000  0.4768950000000 1.0
C      1  0.5262590000000  0.4043180000000  0.5000630000000 1.0
C      1  0.5083510000000  0.4021620000000  0.5234410000000 1.0
C      1  0.4957670000000  0.4493190000000  0.4992400000000 1.0
END
