TITL C-2782232-2968-322 0.00966670768075672 125000 -910.84744743175 0 0 153 (C1) n - 1
REM
REM in /home/nfs/bkarasulu/CARBON/AIRSS/Generating-Clusters/REBO/Higher-Symm/SD-CG/HFTN-CG
REM
REM
REM
REM
REM
REM ./C.cell (12c818d87b63d06a65506943cc24bca4)
REM
REM compiler GCC version 9.2.1 20190827 (Red Hat 9.2.1-1)
REM options -cpp -mtune=generic -march=x86-64 -g -O0 -fpre-include=/usr/include/finclude/math-vector-fortran.h
REM seed -1256247491 -509257992 1968431953 751157202 349921540 1635120426 -1787545881 375741072 522086662 2050831436 81365363 1195686285 -2115803105 1714041260 1658287198 -599017631 -2142615193 1299669371 -1632099891 -1279904687 977622285 708809459 -323814149 667114811 825589888 866632483 1358589792 -837701292 -810412192 661131630 292104035 -145805393 -828322298
REM
CELL 1.54180   50.00000   50.00000   50.00000   90.00000   90.00000   90.00000
LATT -1
SFAC C  
C      1  0.5460020000000  0.4658650000000  0.5820250000000 1.0
C      1  0.4832950000000  0.4343420000000  0.5734020000000 1.0
C      1  0.4330870000000  0.5021410000000  0.5803090000000 1.0
C      1  0.4858530000000  0.5529870000000  0.5787540000000 1.0
C      1  0.5608820000000  0.5448190000000  0.5821810000000 1.0
C      1  0.5740160000000  0.5064780000000  0.4493010000000 1.0
C      1  0.5310090000000  0.4231000000000  0.4445470000000 1.0
C      1  0.4426660000000  0.4532380000000  0.4454550000000 1.0
C      1  0.4346620000000  0.5475020000000  0.4525120000000 1.0
C      1  0.5195540000000  0.5776620000000  0.4463320000000 1.0
C      1  0.5297520000000  0.5628170000000  0.4962320000000 1.0
C      1  0.5705050000000  0.4776280000000  0.4906510000000 1.0
C      1  0.5058090000000  0.4272620000000  0.4948280000000 1.0
C      1  0.4395480000000  0.4705580000000  0.4952220000000 1.0
C      1  0.4512680000000  0.5508790000000  0.4923350000000 1.0
C      1  0.4594710000000  0.4593890000000  0.4176860000000 1.0
C      1  0.4469030000000  0.5338990000000  0.4265500000000 1.0
C      1  0.5071540000000  0.5534730000000  0.4256170000000 1.0
C      1  0.5509640000000  0.5078400000000  0.4240900000000 1.0
C      1  0.5256950000000  0.4456220000000  0.4192860000000 1.0
C      1  0.4663510000000  0.4906420000000  0.4236840000000 1.0
C      1  0.4695940000000  0.5452950000000  0.4151910000000 1.0
C      1  0.5153140000000  0.5216270000000  0.4347030000000 1.0
C      1  0.5324750000000  0.4827190000000  0.4315440000000 1.0
C      1  0.4977010000000  0.4576200000000  0.4282940000000 1.0
C      1  0.5319140000000  0.6166030000000  0.4851170000000 1.0
C      1  0.6213820000000  0.5103750000000  0.4821840000000 1.0
C      1  0.5456950000000  0.3853140000000  0.4839410000000 1.0
C      1  0.4048320000000  0.4303060000000  0.4774020000000 1.0
C      1  0.4003720000000  0.5688470000000  0.4859920000000 1.0
C      1  0.4263530000000  0.5083200000000  0.5077310000000 1.0
C      1  0.4788500000000  0.5789200000000  0.4977160000000 1.0
C      1  0.5604770000000  0.5284720000000  0.5057520000000 1.0
C      1  0.5507590000000  0.4475170000000  0.5092350000000 1.0
C      1  0.4689180000000  0.4321340000000  0.5094480000000 1.0
C      1  0.5280560000000  0.5119650000000  0.5620310000000 1.0
C      1  0.5229580000000  0.4820080000000  0.5536990000000 1.0
C      1  0.4904650000000  0.4753200000000  0.5587450000000 1.0
C      1  0.4673230000000  0.4976580000000  0.5602760000000 1.0
C      1  0.4973810000000  0.5235090000000  0.5527740000000 1.0
C      1  0.4553000000000  0.4767660000000  0.5369730000000 1.0
C      1  0.4676690000000  0.5279830000000  0.5346970000000 1.0
C      1  0.4998920000000  0.5551390000000  0.5414080000000 1.0
C      1  0.5378740000000  0.4807220000000  0.5273610000000 1.0
C      1  0.5082730000000  0.4424450000000  0.5386700000000 1.0
C      1  0.5130980000000  0.4182720000000  0.5697520000000 1.0
C      1  0.4288730000000  0.4719940000000  0.5660750000000 1.0
C      1  0.4556510000000  0.5587520000000  0.5642410000000 1.0
C      1  0.5455540000000  0.5693430000000  0.5652190000000 1.0
C      1  0.5702770000000  0.4827080000000  0.5650640000000 1.0
C      1  0.4711500000000  0.5841650000000  0.4520600000000 1.0
C      1  0.5639690000000  0.5551930000000  0.4556580000000 1.0
C      1  0.5742640000000  0.4521570000000  0.4529540000000 1.0
C      1  0.4780100000000  0.4153620000000  0.4546830000000 1.0
C      1  0.4183340000000  0.5004810000000  0.4460760000000 1.0
C      1  0.5654070000000  0.4201080000000  0.5097000000000 1.0
C      1  0.4406520000000  0.4189270000000  0.5079410000000 1.0
C      1  0.4026930000000  0.5276620000000  0.5097760000000 1.0
C      1  0.4945980000000  0.6022170000000  0.5146580000000 1.0
C      1  0.5923420000000  0.5390550000000  0.5066920000000 1.0
C      1  0.4304260000000  0.4181310000000  0.4816190000000 1.0
C      1  0.3976740000000  0.5400420000000  0.4847600000000 1.0
C      1  0.5043840000000  0.6088730000000  0.4864850000000 1.0
C      1  0.6045690000000  0.5332970000000  0.4806460000000 1.0
C      1  0.5635710000000  0.4077830000000  0.4838090000000 1.0
C      1  0.5850310000000  0.4984820000000  0.5409720000000 1.0
C      1  0.5292990000000  0.4090750000000  0.5450090000000 1.0
C      1  0.4210660000000  0.4502250000000  0.5417870000000 1.0
C      1  0.4304200000000  0.5550420000000  0.5421260000000 1.0
C      1  0.5331680000000  0.5874310000000  0.5403590000000 1.0
C      1  0.4412620000000  0.5063830000000  0.4280640000000 1.0
C      1  0.4779390000000  0.5698360000000  0.4290820000000 1.0
C      1  0.5455750000000  0.5345010000000  0.4436340000000 1.0
C      1  0.5505490000000  0.4572040000000  0.4373230000000 1.0
C      1  0.4768240000000  0.4357890000000  0.4346260000000 1.0
C      1  0.5194640000000  0.4786120000000  0.5022650000000 1.0
C      1  0.4877480000000  0.4795470000000  0.5049870000000 1.0
C      1  0.4754960000000  0.5070730000000  0.4948530000000 1.0
C      1  0.4912010000000  0.5321330000000  0.5101120000000 1.0
C      1  0.5144760000000  0.5105660000000  0.5017600000000 1.0
C      1  0.4492800000000  0.4238650000000  0.4608100000000 1.0
C      1  0.4102970000000  0.5267500000000  0.4612490000000 1.0
C      1  0.4952440000000  0.5944630000000  0.4633030000000 1.0
C      1  0.5855230000000  0.5347750000000  0.4593050000000 1.0
C      1  0.5610830000000  0.4254530000000  0.4603450000000 1.0
C      1  0.4845830000000  0.5019030000000  0.3973660000000 1.0
C      1  0.4968630000000  0.5310550000000  0.4012050000000 1.0
C      1  0.5231260000000  0.5089110000000  0.4035360000000 1.0
C      1  0.5197110000000  0.4750120000000  0.4007180000000 1.0
C      1  0.4863840000000  0.4683620000000  0.3979160000000 1.0
C      1  0.5717860000000  0.5519440000000  0.5522020000000 1.0
C      1  0.5639620000000  0.4497070000000  0.5577850000000 1.0
C      1  0.4608760000000  0.4215500000000  0.5521420000000 1.0
C      1  0.4166970000000  0.5042210000000  0.5528510000000 1.0
C      1  0.4804000000000  0.5826730000000  0.5619610000000 1.0
C      1  0.5688220000000  0.5576990000000  0.5211220000000 1.0
C      1  0.5665270000000  0.4649710000000  0.5294270000000 1.0
C      1  0.4857690000000  0.4215860000000  0.5323970000000 1.0
C      1  0.4274290000000  0.4874360000000  0.5293510000000 1.0
C      1  0.4722260000000  0.5730800000000  0.5307880000000 1.0
C      1  0.4490780000000  0.5259980000000  0.5616240000000 1.0
C      1  0.5145510000000  0.5667210000000  0.5680380000000 1.0
C      1  0.5610450000000  0.5128950000000  0.5695260000000 1.0
C      1  0.5212340000000  0.4509950000000  0.5663420000000 1.0
C      1  0.4605610000000  0.4588430000000  0.5654890000000 1.0
C      1  0.6088030000000  0.4862960000000  0.4865930000000 1.0
C      1  0.5188380000000  0.3909390000000  0.4878010000000 1.0
C      1  0.4045850000000  0.4591730000000  0.4799210000000 1.0
C      1  0.4252240000000  0.5805220000000  0.4902260000000 1.0
C      1  0.5504730000000  0.5949780000000  0.4851010000000 1.0
C      1  0.4420960000000  0.5706260000000  0.5171640000000 1.0
C      1  0.5490940000000  0.5792830000000  0.5140300000000 1.0
C      1  0.5930540000000  0.4798750000000  0.5160700000000 1.0
C      1  0.5108600000000  0.4031770000000  0.5185810000000 1.0
C      1  0.4120580000000  0.4643910000000  0.5122140000000 1.0
C      1  0.4395770000000  0.4988580000000  0.4796270000000 1.0
C      1  0.4795910000000  0.5529960000000  0.4754910000000 1.0
C      1  0.5407620000000  0.5346420000000  0.4836580000000 1.0
C      1  0.5472140000000  0.4590080000000  0.4813490000000 1.0
C      1  0.4831790000000  0.4443980000000  0.4815880000000 1.0
C      1  0.4463950000000  0.5732450000000  0.4662730000000 1.0
C      1  0.5494490000000  0.5783840000000  0.4615400000000 1.0
C      1  0.5867330000000  0.4800310000000  0.4628230000000 1.0
C      1  0.5065820000000  0.4084930000000  0.4633680000000 1.0
C      1  0.4178330000000  0.4729750000000  0.4572990000000 1.0
C      1  0.5092070000000  0.5264310000000  0.4735850000000 1.0
C      1  0.5288480000000  0.4849190000000  0.4713060000000 1.0
C      1  0.4989270000000  0.4695250000000  0.4663160000000 1.0
C      1  0.4763540000000  0.4912300000000  0.4660060000000 1.0
C      1  0.4813580000000  0.5230490000000  0.4589540000000 1.0
C      1  0.4522680000000  0.5247930000000  0.5070570000000 1.0
C      1  0.5027170000000  0.5598380000000  0.5092640000000 1.0
C      1  0.5585880000000  0.4994270000000  0.5110340000000 1.0
C      1  0.5226540000000  0.4413060000000  0.5161390000000 1.0
C      1  0.4650990000000  0.4627900000000  0.5120470000000 1.0
C      1  0.4132840000000  0.5320130000000  0.5385250000000 1.0
C      1  0.5042710000000  0.5948120000000  0.5405250000000 1.0
C      1  0.5850860000000  0.5250490000000  0.5370120000000 1.0
C      1  0.5548030000000  0.4222280000000  0.5398890000000 1.0
C      1  0.4368310000000  0.4264300000000  0.5373830000000 1.0
C      1  0.5230170000000  0.4465910000000  0.4647730000000 1.0
C      1  0.4596180000000  0.4641760000000  0.4706610000000 1.0
C      1  0.4496910000000  0.5208790000000  0.4642660000000 1.0
C      1  0.5118140000000  0.5587940000000  0.4704100000000 1.0
C      1  0.5430080000000  0.5079840000000  0.4632240000000 1.0
C      1  0.4919330000000  0.4622470000000  0.5898560000000 1.0
C      1  0.4627010000000  0.5062970000000  0.5930180000000 1.0
C      1  0.4890460000000  0.5215920000000  0.5858900000000 1.0
C      1  0.5388960000000  0.5229940000000  0.5929350000000 1.0
C      1  0.5172270000000  0.4778790000000  0.5956840000000 1.0
C      1  0.4984270000000  0.4986500000000  0.5296050000000 1.0
C      1  0.4993220000000  0.4914940000000  0.4329370000000 1.0
C      1  0.5134710000000  0.5065960000000  0.5987090000000 1.0
END
