TITL C-2782237-5345-995 -0.00364919106918049 125000 -969.50614119098 0 0 163 (C1) n - 1
REM
REM in /home/nfs/bkarasulu/CARBON/AIRSS/Generating-Clusters/REBO/Higher-Symm/SD-CG/HFTN-CG
REM
REM
REM
REM
REM
REM ./C.cell (12c818d87b63d06a65506943cc24bca4)
REM
REM compiler GCC version 9.2.1 20190827 (Red Hat 9.2.1-1)
REM options -cpp -mtune=generic -march=x86-64 -g -O0 -fpre-include=/usr/include/finclude/math-vector-fortran.h
REM seed -1205296111 1780973098 -1861550752 1164965614 -1005204373 -1295601193 -492350873 -954510874 815711005 659136193 -469453568 747384465 -357689017 -1949297676 -680569679 -449018228 948786780 1490659769 1144625194 -1261423455 -937403041 2003342260 1052739061 1439054113 1298208155 -475743947 -833327205 -1563548635 -2092050664 -495462540 -1306867545 -515571605 -2144587664
REM
CELL 1.54180   50.00000   50.00000   50.00000   90.00000   90.00000   90.00000
LATT -1
SFAC C  
C      1  0.5774120000000  0.5375280000000  0.4647030000000 1.0
C      1  0.4782110000000  0.5929590000000  0.4689700000000 1.0
C      1  0.4079870000000  0.5157860000000  0.4660950000000 1.0
C      1  0.4695430000000  0.4134490000000  0.4666000000000 1.0
C      1  0.5722820000000  0.4351210000000  0.4712440000000 1.0
C      1  0.5868360000000  0.5489780000000  0.5269420000000 1.0
C      1  0.4774760000000  0.5917350000000  0.5317860000000 1.0
C      1  0.4003110000000  0.5095380000000  0.5340310000000 1.0
C      1  0.4640850000000  0.4121930000000  0.5333590000000 1.0
C      1  0.5735350000000  0.4368800000000  0.5352010000000 1.0
C      1  0.6198460000000  0.5116080000000  0.5254470000000 1.0
C      1  0.5387060000000  0.6025830000000  0.5086720000000 1.0
C      1  0.3961830000000  0.5646600000000  0.5322200000000 1.0
C      1  0.4135120000000  0.4316100000000  0.5096020000000 1.0
C      1  0.5363500000000  0.3884640000000  0.5153560000000 1.0
C      1  0.6015800000000  0.4832010000000  0.4827410000000 1.0
C      1  0.5373970000000  0.6068380000000  0.4780590000000 1.0
C      1  0.4284230000000  0.5687810000000  0.4781710000000 1.0
C      1  0.4111010000000  0.4322020000000  0.4793540000000 1.0
C      1  0.5270970000000  0.3907490000000  0.4849010000000 1.0
C      1  0.5198550000000  0.5108860000000  0.6087560000000 1.0
C      1  0.4916680000000  0.5204420000000  0.6125940000000 1.0
C      1  0.4734240000000  0.4975830000000  0.6170300000000 1.0
C      1  0.4905840000000  0.4750300000000  0.6089650000000 1.0
C      1  0.5190910000000  0.4814900000000  0.6104050000000 1.0
C      1  0.5204380000000  0.5083620000000  0.3800950000000 1.0
C      1  0.4933090000000  0.5202140000000  0.3840820000000 1.0
C      1  0.4721130000000  0.5002250000000  0.3871250000000 1.0
C      1  0.4856470000000  0.4742960000000  0.3877260000000 1.0
C      1  0.5141700000000  0.4802830000000  0.3869850000000 1.0
C      1  0.4252140000000  0.5711260000000  0.4475320000000 1.0
C      1  0.4115380000000  0.4493420000000  0.4581800000000 1.0
C      1  0.5141360000000  0.4010790000000  0.4568360000000 1.0
C      1  0.5999680000000  0.4940990000000  0.4543820000000 1.0
C      1  0.5436120000000  0.5930450000000  0.4552150000000 1.0
C      1  0.4121570000000  0.5679080000000  0.5549780000000 1.0
C      1  0.4088330000000  0.4561940000000  0.5280230000000 1.0
C      1  0.5130540000000  0.3926530000000  0.5350350000000 1.0
C      1  0.6046900000000  0.4964280000000  0.5416580000000 1.0
C      1  0.5577900000000  0.5877180000000  0.5232010000000 1.0
C      1  0.5271810000000  0.5114450000000  0.4939080000000 1.0
C      1  0.5008140000000  0.5465270000000  0.4876460000000 1.0
C      1  0.4613020000000  0.5165460000000  0.4887060000000 1.0
C      1  0.4752680000000  0.4621640000000  0.4858720000000 1.0
C      1  0.5288330000000  0.4627840000000  0.4906350000000 1.0
C      1  0.5436300000000  0.5045570000000  0.5186990000000 1.0
C      1  0.5105740000000  0.5479690000000  0.5202430000000 1.0
C      1  0.4569490000000  0.5236010000000  0.5215530000000 1.0
C      1  0.4674150000000  0.4705760000000  0.5123920000000 1.0
C      1  0.5196720000000  0.4533750000000  0.5220820000000 1.0
C      1  0.4935840000000  0.3985270000000  0.4838610000000 1.0
C      1  0.5936660000000  0.4510240000000  0.4906990000000 1.0
C      1  0.5744950000000  0.5663390000000  0.4824150000000 1.0
C      1  0.4513540000000  0.5921110000000  0.4882250000000 1.0
C      1  0.4013950000000  0.4912940000000  0.4881280000000 1.0
C      1  0.4900070000000  0.4033270000000  0.5162980000000 1.0
C      1  0.5960450000000  0.4431540000000  0.5185380000000 1.0
C      1  0.5791400000000  0.5736990000000  0.5099830000000 1.0
C      1  0.4554100000000  0.6000260000000  0.5156640000000 1.0
C      1  0.3946420000000  0.4847010000000  0.5158260000000 1.0
C      1  0.4198930000000  0.5003570000000  0.5607930000000 1.0
C      1  0.4678330000000  0.4286700000000  0.5630990000000 1.0
C      1  0.5607350000000  0.4535120000000  0.5621780000000 1.0
C      1  0.5697930000000  0.5474640000000  0.5565360000000 1.0
C      1  0.4747140000000  0.5697570000000  0.5573320000000 1.0
C      1  0.4278050000000  0.5090660000000  0.4390140000000 1.0
C      1  0.4717010000000  0.4311420000000  0.4373660000000 1.0
C      1  0.5598100000000  0.4498420000000  0.4430760000000 1.0
C      1  0.5625070000000  0.5358100000000  0.4344320000000 1.0
C      1  0.4831920000000  0.5759470000000  0.4398860000000 1.0
C      1  0.4675030000000  0.5501970000000  0.5092780000000 1.0
C      1  0.4431890000000  0.4876450000000  0.5110920000000 1.0
C      1  0.4913250000000  0.4355110000000  0.5159550000000 1.0
C      1  0.5592430000000  0.4793050000000  0.5141880000000 1.0
C      1  0.5392340000000  0.5467510000000  0.5077440000000 1.0
C      1  0.4599030000000  0.5613120000000  0.4850750000000 1.0
C      1  0.4309540000000  0.4906020000000  0.4866270000000 1.0
C      1  0.5021600000000  0.4454160000000  0.4873350000000 1.0
C      1  0.5698770000000  0.4730030000000  0.4887530000000 1.0
C      1  0.5465720000000  0.5560880000000  0.4817270000000 1.0
C      1  0.5048110000000  0.5721300000000  0.4732170000000 1.0
C      1  0.4379270000000  0.5294400000000  0.4725220000000 1.0
C      1  0.4561820000000  0.4441970000000  0.4718320000000 1.0
C      1  0.5393980000000  0.4379320000000  0.4750490000000 1.0
C      1  0.5571780000000  0.5132470000000  0.4778530000000 1.0
C      1  0.5059350000000  0.5742820000000  0.5333030000000 1.0
C      1  0.4296780000000  0.5264430000000  0.5323560000000 1.0
C      1  0.4606300000000  0.4442760000000  0.5272090000000 1.0
C      1  0.5395900000000  0.4347950000000  0.5341980000000 1.0
C      1  0.5614410000000  0.5294300000000  0.5221890000000 1.0
C      1  0.4035730000000  0.5384270000000  0.5159400000000 1.0
C      1  0.4375840000000  0.4134000000000  0.5166470000000 1.0
C      1  0.5579700000000  0.4117260000000  0.5196440000000 1.0
C      1  0.6047770000000  0.5287500000000  0.5101950000000 1.0
C      1  0.5066480000000  0.6023440000000  0.5177630000000 1.0
C      1  0.4104690000000  0.5424480000000  0.4874110000000 1.0
C      1  0.4407910000000  0.4169760000000  0.4844810000000 1.0
C      1  0.5538290000000  0.4116890000000  0.4881060000000 1.0
C      1  0.5902710000000  0.5150930000000  0.4868740000000 1.0
C      1  0.5057370000000  0.6027800000000  0.4863400000000 1.0
C      1  0.5026470000000  0.5524450000000  0.5666210000000 1.0
C      1  0.4396990000000  0.5195910000000  0.5811480000000 1.0
C      1  0.4529160000000  0.4576800000000  0.5732640000000 1.0
C      1  0.5310750000000  0.4441230000000  0.5720110000000 1.0
C      1  0.5629840000000  0.5185020000000  0.5732730000000 1.0
C      1  0.5096130000000  0.5643080000000  0.4222320000000 1.0
C      1  0.4461060000000  0.5314530000000  0.4206870000000 1.0
C      1  0.4514810000000  0.4541940000000  0.4223860000000 1.0
C      1  0.5310710000000  0.4445090000000  0.4252270000000 1.0
C      1  0.5643350000000  0.5062980000000  0.4195070000000 1.0
C      1  0.5207380000000  0.5181080000000  0.4623170000000 1.0
C      1  0.4902460000000  0.5263450000000  0.4614970000000 1.0
C      1  0.4742690000000  0.4990350000000  0.4625600000000 1.0
C      1  0.4946230000000  0.4758440000000  0.4625760000000 1.0
C      1  0.5242060000000  0.4848250000000  0.4649880000000 1.0
C      1  0.5234390000000  0.5023540000000  0.5398510000000 1.0
C      1  0.5041300000000  0.5238930000000  0.5382990000000 1.0
C      1  0.4786140000000  0.5113210000000  0.5376250000000 1.0
C      1  0.4830570000000  0.4837250000000  0.5345430000000 1.0
C      1  0.5100900000000  0.4772520000000  0.5384050000000 1.0
C      1  0.5508090000000  0.5744160000000  0.5500920000000 1.0
C      1  0.4439800000000  0.5676020000000  0.5666600000000 1.0
C      1  0.4285380000000  0.4817910000000  0.5365070000000 1.0
C      1  0.4943050000000  0.4079890000000  0.5591050000000 1.0
C      1  0.5793240000000  0.4760800000000  0.5465150000000 1.0
C      1  0.5386960000000  0.5410380000000  0.4553880000000 1.0
C      1  0.4729950000000  0.5522080000000  0.4594940000000 1.0
C      1  0.4438970000000  0.4897880000000  0.4593280000000 1.0
C      1  0.4936380000000  0.4437280000000  0.4557570000000 1.0
C      1  0.5544840000000  0.4763240000000  0.4625010000000 1.0
C      1  0.5213530000000  0.4303250000000  0.4519710000000 1.0
C      1  0.5719030000000  0.5001420000000  0.4497720000000 1.0
C      1  0.5246760000000  0.5684550000000  0.4502390000000 1.0
C      1  0.4440960000000  0.5469830000000  0.4478880000000 1.0
C      1  0.4403010000000  0.4600600000000  0.4516960000000 1.0
C      1  0.5266990000000  0.4151490000000  0.5562680000000 1.0
C      1  0.5738020000000  0.5095990000000  0.5444180000000 1.0
C      1  0.5209300000000  0.5806330000000  0.5608880000000 1.0
C      1  0.4279000000000  0.5395140000000  0.5599580000000 1.0
C      1  0.4383070000000  0.4529140000000  0.5456130000000 1.0
C      1  0.4780330000000  0.4527220000000  0.4044590000000 1.0
C      1  0.5256210000000  0.4750230000000  0.4151200000000 1.0
C      1  0.5401600000000  0.5218110000000  0.4043920000000 1.0
C      1  0.4978210000000  0.5356810000000  0.4105870000000 1.0
C      1  0.4500560000000  0.5049030000000  0.4043830000000 1.0
C      1  0.4849220000000  0.4670290000000  0.5785980000000 1.0
C      1  0.5328780000000  0.4743470000000  0.5818560000000 1.0
C      1  0.5308570000000  0.5175810000000  0.5797360000000 1.0
C      1  0.4917500000000  0.5252700000000  0.5806370000000 1.0
C      1  0.4480520000000  0.4990750000000  0.6047030000000 1.0
C      1  0.4992220000000  0.4397800000000  0.5708910000000 1.0
C      1  0.5610380000000  0.4858500000000  0.5737290000000 1.0
C      1  0.5359490000000  0.5455950000000  0.5627290000000 1.0
C      1  0.4650700000000  0.5410970000000  0.5737710000000 1.0
C      1  0.4348790000000  0.4804820000000  0.5840660000000 1.0
C      1  0.4994480000000  0.4347100000000  0.4174710000000 1.0
C      1  0.5560940000000  0.4755250000000  0.4225940000000 1.0
C      1  0.5393210000000  0.5522760000000  0.4156970000000 1.0
C      1  0.4721170000000  0.5508460000000  0.4197820000000 1.0
C      1  0.4364980000000  0.4825940000000  0.4191100000000 1.0
C      1  0.5133920000000  0.5065360000000  0.4190230000000 1.0
C      1  0.5055120000000  0.4944150000000  0.5752720000000 1.0
C      1  0.4937750000000  0.5154350000000  0.4994770000000 1.0
END
