TITL C-2782238-9940-65 -0.00363608622206051 125000 -1118.77116591819 0 0 197 (C1) n - 1
REM
REM in /home/nfs/bkarasulu/CARBON/AIRSS/Generating-Clusters/REBO/Higher-Symm/SD-CG/HFTN-CG
REM
REM
REM
REM
REM
REM ./C.cell (12c818d87b63d06a65506943cc24bca4)
REM
REM compiler GCC version 9.2.1 20190827 (Red Hat 9.2.1-1)
REM options -cpp -mtune=generic -march=x86-64 -g -O0 -fpre-include=/usr/include/finclude/math-vector-fortran.h
REM seed 2065006918 901808484 -1624620897 1959646358 -766403174 -1056246957 -507004853 605128488 353145029 -2112065886 -42415184 1230504442 914999217 -393250630 -1809165972 500547498 1976075685 1408136635 -1056790730 -1014856308 1788169981 745887055 -287041153 -199164736 1058697578 -1579129250 963543196 -2119142902 -682999461 1315286679 -63032107 -2068441951 1964453113
REM
CELL 1.54180   50.00000   50.00000   50.00000   90.00000   90.00000   90.00000
LATT -1
SFAC C  
C      1  0.5566250000000  0.4581000000000  0.5398470000000 1.0
C      1  0.5503140000000  0.5447100000000  0.5091160000000 1.0
C      1  0.5499930000000  0.4845280000000  0.4543710000000 1.0
C      1  0.4452100000000  0.4635110000000  0.5360780000000 1.0
C      1  0.4472960000000  0.5472010000000  0.5071310000000 1.0
C      1  0.4485820000000  0.4865810000000  0.4537220000000 1.0
C      1  0.4531660000000  0.6019600000000  0.4956540000000 1.0
C      1  0.4562030000000  0.4454070000000  0.4154660000000 1.0
C      1  0.4650020000000  0.4545380000000  0.5882920000000 1.0
C      1  0.5366030000000  0.5995810000000  0.5007090000000 1.0
C      1  0.5406310000000  0.4456200000000  0.4133220000000 1.0
C      1  0.5482530000000  0.4514040000000  0.5946120000000 1.0
C      1  0.5256640000000  0.4361850000000  0.4990670000000 1.0
C      1  0.5046500000000  0.5279740000000  0.5571580000000 1.0
C      1  0.5144140000000  0.5357730000000  0.4438580000000 1.0
C      1  0.4965410000000  0.4386260000000  0.4995620000000 1.0
C      1  0.4739990000000  0.5275920000000  0.5587700000000 1.0
C      1  0.4859920000000  0.5354880000000  0.4442270000000 1.0
C      1  0.4447560000000  0.4035180000000  0.5400240000000 1.0
C      1  0.4299690000000  0.5820500000000  0.5619100000000 1.0
C      1  0.4365330000000  0.5156610000000  0.4008300000000 1.0
C      1  0.5641040000000  0.3982180000000  0.5439300000000 1.0
C      1  0.5636270000000  0.5740470000000  0.5650860000000 1.0
C      1  0.5653580000000  0.5139930000000  0.3984570000000 1.0
C      1  0.5198660000000  0.4898240000000  0.5524550000000 1.0
C      1  0.5166490000000  0.5542300000000  0.4791960000000 1.0
C      1  0.5203900000000  0.4569230000000  0.4652800000000 1.0
C      1  0.4890500000000  0.4921990000000  0.5485630000000 1.0
C      1  0.4902900000000  0.5544770000000  0.4790860000000 1.0
C      1  0.4937230000000  0.4618080000000  0.4673550000000 1.0
C      1  0.5865220000000  0.4884180000000  0.5700820000000 1.0
C      1  0.5868950000000  0.5633720000000  0.4735840000000 1.0
C      1  0.5867950000000  0.4355690000000  0.4567510000000 1.0
C      1  0.4147790000000  0.4935360000000  0.5724170000000 1.0
C      1  0.4121090000000  0.5686740000000  0.4717080000000 1.0
C      1  0.4164280000000  0.4437990000000  0.4563040000000 1.0
C      1  0.6007800000000  0.4265610000000  0.5581330000000 1.0
C      1  0.5950090000000  0.5833610000000  0.5310270000000 1.0
C      1  0.5939910000000  0.4801930000000  0.4144550000000 1.0
C      1  0.4091490000000  0.4314530000000  0.5552390000000 1.0
C      1  0.3975740000000  0.5833300000000  0.5271890000000 1.0
C      1  0.3994500000000  0.4874590000000  0.4110540000000 1.0
C      1  0.5150860000000  0.3922780000000  0.4848930000000 1.0
C      1  0.5252230000000  0.5469480000000  0.6054690000000 1.0
C      1  0.5125260000000  0.5731810000000  0.4159180000000 1.0
C      1  0.4842460000000  0.3971840000000  0.4827720000000 1.0
C      1  0.4934480000000  0.5479280000000  0.6039220000000 1.0
C      1  0.4809050000000  0.5726220000000  0.4158290000000 1.0
C      1  0.4270060000000  0.4906040000000  0.4056390000000 1.0
C      1  0.4360260000000  0.4222100000000  0.5584030000000 1.0
C      1  0.4240080000000  0.5885250000000  0.5359050000000 1.0
C      1  0.5680580000000  0.4870940000000  0.4050450000000 1.0
C      1  0.5740570000000  0.4169570000000  0.5616070000000 1.0
C      1  0.5680790000000  0.5852100000000  0.5397330000000 1.0
C      1  0.5467400000000  0.4755050000000  0.4230490000000 1.0
C      1  0.5549530000000  0.4393120000000  0.5664060000000 1.0
C      1  0.5474670000000  0.5767800000000  0.5195890000000 1.0
C      1  0.4454230000000  0.4749320000000  0.4221950000000 1.0
C      1  0.4550910000000  0.4455870000000  0.5599000000000 1.0
C      1  0.4456400000000  0.5800020000000  0.5169250000000 1.0
C      1  0.4441830000000  0.4843100000000  0.5629760000000 1.0
C      1  0.4427350000000  0.5651710000000  0.4801170000000 1.0
C      1  0.4466680000000  0.4547130000000  0.4564360000000 1.0
C      1  0.5556700000000  0.4791690000000  0.5667420000000 1.0
C      1  0.5552490000000  0.5641500000000  0.4825130000000 1.0
C      1  0.5589810000000  0.4517740000000  0.4566070000000 1.0
C      1  0.4543650000000  0.3955650000000  0.4563740000000 1.0
C      1  0.4504730000000  0.5143250000000  0.6114260000000 1.0
C      1  0.4482470000000  0.5914670000000  0.4287430000000 1.0
C      1  0.5468840000000  0.3869500000000  0.4613640000000 1.0
C      1  0.5452270000000  0.5132580000000  0.6126520000000 1.0
C      1  0.5471980000000  0.5900350000000  0.4262540000000 1.0
C      1  0.4882890000000  0.5738240000000  0.5882590000000 1.0
C      1  0.4746500000000  0.5533060000000  0.3910340000000 1.0
C      1  0.4867460000000  0.3910300000000  0.5129280000000 1.0
C      1  0.5205590000000  0.5733930000000  0.5897750000000 1.0
C      1  0.5065090000000  0.5510160000000  0.3946230000000 1.0
C      1  0.5176130000000  0.3825210000000  0.5152430000000 1.0
C      1  0.6025410000000  0.4741440000000  0.5442860000000 1.0
C      1  0.6053420000000  0.5495260000000  0.4983210000000 1.0
C      1  0.5987260000000  0.4734410000000  0.4621350000000 1.0
C      1  0.4076920000000  0.4772390000000  0.5371490000000 1.0
C      1  0.3923200000000  0.5456170000000  0.4977550000000 1.0
C      1  0.3902460000000  0.4791510000000  0.4580410000000 1.0
C      1  0.5621730000000  0.4391100000000  0.5162830000000 1.0
C      1  0.5584420000000  0.5360870000000  0.5390140000000 1.0
C      1  0.5564960000000  0.5148970000000  0.4586270000000 1.0
C      1  0.4356890000000  0.4464880000000  0.5136230000000 1.0
C      1  0.4389360000000  0.5385430000000  0.5362240000000 1.0
C      1  0.4486820000000  0.5200110000000  0.4561600000000 1.0
C      1  0.4082700000000  0.5429780000000  0.4226710000000 1.0
C      1  0.4101940000000  0.4094560000000  0.4955510000000 1.0
C      1  0.4113000000000  0.5455230000000  0.5753230000000 1.0
C      1  0.5778970000000  0.5334270000000  0.4199930000000 1.0
C      1  0.5908730000000  0.4060600000000  0.5023480000000 1.0
C      1  0.5793880000000  0.5484540000000  0.5726510000000 1.0
C      1  0.4814190000000  0.4535570000000  0.5229360000000 1.0
C      1  0.4786750000000  0.5469750000000  0.5313660000000 1.0
C      1  0.4790570000000  0.5050410000000  0.4356150000000 1.0
C      1  0.5197110000000  0.4470280000000  0.5308680000000 1.0
C      1  0.5183340000000  0.5434840000000  0.5326610000000 1.0
C      1  0.5207330000000  0.5034360000000  0.4346640000000 1.0
C      1  0.3939090000000  0.5254990000000  0.4406060000000 1.0
C      1  0.4029640000000  0.4393700000000  0.5054120000000 1.0
C      1  0.4059300000000  0.5386810000000  0.5440830000000 1.0
C      1  0.5875050000000  0.5180270000000  0.4449160000000 1.0
C      1  0.5946430000000  0.4365510000000  0.5112090000000 1.0
C      1  0.5920010000000  0.5368800000000  0.5455440000000 1.0
C      1  0.4811300000000  0.6049430000000  0.4937910000000 1.0
C      1  0.4851810000000  0.4447130000000  0.4149080000000 1.0
C      1  0.4934070000000  0.4556850000000  0.5894490000000 1.0
C      1  0.5081690000000  0.5994570000000  0.4987670000000 1.0
C      1  0.5128910000000  0.4391280000000  0.4123020000000 1.0
C      1  0.5205140000000  0.4565320000000  0.5973870000000 1.0
C      1  0.5630720000000  0.5480460000000  0.4543190000000 1.0
C      1  0.5664580000000  0.4314000000000  0.4833620000000 1.0
C      1  0.5633870000000  0.5122010000000  0.5622270000000 1.0
C      1  0.4313710000000  0.5476490000000  0.4548390000000 1.0
C      1  0.4352960000000  0.4373700000000  0.4821950000000 1.0
C      1  0.4356270000000  0.5172860000000  0.5612230000000 1.0
C      1  0.4828910000000  0.5219870000000  0.5895320000000 1.0
C      1  0.4739200000000  0.5601070000000  0.4411960000000 1.0
C      1  0.4813730000000  0.4255190000000  0.4799020000000 1.0
C      1  0.5169270000000  0.5213180000000  0.5856930000000 1.0
C      1  0.5227180000000  0.5618350000000  0.4404230000000 1.0
C      1  0.5285170000000  0.4177270000000  0.4790380000000 1.0
C      1  0.5926440000000  0.5197840000000  0.4944980000000 1.0
C      1  0.5738640000000  0.4757900000000  0.4849160000000 1.0
C      1  0.5763420000000  0.4914650000000  0.5305800000000 1.0
C      1  0.4177670000000  0.5287150000000  0.4873110000000 1.0
C      1  0.4094150000000  0.4838650000000  0.4822640000000 1.0
C      1  0.4308160000000  0.4982760000000  0.5235220000000 1.0
C      1  0.4793630000000  0.4763200000000  0.4253670000000 1.0
C      1  0.4888150000000  0.4500040000000  0.5559900000000 1.0
C      1  0.4797070000000  0.5761430000000  0.5142920000000 1.0
C      1  0.5127300000000  0.4725570000000  0.4228780000000 1.0
C      1  0.5223950000000  0.4494560000000  0.5628490000000 1.0
C      1  0.5134300000000  0.5717920000000  0.5177130000000 1.0
C      1  0.5559980000000  0.5294110000000  0.5883930000000 1.0
C      1  0.5589930000000  0.5603880000000  0.4245150000000 1.0
C      1  0.5612920000000  0.3981930000000  0.4893300000000 1.0
C      1  0.4407540000000  0.5346960000000  0.5887580000000 1.0
C      1  0.4363540000000  0.5620740000000  0.4256780000000 1.0
C      1  0.4414340000000  0.4050320000000  0.4828000000000 1.0
C      1  0.5150720000000  0.4132140000000  0.5297530000000 1.0
C      1  0.5123480000000  0.5668150000000  0.5573440000000 1.0
C      1  0.5141800000000  0.5217220000000  0.4066810000000 1.0
C      1  0.4813750000000  0.4195550000000  0.5306430000000 1.0
C      1  0.4782400000000  0.5671050000000  0.5591180000000 1.0
C      1  0.4800480000000  0.5237360000000  0.4068080000000 1.0
C      1  0.5289490000000  0.4006050000000  0.4432810000000 1.0
C      1  0.5223610000000  0.4943730000000  0.6145710000000 1.0
C      1  0.5252210000000  0.6014530000000  0.4425280000000 1.0
C      1  0.4750670000000  0.4095100000000  0.4439640000000 1.0
C      1  0.4692090000000  0.4915570000000  0.6104980000000 1.0
C      1  0.4701350000000  0.5994110000000  0.4455450000000 1.0
C      1  0.4021270000000  0.4502440000000  0.5349890000000 1.0
C      1  0.3915980000000  0.5558490000000  0.5236250000000 1.0
C      1  0.3893960000000  0.4971450000000  0.4359250000000 1.0
C      1  0.6058300000000  0.4451940000000  0.5383420000000 1.0
C      1  0.6043520000000  0.5579100000000  0.5263480000000 1.0
C      1  0.5992260000000  0.4901050000000  0.4404560000000 1.0
C      1  0.4861970000000  0.5154540000000  0.5231900000000 1.0
C      1  0.4834180000000  0.5054680000000  0.4695980000000 1.0
C      1  0.4839270000000  0.4760190000000  0.4967950000000 1.0
C      1  0.5197460000000  0.5104480000000  0.5249860000000 1.0
C      1  0.5159770000000  0.5051730000000  0.4683540000000 1.0
C      1  0.5157610000000  0.4725840000000  0.5086080000000 1.0
C      1  0.4477830000000  0.5567790000000  0.5636350000000 1.0
C      1  0.4515600000000  0.5317570000000  0.4242490000000 1.0
C      1  0.4528600000000  0.4172290000000  0.5118720000000 1.0
C      1  0.5406460000000  0.5494840000000  0.5650420000000 1.0
C      1  0.5436850000000  0.5363700000000  0.4057200000000 1.0
C      1  0.5471320000000  0.4087720000000  0.5187070000000 1.0
C      1  0.5403150000000  0.4726260000000  0.4850260000000 1.0
C      1  0.5440240000000  0.4874000000000  0.5296710000000 1.0
C      1  0.5362190000000  0.5285030000000  0.4826180000000 1.0
C      1  0.4576170000000  0.4930910000000  0.4850740000000 1.0
C      1  0.4621380000000  0.4919730000000  0.5283410000000 1.0
C      1  0.4661650000000  0.5320350000000  0.4830310000000 1.0
C      1  0.5344080000000  0.4315740000000  0.4500540000000 1.0
C      1  0.5301880000000  0.4921580000000  0.5822500000000 1.0
C      1  0.5322160000000  0.5796650000000  0.4663990000000 1.0
C      1  0.4736540000000  0.4416110000000  0.4530840000000 1.0
C      1  0.4718440000000  0.4921780000000  0.5768190000000 1.0
C      1  0.4685580000000  0.5765680000000  0.4688880000000 1.0
C      1  0.4035080000000  0.5090030000000  0.5390740000000 1.0
C      1  0.3930360000000  0.5342870000000  0.4674180000000 1.0
C      1  0.3923010000000  0.4578220000000  0.4841540000000 1.0
C      1  0.6002240000000  0.5085590000000  0.5467900000000 1.0
C      1  0.6008980000000  0.5337850000000  0.4663380000000 1.0
C      1  0.5989600000000  0.4541810000000  0.4879320000000 1.0
C      1  0.5007210000000  0.3981550000000  0.4378250000000 1.0
C      1  0.4955320000000  0.4894600000000  0.6220930000000 1.0
C      1  0.4972930000000  0.6078300000000  0.4404470000000 1.0
C      1  0.4294350000000  0.5019540000000  0.4940100000000 1.0
C      1  0.5819110000000  0.4983830000000  0.5023220000000 1.0
END
