TITL C-2782240-8521-219 0.00085646497971727 125000 -1092.647167602 0 0 187 (C1) n - 1
REM
REM in /home/nfs/bkarasulu/CARBON/AIRSS/Generating-Clusters/REBO/Higher-Symm/SD-CG/HFTN-CG
REM
REM
REM
REM
REM
REM ./C.cell (12c818d87b63d06a65506943cc24bca4)
REM
REM compiler GCC version 9.2.1 20190827 (Red Hat 9.2.1-1)
REM options -cpp -mtune=generic -march=x86-64 -g -O0 -fpre-include=/usr/include/finclude/math-vector-fortran.h
REM seed 1567438981 647197472 47616459 965132803 -2098946863 -1648169869 -551427328 247214202 1033778558 1544747982 1984737945 -523656515 504086483 -1586639415 -970336135 80962106 -320285530 81213553 1556555938 478092785 664570966 912088023 351717089 -1469175206 -25762738 2030693548 -1131951647 -932905870 -548632714 1541286794 -2002691551 1964803036 -1157814529
REM
CELL 1.54180   50.00000   50.00000   50.00000   90.00000   90.00000   90.00000
LATT -1
SFAC C  
C      1  0.5009490000000  0.5120290000000  0.5379160000000 1.0
C      1  0.5078380000000  0.4874450000000  0.4613660000000 1.0
C      1  0.4954450000000  0.6044690000000  0.4772730000000 1.0
C      1  0.5019360000000  0.3958820000000  0.5224190000000 1.0
C      1  0.5020560000000  0.5821030000000  0.5012630000000 1.0
C      1  0.4891320000000  0.4199400000000  0.5031870000000 1.0
C      1  0.5100650000000  0.4837380000000  0.3889410000000 1.0
C      1  0.4922730000000  0.5067520000000  0.6261390000000 1.0
C      1  0.4667250000000  0.5529230000000  0.4493480000000 1.0
C      1  0.5320390000000  0.4408490000000  0.5535640000000 1.0
C      1  0.5139200000000  0.5091680000000  0.4383050000000 1.0
C      1  0.4842570000000  0.4968150000000  0.5608160000000 1.0
C      1  0.5933210000000  0.5677610000000  0.4604820000000 1.0
C      1  0.4069040000000  0.4378320000000  0.5376540000000 1.0
C      1  0.5196350000000  0.4928520000000  0.6149470000000 1.0
C      1  0.4886940000000  0.5020210000000  0.3830170000000 1.0
C      1  0.4774620000000  0.5400260000000  0.5012710000000 1.0
C      1  0.5115040000000  0.4652490000000  0.5097890000000 1.0
C      1  0.4697810000000  0.4016340000000  0.4575540000000 1.0
C      1  0.5238430000000  0.6075130000000  0.5411920000000 1.0
C      1  0.5618290000000  0.4637400000000  0.5061770000000 1.0
C      1  0.4443350000000  0.5326350000000  0.4922300000000 1.0
C      1  0.4612210000000  0.5552200000000  0.5941660000000 1.0
C      1  0.5453060000000  0.4469460000000  0.4068590000000 1.0
C      1  0.5116890000000  0.5567190000000  0.3990360000000 1.0
C      1  0.4875040000000  0.4514610000000  0.5983920000000 1.0
C      1  0.4930780000000  0.4406740000000  0.5449650000000 1.0
C      1  0.5050010000000  0.5587860000000  0.4589250000000 1.0
C      1  0.5408620000000  0.4922420000000  0.4380730000000 1.0
C      1  0.4590380000000  0.5118120000000  0.5633330000000 1.0
C      1  0.4588040000000  0.3930770000000  0.4818890000000 1.0
C      1  0.5364030000000  0.6129790000000  0.5180960000000 1.0
C      1  0.4861300000000  0.4869290000000  0.5029660000000 1.0
C      1  0.5223990000000  0.5200550000000  0.4978010000000 1.0
C      1  0.5069080000000  0.4758670000000  0.4174860000000 1.0
C      1  0.5035830000000  0.5252470000000  0.5992780000000 1.0
C      1  0.6068150000000  0.4733970000000  0.4443280000000 1.0
C      1  0.4108160000000  0.5232490000000  0.5395530000000 1.0
C      1  0.5226000000000  0.4410180000000  0.5831500000000 1.0
C      1  0.4792120000000  0.5491380000000  0.4205790000000 1.0
C      1  0.5301020000000  0.4366080000000  0.5071290000000 1.0
C      1  0.4643350000000  0.5673070000000  0.4918590000000 1.0
C      1  0.4728390000000  0.5298220000000  0.6123860000000 1.0
C      1  0.5398620000000  0.4737950000000  0.3949390000000 1.0
C      1  0.4350000000000  0.5639380000000  0.4807860000000 1.0
C      1  0.5618280000000  0.4342010000000  0.5171800000000 1.0
C      1  0.5222180000000  0.4679590000000  0.5419470000000 1.0
C      1  0.4769240000000  0.5314270000000  0.4691330000000 1.0
C      1  0.4905080000000  0.5716930000000  0.5875380000000 1.0
C      1  0.5174960000000  0.4284080000000  0.4122970000000 1.0
C      1  0.5228050000000  0.5055520000000  0.5233700000000 1.0
C      1  0.4776130000000  0.4785940000000  0.4714840000000 1.0
C      1  0.4939150000000  0.4329060000000  0.4753540000000 1.0
C      1  0.5069980000000  0.5629480000000  0.5281710000000 1.0
C      1  0.3953030000000  0.4850030000000  0.4472670000000 1.0
C      1  0.5950180000000  0.5066960000000  0.5439650000000 1.0
C      1  0.4361860000000  0.4286570000000  0.5442130000000 1.0
C      1  0.5627070000000  0.5777000000000  0.4567790000000 1.0
C      1  0.3980370000000  0.4353980000000  0.5113290000000 1.0
C      1  0.6007800000000  0.5686660000000  0.4878250000000 1.0
C      1  0.5806130000000  0.4108020000000  0.5125770000000 1.0
C      1  0.4161970000000  0.5899800000000  0.4841690000000 1.0
C      1  0.5249500000000  0.6045610000000  0.4686060000000 1.0
C      1  0.4716170000000  0.3980350000000  0.5316850000000 1.0
C      1  0.5141350000000  0.3799210000000  0.4983380000000 1.0
C      1  0.4839540000000  0.6202250000000  0.5025150000000 1.0
C      1  0.4644840000000  0.4166690000000  0.5586980000000 1.0
C      1  0.5316970000000  0.5845500000000  0.4441190000000 1.0
C      1  0.4577190000000  0.4921340000000  0.5182810000000 1.0
C      1  0.5479020000000  0.5111100000000  0.4816880000000 1.0
C      1  0.5385300000000  0.5400690000000  0.4694810000000 1.0
C      1  0.4624100000000  0.4641150000000  0.5346950000000 1.0
C      1  0.5228600000000  0.3955940000000  0.4773380000000 1.0
C      1  0.4743190000000  0.6040530000000  0.5226880000000 1.0
C      1  0.5632410000000  0.5822100000000  0.4894280000000 1.0
C      1  0.4362390000000  0.4241300000000  0.5116060000000 1.0
C      1  0.4015580000000  0.5461760000000  0.4955920000000 1.0
C      1  0.5995630000000  0.4455880000000  0.5073130000000 1.0
C      1  0.5241050000000  0.5368360000000  0.4423620000000 1.0
C      1  0.4788840000000  0.4656080000000  0.5621520000000 1.0
C      1  0.4538790000000  0.3999200000000  0.5088090000000 1.0
C      1  0.5430640000000  0.6053240000000  0.4914990000000 1.0
C      1  0.5215080000000  0.5593100000000  0.5900340000000 1.0
C      1  0.4884420000000  0.4431190000000  0.4040600000000 1.0
C      1  0.4147210000000  0.5592330000000  0.5207500000000 1.0
C      1  0.5859570000000  0.4412450000000  0.4771760000000 1.0
C      1  0.5613530000000  0.4934960000000  0.4618760000000 1.0
C      1  0.4427720000000  0.5117620000000  0.5366930000000 1.0
C      1  0.5607070000000  0.5518980000000  0.5699160000000 1.0
C      1  0.4439000000000  0.4427690000000  0.4313390000000 1.0
C      1  0.5643350000000  0.4656260000000  0.4748370000000 1.0
C      1  0.4422970000000  0.5422370000000  0.5247360000000 1.0
C      1  0.4378840000000  0.4695510000000  0.4106070000000 1.0
C      1  0.5639930000000  0.5284110000000  0.5835780000000 1.0
C      1  0.4725910000000  0.4384840000000  0.5199730000000 1.0
C      1  0.5184580000000  0.5571840000000  0.4901600000000 1.0
C      1  0.4184040000000  0.4330270000000  0.4836750000000 1.0
C      1  0.5818430000000  0.5727610000000  0.5164560000000 1.0
C      1  0.5387460000000  0.4614220000000  0.4530390000000 1.0
C      1  0.4648910000000  0.5420420000000  0.5505400000000 1.0
C      1  0.4511950000000  0.4497700000000  0.4988520000000 1.0
C      1  0.5475310000000  0.5569600000000  0.5041830000000 1.0
C      1  0.4893100000000  0.5113840000000  0.4217370000000 1.0
C      1  0.5133350000000  0.4855620000000  0.5655080000000 1.0
C      1  0.5331990000000  0.5561650000000  0.5414310000000 1.0
C      1  0.4679640000000  0.4502370000000  0.4717060000000 1.0
C      1  0.4377140000000  0.4788370000000  0.4705420000000 1.0
C      1  0.5646910000000  0.5077910000000  0.5286060000000 1.0
C      1  0.5412040000000  0.4156830000000  0.4851780000000 1.0
C      1  0.4541680000000  0.5867640000000  0.5139060000000 1.0
C      1  0.5850390000000  0.5169540000000  0.4682360000000 1.0
C      1  0.4091360000000  0.4737190000000  0.5203100000000 1.0
C      1  0.5150460000000  0.4546000000000  0.4315890000000 1.0
C      1  0.4911450000000  0.5414510000000  0.5720560000000 1.0
C      1  0.4627320000000  0.4165820000000  0.4309860000000 1.0
C      1  0.5424690000000  0.5802330000000  0.5637220000000 1.0
C      1  0.5486570000000  0.5566250000000  0.4339990000000 1.0
C      1  0.4512440000000  0.4468530000000  0.5689140000000 1.0
C      1  0.4003590000000  0.6057310000000  0.4689100000000 1.0
C      1  0.5964210000000  0.3911260000000  0.5087960000000 1.0
C      1  0.5147340000000  0.4580500000000  0.4771010000000 1.0
C      1  0.4884290000000  0.5390630000000  0.5280400000000 1.0
C      1  0.6033880000000  0.5475060000000  0.5114270000000 1.0
C      1  0.3871450000000  0.4464220000000  0.4835130000000 1.0
C      1  0.4360400000000  0.4472100000000  0.4620080000000 1.0
C      1  0.5652580000000  0.5689830000000  0.5405350000000 1.0
C      1  0.4942970000000  0.4120130000000  0.4281480000000 1.0
C      1  0.5110930000000  0.5912050000000  0.5686510000000 1.0
C      1  0.6034530000000  0.5029430000000  0.4900140000000 1.0
C      1  0.3883410000000  0.4913710000000  0.5079100000000 1.0
C      1  0.5934980000000  0.4407130000000  0.5405020000000 1.0
C      1  0.4042240000000  0.5461330000000  0.4633530000000 1.0
C      1  0.6161410000000  0.4930610000000  0.4610220000000 1.0
C      1  0.3899270000000  0.5152480000000  0.5215670000000 1.0
C      1  0.5684800000000  0.4764950000000  0.5909030000000 1.0
C      1  0.4290580000000  0.5177630000000  0.4130000000000 1.0
C      1  0.5610120000000  0.4396710000000  0.5488030000000 1.0
C      1  0.4356800000000  0.5527150000000  0.4510520000000 1.0
C      1  0.5127890000000  0.4717690000000  0.5941990000000 1.0
C      1  0.4955970000000  0.5313500000000  0.3934060000000 1.0
C      1  0.4257050000000  0.5864490000000  0.5124870000000 1.0
C      1  0.5664170000000  0.4171290000000  0.4758440000000 1.0
C      1  0.5068410000000  0.5689700000000  0.4264870000000 1.0
C      1  0.4902210000000  0.4301210000000  0.5766910000000 1.0
C      1  0.4356670000000  0.4759750000000  0.5025940000000 1.0
C      1  0.5600980000000  0.5268130000000  0.5088190000000 1.0
C      1  0.4027260000000  0.4659770000000  0.5533750000000 1.0
C      1  0.5912310000000  0.5408760000000  0.4475870000000 1.0
C      1  0.5846860000000  0.5029070000000  0.5764270000000 1.0
C      1  0.4144610000000  0.4885850000000  0.4229180000000 1.0
C      1  0.4601070000000  0.4915060000000  0.3960900000000 1.0
C      1  0.5364550000000  0.5178920000000  0.5993970000000 1.0
C      1  0.4154090000000  0.5507980000000  0.5532080000000 1.0
C      1  0.5881840000000  0.4519430000000  0.4459720000000 1.0
C      1  0.5022050000000  0.4070160000000  0.4587320000000 1.0
C      1  0.4951770000000  0.5914520000000  0.5394350000000 1.0
C      1  0.5728560000000  0.5400330000000  0.4253960000000 1.0
C      1  0.4286010000000  0.4716360000000  0.5750720000000 1.0
C      1  0.5625640000000  0.4484220000000  0.4318470000000 1.0
C      1  0.4396670000000  0.5556610000000  0.5684510000000 1.0
C      1  0.4659110000000  0.4903200000000  0.4297470000000 1.0
C      1  0.5340290000000  0.5069880000000  0.5680870000000 1.0
C      1  0.4339900000000  0.4955820000000  0.5898410000000 1.0
C      1  0.5686120000000  0.5179730000000  0.4081880000000 1.0
C      1  0.4145750000000  0.5186630000000  0.4902560000000 1.0
C      1  0.5922500000000  0.4778750000000  0.5006540000000 1.0
C      1  0.5504940000000  0.4592370000000  0.5909460000000 1.0
C      1  0.4597950000000  0.5236510000000  0.4087010000000 1.0
C      1  0.5591140000000  0.4961280000000  0.5574550000000 1.0
C      1  0.4396820000000  0.4953760000000  0.4441430000000 1.0
C      1  0.4339750000000  0.4705700000000  0.5420510000000 1.0
C      1  0.5702700000000  0.5436440000000  0.4815290000000 1.0
C      1  0.5162400000000  0.4223550000000  0.5323170000000 1.0
C      1  0.4806890000000  0.5780870000000  0.4677700000000 1.0
C      1  0.4030750000000  0.5022530000000  0.4725020000000 1.0
C      1  0.6022260000000  0.4715140000000  0.5309480000000 1.0
C      1  0.5239550000000  0.5369970000000  0.5660470000000 1.0
C      1  0.4696010000000  0.4589240000000  0.4170460000000 1.0
C      1  0.4214480000000  0.5241610000000  0.4438800000000 1.0
C      1  0.5766930000000  0.4687210000000  0.5526650000000 1.0
C      1  0.5534150000000  0.4944210000000  0.4107120000000 1.0
C      1  0.4491410000000  0.5224230000000  0.5916030000000 1.0
C      1  0.5453370000000  0.4818910000000  0.5228890000000 1.0
C      1  0.4585630000000  0.5049750000000  0.4777800000000 1.0
C      1  0.6053020000000  0.5204190000000  0.5160420000000 1.0
C      1  0.3837240000000  0.4757120000000  0.4780800000000 1.0
C      1  0.4978230000000  0.5108650000000  0.4830060000000 1.0
END
