TITL C-2782228-2999-49 -0.00133992945707628 125000 -550.134704676511 0 0 90 (C1) n - 1
REM
REM in /home/nfs/bkarasulu/CARBON/AIRSS/Generating-Clusters/REBO/Higher-Symm/SD-CG/HFTN-CG
REM
REM
REM
REM
REM
REM ./C.cell (12c818d87b63d06a65506943cc24bca4)
REM
REM compiler GCC version 9.2.1 20190827 (Red Hat 9.2.1-1)
REM options -cpp -mtune=generic -march=x86-64 -g -O0 -fpre-include=/usr/include/finclude/math-vector-fortran.h
REM seed 1445991675 -631939048 -1773750060 -1968476227 745939652 -1566721928 1211758124 1878715582 -2090630562 -1927046029 1719644775 -1429082257 -261038247 -169397137 -1554305652 1704104899 -628654651 2075992691 -73126817 204684337 -1429176439 167936937 -1636884586 -2037175752 613527443 -297522074 -806417546 382595686 1030060813 -659994326 1309105732 1449512272 -1001926043
REM
CELL 1.54180   50.00000   50.00000   50.00000   90.00000   90.00000   90.00000
LATT -1
SFAC C  
C      1  0.5398540000000  0.4419620000000  0.4756990000000 1.0
C      1  0.5378790000000  0.4558610000000  0.5379510000000 1.0
C      1  0.5367750000000  0.5181450000000  0.5471180000000 1.0
C      1  0.5362180000000  0.5525110000000  0.4946680000000 1.0
C      1  0.5412030000000  0.5224040000000  0.4391310000000 1.0
C      1  0.5368030000000  0.5478150000000  0.4620470000000 1.0
C      1  0.5361980000000  0.5459940000000  0.5290010000000 1.0
C      1  0.5367360000000  0.4842370000000  0.5551900000000 1.0
C      1  0.5386450000000  0.4370220000000  0.5093730000000 1.0
C      1  0.5422630000000  0.4905380000000  0.4321880000000 1.0
C      1  0.4347040000000  0.5706060000000  0.4957390000000 1.0
C      1  0.4369230000000  0.5174790000000  0.4320040000000 1.0
C      1  0.4378740000000  0.4407440000000  0.4636060000000 1.0
C      1  0.4347520000000  0.4455380000000  0.5462220000000 1.0
C      1  0.4351320000000  0.5262740000000  0.5659490000000 1.0
C      1  0.4353980000000  0.4342280000000  0.4935300000000 1.0
C      1  0.4380780000000  0.4873660000000  0.4372770000000 1.0
C      1  0.4341350000000  0.5577310000000  0.4678380000000 1.0
C      1  0.4343010000000  0.5487080000000  0.5449020000000 1.0
C      1  0.4341920000000  0.4726590000000  0.5606390000000 1.0
C      1  0.5649740000000  0.5592460000000  0.5048210000000 1.0
C      1  0.5722540000000  0.5235910000000  0.4304060000000 1.0
C      1  0.5648120000000  0.4469640000000  0.4660280000000 1.0
C      1  0.5678050000000  0.4440590000000  0.5405630000000 1.0
C      1  0.5659340000000  0.5113240000000  0.5567970000000 1.0
C      1  0.5695650000000  0.4299720000000  0.5018550000000 1.0
C      1  0.5673040000000  0.4793850000000  0.4335780000000 1.0
C      1  0.5676310000000  0.5550490000000  0.4546290000000 1.0
C      1  0.5669980000000  0.5587470000000  0.5357930000000 1.0
C      1  0.5680680000000  0.4825710000000  0.5681370000000 1.0
C      1  0.5089440000000  0.4213630000000  0.5077800000000 1.0
C      1  0.5089830000000  0.4819950000000  0.5748450000000 1.0
C      1  0.5091870000000  0.5638550000000  0.5397040000000 1.0
C      1  0.5079760000000  0.5617300000000  0.4504710000000 1.0
C      1  0.5158030000000  0.4715950000000  0.4314890000000 1.0
C      1  0.5106270000000  0.5710660000000  0.5069220000000 1.0
C      1  0.5112230000000  0.5154350000000  0.5694190000000 1.0
C      1  0.5103900000000  0.4366920000000  0.5381060000000 1.0
C      1  0.5149080000000  0.4459860000000  0.4540480000000 1.0
C      1  0.5118320000000  0.5337550000000  0.4320890000000 1.0
C      1  0.5919470000000  0.4835710000000  0.5455270000000 1.0
C      1  0.5918210000000  0.5397760000000  0.5264840000000 1.0
C      1  0.5885000000000  0.5389670000000  0.4669600000000 1.0
C      1  0.5880590000000  0.4854560000000  0.4533810000000 1.0
C      1  0.5888110000000  0.4526290000000  0.5004650000000 1.0
C      1  0.5912400000000  0.5150440000000  0.5398930000000 1.0
C      1  0.5891420000000  0.4603760000000  0.5287930000000 1.0
C      1  0.5873010000000  0.4650490000000  0.4733390000000 1.0
C      1  0.5917880000000  0.5140790000000  0.4511860000000 1.0
C      1  0.5893390000000  0.5434420000000  0.4947110000000 1.0
C      1  0.4863510000000  0.4883430000000  0.4285630000000 1.0
C      1  0.4824270000000  0.4231960000000  0.4906420000000 1.0
C      1  0.4812280000000  0.4652590000000  0.5712590000000 1.0
C      1  0.4815580000000  0.5556520000000  0.5545350000000 1.0
C      1  0.4807980000000  0.5702940000000  0.4645810000000 1.0
C      1  0.4847000000000  0.5175780000000  0.4271470000000 1.0
C      1  0.4822350000000  0.5769460000000  0.4928500000000 1.0
C      1  0.4827900000000  0.5309130000000  0.5701080000000 1.0
C      1  0.4822290000000  0.4425220000000  0.5527390000000 1.0
C      1  0.4856900000000  0.4356770000000  0.4645640000000 1.0
C      1  0.4631770000000  0.4732420000000  0.4372030000000 1.0
C      1  0.4593750000000  0.4277210000000  0.5077160000000 1.0
C      1  0.4585540000000  0.4835680000000  0.5713670000000 1.0
C      1  0.4586430000000  0.5622070000000  0.5377810000000 1.0
C      1  0.4586820000000  0.5555760000000  0.4532680000000 1.0
C      1  0.4610040000000  0.5325820000000  0.4347770000000 1.0
C      1  0.4593720000000  0.5732850000000  0.5102570000000 1.0
C      1  0.4598280000000  0.5132660000000  0.5726860000000 1.0
C      1  0.4595220000000  0.4349900000000  0.5364500000000 1.0
C      1  0.4631350000000  0.4482070000000  0.4522040000000 1.0
C      1  0.5009620000000  0.4673650000000  0.5277750000000 1.0
C      1  0.4982700000000  0.5149470000000  0.5370220000000 1.0
C      1  0.4981350000000  0.5405020000000  0.4955240000000 1.0
C      1  0.5081670000000  0.5111700000000  0.4586280000000 1.0
C      1  0.5077010000000  0.4653960000000  0.4797630000000 1.0
C      1  0.4977290000000  0.5370610000000  0.5232520000000 1.0
C      1  0.4987600000000  0.4878250000000  0.5435530000000 1.0
C      1  0.5034590000000  0.4545970000000  0.5031270000000 1.0
C      1  0.5109670000000  0.4852820000000  0.4598870000000 1.0
C      1  0.4996870000000  0.5355880000000  0.4699290000000 1.0
C      1  0.4120980000000  0.5157290000000  0.5471220000000 1.0
C      1  0.4119340000000  0.5489970000000  0.4997010000000 1.0
C      1  0.4133590000000  0.5145470000000  0.4527160000000 1.0
C      1  0.4140330000000  0.4598080000000  0.4717920000000 1.0
C      1  0.4121500000000  0.4602700000000  0.5298540000000 1.0
C      1  0.4113940000000  0.4877130000000  0.5456590000000 1.0
C      1  0.4119790000000  0.4527230000000  0.5027110000000 1.0
C      1  0.4138060000000  0.4832980000000  0.4565720000000 1.0
C      1  0.4116260000000  0.5363910000000  0.4704180000000 1.0
C      1  0.4112580000000  0.5391800000000  0.5260080000000 1.0
END
