TITL C-2782237-5345-23 -1.89547988775148e-07 125000 -222.243052923027 0 0 36 (D3h) n - 1
REM
REM in /home/nfs/bkarasulu/CARBON/AIRSS/Generating-Clusters/REBO/Higher-Symm/SD-CG/HFTN-CG
REM
REM
REM
REM
REM
REM ./C.cell (12c818d87b63d06a65506943cc24bca4)
REM
REM compiler GCC version 9.2.1 20190827 (Red Hat 9.2.1-1)
REM options -cpp -mtune=generic -march=x86-64 -g -O0 -fpre-include=/usr/include/finclude/math-vector-fortran.h
REM seed -2133505914 -1949818060 903275334 1315080481 2050986689 1582225511 -995666597 -383241700 376880141 -1255249745 -1417208464 45022439 1913426521 119198533 534405901 -382462935 -634636825 1751551524 1267551076 -1603210683 658124366 -416263619 1832280202 300693270 -1052670578 275281101 -2146311071 -480681452 1856804721 1569799413 873249119 1574463777 2146984876
REM
CELL 1.54180   50.00000   50.00000   50.00000   90.00000   90.00000   90.00000
LATT -1
SFAC C  
C      1  0.5477360000000  0.4856910000000  0.4702900000000 1.0
C      1  0.5025940000000  0.4866090000000  0.5563930000000 1.0
C      1  0.4506150000000  0.4836920000000  0.4742820000000 1.0
C      1  0.5471060000000  0.5150290000000  0.4696470000000 1.0
C      1  0.5019630000000  0.5159480000000  0.5557490000000 1.0
C      1  0.4499850000000  0.5130310000000  0.4736390000000 1.0
C      1  0.5474980000000  0.4870100000000  0.5306820000000 1.0
C      1  0.5030360000000  0.4841600000000  0.4442680000000 1.0
C      1  0.4504110000000  0.4848220000000  0.5260150000000 1.0
C      1  0.5468680000000  0.5163480000000  0.5300390000000 1.0
C      1  0.5024060000000  0.5134990000000  0.4436250000000 1.0
C      1  0.4497810000000  0.5141610000000  0.5253720000000 1.0
C      1  0.5495350000000  0.4731600000000  0.4442720000000 1.0
C      1  0.5248390000000  0.4754110000000  0.5711200000000 1.0
C      1  0.4273430000000  0.4714590000000  0.4863610000000 1.0
C      1  0.5483900000000  0.5264730000000  0.4431030000000 1.0
C      1  0.5236940000000  0.5287240000000  0.5699510000000 1.0
C      1  0.4261980000000  0.5247720000000  0.4851920000000 1.0
C      1  0.5490900000000  0.4756280000000  0.5572350000000 1.0
C      1  0.5253950000000  0.4723340000000  0.4302190000000 1.0
C      1  0.4272330000000  0.4720690000000  0.5142990000000 1.0
C      1  0.5479450000000  0.5289410000000  0.5560660000000 1.0
C      1  0.5242500000000  0.5256470000000  0.4290500000000 1.0
C      1  0.4260880000000  0.5253820000000  0.5131300000000 1.0
C      1  0.4993470000000  0.5247810000000  0.4707150000000 1.0
C      1  0.5243870000000  0.5262620000000  0.5137020000000 1.0
C      1  0.4746290000000  0.5251970000000  0.5139120000000 1.0
C      1  0.5004380000000  0.4739540000000  0.4718290000000 1.0
C      1  0.5254790000000  0.4754350000000  0.5148160000000 1.0
C      1  0.4757200000000  0.4743710000000  0.5150260000000 1.0
C      1  0.4991200000000  0.5260360000000  0.5281690000000 1.0
C      1  0.5244990000000  0.5256420000000  0.4853570000000 1.0
C      1  0.4747430000000  0.5245620000000  0.4848020000000 1.0
C      1  0.5002120000000  0.4752090000000  0.5292840000000 1.0
C      1  0.5255910000000  0.4748160000000  0.4864720000000 1.0
C      1  0.4758350000000  0.4737350000000  0.4859160000000 1.0
END
