TITL C-2782228-2999-67 -0.00356166503525644 125000 -726.681988021711 0 0 120 (C1) n - 1
REM
REM in /home/nfs/bkarasulu/CARBON/AIRSS/Generating-Clusters/REBO/Higher-Symm/SD-CG/HFTN-CG
REM
REM
REM
REM
REM
REM ./C.cell (12c818d87b63d06a65506943cc24bca4)
REM
REM compiler GCC version 9.2.1 20190827 (Red Hat 9.2.1-1)
REM options -cpp -mtune=generic -march=x86-64 -g -O0 -fpre-include=/usr/include/finclude/math-vector-fortran.h
REM seed 1732911521 815135524 -114378408 -1858406839 -1716254842 292320913 -10842681 2057605752 1375378591 429591440 -1479722157 261537579 -1300839108 1926302240 -1843169200 -1466727889 610944783 -721898670 1003804572 375531973 190781300 -540780749 -508945262 569549102 1244238344 -1527453524 836101625 605019364 -2074873771 1779311467 -453037956 1538807723 -1616458322
REM
CELL 1.54180   50.00000   50.00000   50.00000   90.00000   90.00000   90.00000
LATT -1
SFAC C  
C      1  0.4056990000000  0.5235230000000  0.5128060000000 1.0
C      1  0.4065600000000  0.5205100000000  0.4830030000000 1.0
C      1  0.4064300000000  0.4910230000000  0.4765480000000 1.0
C      1  0.4059590000000  0.4751160000000  0.5023160000000 1.0
C      1  0.4060000000000  0.4957490000000  0.5244080000000 1.0
C      1  0.5935990000000  0.5221160000000  0.5129230000000 1.0
C      1  0.5921390000000  0.5194790000000  0.4828590000000 1.0
C      1  0.5950570000000  0.4899600000000  0.4761520000000 1.0
C      1  0.5972570000000  0.4740370000000  0.5020840000000 1.0
C      1  0.5945220000000  0.4940980000000  0.5244330000000 1.0
C      1  0.5496140000000  0.5251760000000  0.4915700000000 1.0
C      1  0.5545750000000  0.4975720000000  0.4731870000000 1.0
C      1  0.5581990000000  0.4741340000000  0.4939090000000 1.0
C      1  0.5514710000000  0.4841900000000  0.5216960000000 1.0
C      1  0.5548450000000  0.5167010000000  0.5208270000000 1.0
C      1  0.4469370000000  0.5296330000000  0.4929000000000 1.0
C      1  0.4461880000000  0.5021900000000  0.4749320000000 1.0
C      1  0.4451690000000  0.4780880000000  0.4952320000000 1.0
C      1  0.4494250000000  0.4882230000000  0.5238890000000 1.0
C      1  0.4445690000000  0.5208220000000  0.5220400000000 1.0
C      1  0.5525110000000  0.5471240000000  0.4479370000000 1.0
C      1  0.5625350000000  0.4621220000000  0.4368730000000 1.0
C      1  0.5642360000000  0.4238630000000  0.5133040000000 1.0
C      1  0.5618260000000  0.4906710000000  0.5720540000000 1.0
C      1  0.5609020000000  0.5679750000000  0.5304810000000 1.0
C      1  0.4401180000000  0.5509630000000  0.4461550000000 1.0
C      1  0.4404940000000  0.4655380000000  0.4367730000000 1.0
C      1  0.4433100000000  0.4273280000000  0.5129920000000 1.0
C      1  0.4372490000000  0.4949620000000  0.5726560000000 1.0
C      1  0.4357310000000  0.5715430000000  0.5289980000000 1.0
C      1  0.4183280000000  0.4888680000000  0.5487830000000 1.0
C      1  0.4154950000000  0.5464700000000  0.5281690000000 1.0
C      1  0.4187190000000  0.5424400000000  0.4678170000000 1.0
C      1  0.4194950000000  0.4835350000000  0.4517850000000 1.0
C      1  0.4199240000000  0.4480360000000  0.5018910000000 1.0
C      1  0.5812600000000  0.4858810000000  0.5481680000000 1.0
C      1  0.5820810000000  0.5438130000000  0.5288460000000 1.0
C      1  0.5776210000000  0.5408480000000  0.4680260000000 1.0
C      1  0.5832800000000  0.4814880000000  0.4507390000000 1.0
C      1  0.5853240000000  0.4461520000000  0.5021000000000 1.0
C      1  0.4828560000000  0.4491190000000  0.5785500000000 1.0
C      1  0.4822260000000  0.5621880000000  0.5736980000000 1.0
C      1  0.4814720000000  0.5837250000000  0.4631900000000 1.0
C      1  0.4840840000000  0.4972490000000  0.4086080000000 1.0
C      1  0.4876730000000  0.4165720000000  0.4767400000000 1.0
C      1  0.5163830000000  0.4433700000000  0.5756950000000 1.0
C      1  0.5152250000000  0.5537980000000  0.5759330000000 1.0
C      1  0.5111250000000  0.5793450000000  0.4689790000000 1.0
C      1  0.5171650000000  0.4883430000000  0.4066810000000 1.0
C      1  0.5206060000000  0.4085430000000  0.4792180000000 1.0
C      1  0.5120470000000  0.5282820000000  0.4518550000000 1.0
C      1  0.5165160000000  0.4642040000000  0.4535520000000 1.0
C      1  0.5168970000000  0.4436870000000  0.5199360000000 1.0
C      1  0.5163690000000  0.5001650000000  0.5534140000000 1.0
C      1  0.5161110000000  0.5518090000000  0.5188660000000 1.0
C      1  0.4822940000000  0.5412880000000  0.4540350000000 1.0
C      1  0.4856900000000  0.4735690000000  0.4589880000000 1.0
C      1  0.4856110000000  0.4540880000000  0.5203810000000 1.0
C      1  0.4858210000000  0.5041900000000  0.5610420000000 1.0
C      1  0.4842430000000  0.5638200000000  0.5184550000000 1.0
C      1  0.5424500000000  0.4652510000000  0.5747730000000 1.0
C      1  0.5418500000000  0.5620980000000  0.5560780000000 1.0
C      1  0.5285790000000  0.5646170000000  0.4510310000000 1.0
C      1  0.5452050000000  0.4710040000000  0.4160010000000 1.0
C      1  0.5484600000000  0.4053850000000  0.4986010000000 1.0
C      1  0.4535520000000  0.4666500000000  0.5778080000000 1.0
C      1  0.4533840000000  0.5679410000000  0.5562530000000 1.0
C      1  0.4590840000000  0.5728460000000  0.4461980000000 1.0
C      1  0.4577640000000  0.4768550000000  0.4165360000000 1.0
C      1  0.4620430000000  0.4114270000000  0.4985860000000 1.0
C      1  0.4430210000000  0.4654810000000  0.5466710000000 1.0
C      1  0.4406620000000  0.5382020000000  0.5499410000000 1.0
C      1  0.4385020000000  0.5596270000000  0.4851290000000 1.0
C      1  0.4407320000000  0.5048400000000  0.4435570000000 1.0
C      1  0.4441930000000  0.4513070000000  0.4814270000000 1.0
C      1  0.5569630000000  0.4622250000000  0.5448510000000 1.0
C      1  0.5568100000000  0.5334130000000  0.5494310000000 1.0
C      1  0.5568770000000  0.5560590000000  0.4863770000000 1.0
C      1  0.5605930000000  0.5017070000000  0.4416540000000 1.0
C      1  0.5612630000000  0.4470210000000  0.4812220000000 1.0
C      1  0.4493570000000  0.5771040000000  0.5043620000000 1.0
C      1  0.4512230000000  0.5280060000000  0.4329210000000 1.0
C      1  0.4545190000000  0.4488570000000  0.4554180000000 1.0
C      1  0.4582350000000  0.4426120000000  0.5339060000000 1.0
C      1  0.4511100000000  0.5200640000000  0.5723830000000 1.0
C      1  0.5473140000000  0.5731500000000  0.5061480000000 1.0
C      1  0.5465130000000  0.5237980000000  0.4321740000000 1.0
C      1  0.5505750000000  0.4436350000000  0.4554470000000 1.0
C      1  0.5464620000000  0.4367890000000  0.5333450000000 1.0
C      1  0.5481000000000  0.5154070000000  0.5720990000000 1.0
C      1  0.5115140000000  0.4766540000000  0.5749540000000 1.0
C      1  0.5113040000000  0.5688680000000  0.5471170000000 1.0
C      1  0.5102500000000  0.5546950000000  0.4290810000000 1.0
C      1  0.5159630000000  0.4574320000000  0.4202330000000 1.0
C      1  0.5205810000000  0.3908400000000  0.5082300000000 1.0
C      1  0.4810680000000  0.4821560000000  0.5832250000000 1.0
C      1  0.4813000000000  0.5797890000000  0.5454770000000 1.0
C      1  0.4828480000000  0.5649340000000  0.4279540000000 1.0
C      1  0.4877980000000  0.4700630000000  0.4266290000000 1.0
C      1  0.4919450000000  0.3987650000000  0.5052210000000 1.0
C      1  0.4834950000000  0.5252430000000  0.4240200000000 1.0
C      1  0.4854840000000  0.4394690000000  0.4560180000000 1.0
C      1  0.4874920000000  0.4361180000000  0.5492270000000 1.0
C      1  0.4827640000000  0.5307660000000  0.5791010000000 1.0
C      1  0.4812560000000  0.5846190000000  0.4950080000000 1.0
C      1  0.5166410000000  0.5167870000000  0.4205700000000 1.0
C      1  0.5191260000000  0.4315880000000  0.4573750000000 1.0
C      1  0.5193990000000  0.4260820000000  0.5489520000000 1.0
C      1  0.5162680000000  0.5224550000000  0.5791780000000 1.0
C      1  0.5156560000000  0.5801120000000  0.5000900000000 1.0
C      1  0.4856220000000  0.4830090000000  0.5077910000000 1.0
C      1  0.4781910000000  0.5047820000000  0.5305720000000 1.0
C      1  0.4821310000000  0.5323050000000  0.5122550000000 1.0
C      1  0.4771410000000  0.5263930000000  0.4801760000000 1.0
C      1  0.4783710000000  0.4928400000000  0.4792020000000 1.0
C      1  0.5171760000000  0.4723370000000  0.5045610000000 1.0
C      1  0.5210570000000  0.4971210000000  0.5252970000000 1.0
C      1  0.5137370000000  0.5217370000000  0.5086810000000 1.0
C      1  0.5199790000000  0.5162490000000  0.4773540000000 1.0
C      1  0.5239850000000  0.4830950000000  0.4760480000000 1.0
END
