TITL C-2782227-3064-1303 -0.00875571509838045 125000 -587.625060046571 0 0 98 (C1) n - 1
REM
REM in /home/nfs/bkarasulu/CARBON/AIRSS/Generating-Clusters/REBO/Higher-Symm/SD-CG/HFTN-CG
REM
REM
REM
REM
REM
REM ./C.cell (12c818d87b63d06a65506943cc24bca4)
REM
REM compiler GCC version 9.2.1 20190827 (Red Hat 9.2.1-1)
REM options -cpp -mtune=generic -march=x86-64 -g -O0 -fpre-include=/usr/include/finclude/math-vector-fortran.h
REM seed 1357440081 1313728199 -1068639279 928141535 -1025661793 -619905807 -2041799578 -1474506623 853831286 -1994300465 -1615296139 -1772742600 -1190638100 1208857788 1579010805 1040773889 -1463590601 1262135535 1969336952 461427775 -577007873 1362495163 -1476245871 283377383 1835151740 -555869685 1942203735 -1587163775 -111860832 -607793409 -312946530 -1914788188 59862637
REM
CELL 1.54180   50.00000   50.00000   50.00000   90.00000   90.00000   90.00000
LATT -1
SFAC C  
C      1  0.5866680000000  0.5342100000000  0.5135940000000 1.0
C      1  0.5820750000000  0.4960800000000  0.5740470000000 1.0
C      1  0.5836120000000  0.4417840000000  0.5189910000000 1.0
C      1  0.5831940000000  0.4739590000000  0.4493870000000 1.0
C      1  0.5770230000000  0.5307760000000  0.4527590000000 1.0
C      1  0.5483390000000  0.4444950000000  0.5542760000000 1.0
C      1  0.5503760000000  0.4416610000000  0.4648450000000 1.0
C      1  0.5409150000000  0.5155600000000  0.4232270000000 1.0
C      1  0.5507820000000  0.5705480000000  0.5004680000000 1.0
C      1  0.5466030000000  0.5312580000000  0.5633280000000 1.0
C      1  0.4135280000000  0.4586800000000  0.4922620000000 1.0
C      1  0.4064690000000  0.4903780000000  0.4546270000000 1.0
C      1  0.4068130000000  0.5337270000000  0.4810360000000 1.0
C      1  0.4126280000000  0.5300390000000  0.5289990000000 1.0
C      1  0.4167700000000  0.4817490000000  0.5352260000000 1.0
C      1  0.5305450000000  0.4505960000000  0.4423690000000 1.0
C      1  0.5248490000000  0.5420710000000  0.4275460000000 1.0
C      1  0.5359520000000  0.5715420000000  0.5266700000000 1.0
C      1  0.5352340000000  0.5054730000000  0.5793690000000 1.0
C      1  0.5336160000000  0.4264550000000  0.5334250000000 1.0
C      1  0.4537080000000  0.5091250000000  0.4280940000000 1.0
C      1  0.4551040000000  0.5661560000000  0.4792890000000 1.0
C      1  0.4603680000000  0.5390020000000  0.5528350000000 1.0
C      1  0.4656550000000  0.4608930000000  0.5465430000000 1.0
C      1  0.4624870000000  0.4395530000000  0.4681730000000 1.0
C      1  0.5028050000000  0.5492110000000  0.4700600000000 1.0
C      1  0.4961120000000  0.5419850000000  0.5355500000000 1.0
C      1  0.4988270000000  0.4807940000000  0.5559920000000 1.0
C      1  0.5011190000000  0.4438010000000  0.5004670000000 1.0
C      1  0.4940800000000  0.4824210000000  0.4473940000000 1.0
C      1  0.5126080000000  0.4942120000000  0.4734120000000 1.0
C      1  0.5127170000000  0.5225320000000  0.4890570000000 1.0
C      1  0.5144960000000  0.5192650000000  0.5211360000000 1.0
C      1  0.5166460000000  0.4863670000000  0.5274720000000 1.0
C      1  0.5182370000000  0.4707130000000  0.4973420000000 1.0
C      1  0.5787580000000  0.5551380000000  0.4965670000000 1.0
C      1  0.5727670000000  0.5190350000000  0.5771440000000 1.0
C      1  0.5798530000000  0.4438970000000  0.5468390000000 1.0
C      1  0.5785320000000  0.4499400000000  0.4545550000000 1.0
C      1  0.5722830000000  0.5234420000000  0.4219990000000 1.0
C      1  0.4856340000000  0.4991610000000  0.4206260000000 1.0
C      1  0.4844140000000  0.5737030000000  0.4810360000000 1.0
C      1  0.4873680000000  0.5425030000000  0.5685120000000 1.0
C      1  0.4909770000000  0.4508280000000  0.5667160000000 1.0
C      1  0.4943820000000  0.4229780000000  0.4770350000000 1.0
C      1  0.5344390000000  0.5463210000000  0.4785480000000 1.0
C      1  0.5437500000000  0.5248700000000  0.5336070000000 1.0
C      1  0.5402780000000  0.4756330000000  0.5457500000000 1.0
C      1  0.5471340000000  0.4597230000000  0.4899090000000 1.0
C      1  0.5355540000000  0.4969140000000  0.4508560000000 1.0
C      1  0.4799540000000  0.5304340000000  0.4286240000000 1.0
C      1  0.4934460000000  0.5835030000000  0.5101100000000 1.0
C      1  0.4912680000000  0.5177350000000  0.5864260000000 1.0
C      1  0.4886090000000  0.4283300000000  0.5443660000000 1.0
C      1  0.4870410000000  0.4345910000000  0.4490120000000 1.0
C      1  0.4182530000000  0.4660310000000  0.4651260000000 1.0
C      1  0.4123790000000  0.5185510000000  0.4572910000000 1.0
C      1  0.4183300000000  0.5444080000000  0.5050650000000 1.0
C      1  0.4237470000000  0.5080530000000  0.5431000000000 1.0
C      1  0.4256550000000  0.4611060000000  0.5178920000000 1.0
C      1  0.5340900000000  0.5576940000000  0.5721860000000 1.0
C      1  0.5362570000000  0.4394150000000  0.5824190000000 1.0
C      1  0.5418730000000  0.4123140000000  0.4713890000000 1.0
C      1  0.5292650000000  0.5006820000000  0.3987540000000 1.0
C      1  0.5360030000000  0.5862560000000  0.4780700000000 1.0
C      1  0.4780410000000  0.4991390000000  0.5167010000000 1.0
C      1  0.4696260000000  0.4798160000000  0.4979150000000 1.0
C      1  0.4537200000000  0.4946490000000  0.4766330000000 1.0
C      1  0.4658080000000  0.5227910000000  0.4793630000000 1.0
C      1  0.4763080000000  0.5247210000000  0.5054670000000 1.0
C      1  0.5178390000000  0.4045760000000  0.4751360000000 1.0
C      1  0.5048830000000  0.4946740000000  0.3976490000000 1.0
C      1  0.5122550000000  0.5880340000000  0.4709340000000 1.0
C      1  0.5098500000000  0.5634530000000  0.5749620000000 1.0
C      1  0.5117460000000  0.4422420000000  0.5875810000000 1.0
C      1  0.5087070000000  0.5692060000000  0.5277120000000 1.0
C      1  0.5089360000000  0.4984890000000  0.5784910000000 1.0
C      1  0.5079210000000  0.4285800000000  0.5251970000000 1.0
C      1  0.5039760000000  0.4549310000000  0.4404910000000 1.0
C      1  0.5008010000000  0.5447860000000  0.4401500000000 1.0
C      1  0.4529880000000  0.5424970000000  0.4627550000000 1.0
C      1  0.4647650000000  0.5480970000000  0.5230110000000 1.0
C      1  0.4707620000000  0.4924110000000  0.5450810000000 1.0
C      1  0.4706550000000  0.4487970000000  0.4965530000000 1.0
C      1  0.4608070000000  0.4848150000000  0.4481380000000 1.0
C      1  0.4431900000000  0.5596430000000  0.5048330000000 1.0
C      1  0.4498260000000  0.5121670000000  0.5537610000000 1.0
C      1  0.4523130000000  0.4516140000000  0.5225140000000 1.0
C      1  0.4444000000000  0.4595140000000  0.4560150000000 1.0
C      1  0.4358470000000  0.5284780000000  0.4441870000000 1.0
C      1  0.5643330000000  0.5459730000000  0.4720970000000 1.0
C      1  0.5675740000000  0.5147180000000  0.5215590000000 1.0
C      1  0.5733450000000  0.4755810000000  0.5536990000000 1.0
C      1  0.5702580000000  0.4640200000000  0.5056980000000 1.0
C      1  0.5673540000000  0.4992920000000  0.4484370000000 1.0
C      1  0.5714220000000  0.4867300000000  0.5233330000000 1.0
C      1  0.4022420000000  0.4986290000000  0.4996660000000 1.0
C      1  0.4254310000000  0.4972010000000  0.4890980000000 1.0
END
