TITL C-2782238-9940-192 -0.00143191135320705 125000 -572.435981856241 0 0 104 (D2) n - 1
REM
REM in /home/nfs/bkarasulu/CARBON/AIRSS/Generating-Clusters/REBO/Higher-Symm/SD-CG/HFTN-CG
REM
REM
REM
REM
REM
REM ./C.cell (12c818d87b63d06a65506943cc24bca4)
REM
REM compiler GCC version 9.2.1 20190827 (Red Hat 9.2.1-1)
REM options -cpp -mtune=generic -march=x86-64 -g -O0 -fpre-include=/usr/include/finclude/math-vector-fortran.h
REM seed -1344242551 -28896078 787202527 1237757859 -1922095721 -2125917435 -1173311381 2109469713 1759594524 -436138500 -624028568 -884073002 -1962919280 -1399654839 545998112 -1024473863 -983435774 -2122998136 -1317185706 1270158759 -1311582203 -27210763 672144017 559774150 1735118286 -2111323386 539050416 -1484003763 386987250 -1831792508 385509733 -2084711021 799137486
REM
CELL 1.54180   50.00000   50.00000   50.00000   90.00000   90.00000   90.00000
LATT -1
SFAC C  
C      1  0.5236830000000  0.4532070000000  0.4871100000000 1.0
C      1  0.5496690000000  0.5265990000000  0.4884380000000 1.0
C      1  0.4763170000000  0.5467930000000  0.4871100000000 1.0
C      1  0.4503310000000  0.4734010000000  0.4884380000000 1.0
C      1  0.4734020000000  0.4503310000000  0.5115610000000 1.0
C      1  0.4532070000000  0.5236820000000  0.5128900000000 1.0
C      1  0.5265980000000  0.5496690000000  0.5115620000000 1.0
C      1  0.5467930000000  0.4763170000000  0.5128900000000 1.0
C      1  0.4637540000000  0.5356390000000  0.4336490000000 1.0
C      1  0.4652380000000  0.4563900000000  0.4336850000000 1.0
C      1  0.5362460000000  0.4643620000000  0.4336480000000 1.0
C      1  0.5347620000000  0.5436110000000  0.4336860000000 1.0
C      1  0.5436100000000  0.5347620000000  0.5663150000000 1.0
C      1  0.5356390000000  0.4637540000000  0.5663510000000 1.0
C      1  0.4563900000000  0.4652370000000  0.5663140000000 1.0
C      1  0.4643610000000  0.5362450000000  0.5663520000000 1.0
C      1  0.4438060000000  0.5136060000000  0.4491860000000 1.0
C      1  0.4887250000000  0.4411110000000  0.4483340000000 1.0
C      1  0.5561940000000  0.4863940000000  0.4491860000000 1.0
C      1  0.5112750000000  0.5588900000000  0.4483350000000 1.0
C      1  0.5588890000000  0.5112750000000  0.5516660000000 1.0
C      1  0.5136070000000  0.4438060000000  0.5508130000000 1.0
C      1  0.4411100000000  0.4887240000000  0.5516660000000 1.0
C      1  0.4863930000000  0.5561930000000  0.5508140000000 1.0
C      1  0.4960130000000  0.5495680000000  0.5829360000000 1.0
C      1  0.4519620000000  0.5015640000000  0.5813030000000 1.0
C      1  0.5039860000000  0.4504300000000  0.5829350000000 1.0
C      1  0.5480380000000  0.4984350000000  0.5813030000000 1.0
C      1  0.4984350000000  0.5480390000000  0.4186970000000 1.0
C      1  0.5495690000000  0.4960150000000  0.4170640000000 1.0
C      1  0.5015650000000  0.4519630000000  0.4186960000000 1.0
C      1  0.4504310000000  0.5039860000000  0.4170640000000 1.0
C      1  0.4806040000000  0.4495000000000  0.4783370000000 1.0
C      1  0.5462100000000  0.4852250000000  0.4804540000000 1.0
C      1  0.5193960000000  0.5505000000000  0.4783380000000 1.0
C      1  0.4537910000000  0.5147750000000  0.4804540000000 1.0
C      1  0.5147760000000  0.4537910000000  0.5195460000000 1.0
C      1  0.4495000000000  0.4806030000000  0.5216620000000 1.0
C      1  0.4852240000000  0.5462090000000  0.5195460000000 1.0
C      1  0.5505000000000  0.5193970000000  0.5216630000000 1.0
C      1  0.5959520000000  0.4819590000000  0.5030690000000 1.0
C      1  0.5084920000000  0.5957450000000  0.4920170000000 1.0
C      1  0.4040480000000  0.5180400000000  0.5030690000000 1.0
C      1  0.4915080000000  0.4042550000000  0.4920150000000 1.0
C      1  0.4042550000000  0.4915060000000  0.5079840000000 1.0
C      1  0.4819580000000  0.5959520000000  0.4969320000000 1.0
C      1  0.5957450000000  0.5084930000000  0.5079840000000 1.0
C      1  0.5180420000000  0.4040480000000  0.4969300000000 1.0
C      1  0.5117590000000  0.4838620000000  0.4200240000000 1.0
C      1  0.5223160000000  0.5161320000000  0.4196930000000 1.0
C      1  0.4882420000000  0.5161400000000  0.4200250000000 1.0
C      1  0.4776850000000  0.4838700000000  0.4196930000000 1.0
C      1  0.4838690000000  0.4776830000000  0.5803070000000 1.0
C      1  0.4838610000000  0.5117580000000  0.5799760000000 1.0
C      1  0.5161310000000  0.5223150000000  0.5803070000000 1.0
C      1  0.5161390000000  0.4882410000000  0.5799750000000 1.0
C      1  0.4584880000000  0.5850940000000  0.5050340000000 1.0
C      1  0.4133860000000  0.4665830000000  0.5119470000000 1.0
C      1  0.5415120000000  0.4149060000000  0.5050330000000 1.0
C      1  0.5866140000000  0.5334170000000  0.5119480000000 1.0
C      1  0.5334160000000  0.5866150000000  0.4880530000000 1.0
C      1  0.5850950000000  0.4584900000000  0.4949660000000 1.0
C      1  0.4665840000000  0.4133860000000  0.4880520000000 1.0
C      1  0.4149050000000  0.5415100000000  0.4949670000000 1.0
C      1  0.5172570000000  0.5191740000000  0.5199130000000 1.0
C      1  0.4846540000000  0.5127390000000  0.5198850000000 1.0
C      1  0.4827430000000  0.4808260000000  0.5199120000000 1.0
C      1  0.5153460000000  0.4872610000000  0.5198840000000 1.0
C      1  0.4872610000000  0.5153460000000  0.4801160000000 1.0
C      1  0.5191740000000  0.5172580000000  0.4800880000000 1.0
C      1  0.5127390000000  0.4846550000000  0.4801150000000 1.0
C      1  0.4808260000000  0.4827430000000  0.4800870000000 1.0
C      1  0.4314890000000  0.4860340000000  0.4641920000000 1.0
C      1  0.5143950000000  0.4307420000000  0.4654010000000 1.0
C      1  0.5685110000000  0.5139660000000  0.4641930000000 1.0
C      1  0.4856050000000  0.5692590000000  0.4654020000000 1.0
C      1  0.5692590000000  0.4856050000000  0.5345990000000 1.0
C      1  0.4860350000000  0.4314880000000  0.5358070000000 1.0
C      1  0.4307410000000  0.5143940000000  0.5345990000000 1.0
C      1  0.5139650000000  0.5685110000000  0.5358080000000 1.0
C      1  0.4540100000000  0.5593200000000  0.4565840000000 1.0
C      1  0.4391970000000  0.4539080000000  0.4554760000000 1.0
C      1  0.5459900000000  0.4406810000000  0.4565830000000 1.0
C      1  0.5608030000000  0.5460930000000  0.4554770000000 1.0
C      1  0.5460910000000  0.5608030000000  0.5445240000000 1.0
C      1  0.5593200000000  0.4540100000000  0.5434170000000 1.0
C      1  0.4539080000000  0.4391960000000  0.5445230000000 1.0
C      1  0.4406790000000  0.5459890000000  0.5434170000000 1.0
C      1  0.5603230000000  0.5512970000000  0.5180100000000 1.0
C      1  0.4539610000000  0.5577440000000  0.5181730000000 1.0
C      1  0.4396770000000  0.4487020000000  0.5180090000000 1.0
C      1  0.5460390000000  0.4422560000000  0.5181730000000 1.0
C      1  0.4422560000000  0.5460390000000  0.4818270000000 1.0
C      1  0.5512970000000  0.5603240000000  0.4819910000000 1.0
C      1  0.5577450000000  0.4539620000000  0.4818270000000 1.0
C      1  0.4487040000000  0.4396770000000  0.4819900000000 1.0
C      1  0.5220390000000  0.5604090000000  0.5680460000000 1.0
C      1  0.4321640000000  0.5241440000000  0.5675120000000 1.0
C      1  0.4779610000000  0.4395900000000  0.5680450000000 1.0
C      1  0.5678360000000  0.4758540000000  0.5675120000000 1.0
C      1  0.4758540000000  0.5678370000000  0.4324890000000 1.0
C      1  0.5604090000000  0.5220400000000  0.4319550000000 1.0
C      1  0.5241460000000  0.4321650000000  0.4324880000000 1.0
C      1  0.4395910000000  0.4779610000000  0.4319540000000 1.0
END
