TITL C-2782229-3092-1289 -0.00137933316303948 125000 -378.993777754587 0 0 71 (C1) n - 1
REM
REM in /home/nfs/bkarasulu/CARBON/AIRSS/Generating-Clusters/REBO/Higher-Symm/SD-CG/HFTN-CG
REM
REM
REM
REM
REM
REM ./C.cell (12c818d87b63d06a65506943cc24bca4)
REM
REM compiler GCC version 9.2.1 20190827 (Red Hat 9.2.1-1)
REM options -cpp -mtune=generic -march=x86-64 -g -O0 -fpre-include=/usr/include/finclude/math-vector-fortran.h
REM seed 1005251914 154877719 -1960892728 -1259473553 -206505677 -1074048382 -696780349 -709381424 241707081 1315695932 87692248 446444565 -1494547129 -1542692545 521674080 1789095793 -1667179795 -429174755 1235042839 1187177830 -193074526 -1645466335 -1135130475 -1601490250 913374432 688801329 -1620352966 2055194020 353861384 -125876668 1819593971 -374717140 1748218041
REM
CELL 1.54180   50.00000   50.00000   50.00000   90.00000   90.00000   90.00000
LATT -1
SFAC C  
C      1  0.5075830000000  0.3975180000000  0.4680020000000 1.0
C      1  0.4654100000000  0.5146080000000  0.3965140000000 1.0
C      1  0.3916250000000  0.4652970000000  0.4962710000000 1.0
C      1  0.4784460000000  0.5964030000000  0.4615050000000 1.0
C      1  0.4937110000000  0.4055650000000  0.5595440000000 1.0
C      1  0.5124070000000  0.6045100000000  0.5325900000000 1.0
C      1  0.5427310000000  0.4727240000000  0.4014960000000 1.0
C      1  0.5289630000000  0.4995990000000  0.6132830000000 1.0
C      1  0.4581160000000  0.5056310000000  0.6115530000000 1.0
C      1  0.6074760000000  0.5417810000000  0.5258660000000 1.0
C      1  0.6028710000000  0.4917290000000  0.4672110000000 1.0
C      1  0.3853840000000  0.5188520000000  0.5084710000000 1.0
C      1  0.5201790000000  0.4835600000000  0.5945110000000 1.0
C      1  0.5919250000000  0.5385350000000  0.5050220000000 1.0
C      1  0.4933070000000  0.5879420000000  0.5256950000000 1.0
C      1  0.4662810000000  0.5209200000000  0.5918970000000 1.0
C      1  0.4734990000000  0.4950750000000  0.4120010000000 1.0
C      1  0.5417300000000  0.4940210000000  0.4167370000000 1.0
C      1  0.4107390000000  0.4738970000000  0.4805390000000 1.0
C      1  0.4073660000000  0.5140690000000  0.5219140000000 1.0
C      1  0.5844440000000  0.4787760000000  0.4806090000000 1.0
C      1  0.5091550000000  0.4190870000000  0.5432510000000 1.0
C      1  0.5003580000000  0.5825950000000  0.4655100000000 1.0
C      1  0.4891340000000  0.4148230000000  0.4748560000000 1.0
C      1  0.4563420000000  0.5171850000000  0.5246910000000 1.0
C      1  0.5211330000000  0.4630750000000  0.5220760000000 1.0
C      1  0.5305790000000  0.5138250000000  0.4605710000000 1.0
C      1  0.5445750000000  0.4783380000000  0.5092280000000 1.0
C      1  0.5485360000000  0.5232650000000  0.4869280000000 1.0
C      1  0.4580990000000  0.4869640000000  0.4752170000000 1.0
C      1  0.4791130000000  0.5413770000000  0.5171690000000 1.0
C      1  0.4769910000000  0.4617140000000  0.4844000000000 1.0
C      1  0.5212460000000  0.5397690000000  0.4784910000000 1.0
C      1  0.4851600000000  0.4795030000000  0.4573360000000 1.0
C      1  0.4823040000000  0.5243440000000  0.5451220000000 1.0
C      1  0.5047160000000  0.4780890000000  0.5476350000000 1.0
C      1  0.4267540000000  0.4885160000000  0.4370820000000 1.0
C      1  0.4434600000000  0.4256320000000  0.4872840000000 1.0
C      1  0.4878000000000  0.4491540000000  0.4185670000000 1.0
C      1  0.5832460000000  0.5423080000000  0.4573830000000 1.0
C      1  0.5645710000000  0.4367190000000  0.4963750000000 1.0
C      1  0.4303080000000  0.4964650000000  0.5608330000000 1.0
C      1  0.5487650000000  0.5788240000000  0.4660990000000 1.0
C      1  0.5466470000000  0.4223490000000  0.5112340000000 1.0
C      1  0.4475080000000  0.5790120000000  0.5122220000000 1.0
C      1  0.5487140000000  0.5415220000000  0.4239760000000 1.0
C      1  0.5070630000000  0.4394670000000  0.5787230000000 1.0
C      1  0.4769690000000  0.5646120000000  0.5734700000000 1.0
C      1  0.5235560000000  0.5679750000000  0.4697500000000 1.0
C      1  0.4749250000000  0.5371060000000  0.5710870000000 1.0
C      1  0.5648420000000  0.4649980000000  0.4948620000000 1.0
C      1  0.4696010000000  0.4331450000000  0.4821130000000 1.0
C      1  0.4730860000000  0.5704020000000  0.5183960000000 1.0
C      1  0.5254600000000  0.4333640000000  0.5260490000000 1.0
C      1  0.5108800000000  0.4665800000000  0.5746380000000 1.0
C      1  0.5406700000000  0.5165690000000  0.4328720000000 1.0
C      1  0.4820630000000  0.4743940000000  0.4283970000000 1.0
C      1  0.4306410000000  0.5090050000000  0.5361490000000 1.0
C      1  0.4309750000000  0.4830020000000  0.4638820000000 1.0
C      1  0.5754610000000  0.5350990000000  0.4829540000000 1.0
C      1  0.4966500000000  0.5313420000000  0.4926920000000 1.0
C      1  0.5074950000000  0.5081710000000  0.5453650000000 1.0
C      1  0.5441520000000  0.5062500000000  0.5112390000000 1.0
C      1  0.4922760000000  0.4708420000000  0.5104490000000 1.0
C      1  0.5137840000000  0.4897460000000  0.4674140000000 1.0
C      1  0.4622900000000  0.5114730000000  0.4940650000000 1.0
C      1  0.4741470000000  0.4704650000000  0.5356810000000 1.0
C      1  0.5317280000000  0.4653520000000  0.4724340000000 1.0
C      1  0.4671830000000  0.5387130000000  0.4791490000000 1.0
C      1  0.5298000000000  0.5169760000000  0.5328050000000 1.0
C      1  0.4933300000000  0.4973910000000  0.4920960000000 1.0
END
