TITL C-2782231-7322-436 -0.00300055557493925 125000 -794.031083587342 0 0 136 (C1) n - 1
REM
REM in /home/nfs/bkarasulu/CARBON/AIRSS/Generating-Clusters/REBO/Higher-Symm/SD-CG/HFTN-CG
REM
REM
REM
REM
REM
REM ./C.cell (12c818d87b63d06a65506943cc24bca4)
REM
REM compiler GCC version 9.2.1 20190827 (Red Hat 9.2.1-1)
REM options -cpp -mtune=generic -march=x86-64 -g -O0 -fpre-include=/usr/include/finclude/math-vector-fortran.h
REM seed 1578929 643237282 1302772129 2051106696 1500031969 -1166892568 -1386086156 1020452100 1366406849 -1159732136 -862091677 1579926137 1203038666 1321609580 -387415553 780112272 1864038410 1578352957 -2016234580 1202766149 1517832329 -2071090622 -673791480 -2024603219 -995519138 -2052551017 1604671019 1777414376 -1686091681 515600120 1123098461 -825000620 -739483486
REM
CELL 1.54180   50.00000   50.00000   50.00000   90.00000   90.00000   90.00000
LATT -1
SFAC C  
C      1  0.4528870000000  0.4060590000000  0.4593300000000 1.0
C      1  0.4971270000000  0.4344120000000  0.5519680000000 1.0
C      1  0.4426890000000  0.6013620000000  0.5402170000000 1.0
C      1  0.4788820000000  0.4359770000000  0.4641570000000 1.0
C      1  0.4679610000000  0.6059800000000  0.5269050000000 1.0
C      1  0.5452040000000  0.5475820000000  0.5244880000000 1.0
C      1  0.4191590000000  0.4886270000000  0.5430060000000 1.0
C      1  0.5436390000000  0.4967710000000  0.4565700000000 1.0
C      1  0.4971980000000  0.4854990000000  0.5626070000000 1.0
C      1  0.5340110000000  0.5736020000000  0.5258460000000 1.0
C      1  0.4808350000000  0.4624670000000  0.5512180000000 1.0
C      1  0.4619400000000  0.5187190000000  0.5612150000000 1.0
C      1  0.4391580000000  0.5335630000000  0.4632860000000 1.0
C      1  0.4238920000000  0.5007600000000  0.4856280000000 1.0
C      1  0.4953530000000  0.4528530000000  0.5993860000000 1.0
C      1  0.5254910000000  0.4252870000000  0.5253320000000 1.0
C      1  0.5222830000000  0.4581860000000  0.4137880000000 1.0
C      1  0.4197980000000  0.6151560000000  0.5360690000000 1.0
C      1  0.5794370000000  0.5325250000000  0.4996820000000 1.0
C      1  0.5786080000000  0.5313960000000  0.4524120000000 1.0
C      1  0.5385650000000  0.5316250000000  0.4957150000000 1.0
C      1  0.5235170000000  0.5634350000000  0.5727710000000 1.0
C      1  0.4981540000000  0.5639010000000  0.4663640000000 1.0
C      1  0.4452020000000  0.5764600000000  0.5545570000000 1.0
C      1  0.5567790000000  0.6000810000000  0.4531330000000 1.0
C      1  0.5867360000000  0.5748300000000  0.5208150000000 1.0
C      1  0.5119720000000  0.5151140000000  0.4893190000000 1.0
C      1  0.5151010000000  0.4436080000000  0.5788480000000 1.0
C      1  0.5450460000000  0.5006450000000  0.5374110000000 1.0
C      1  0.5344510000000  0.4716400000000  0.5775000000000 1.0
C      1  0.4937800000000  0.5581950000000  0.5837310000000 1.0
C      1  0.4864920000000  0.4713940000000  0.4995880000000 1.0
C      1  0.5830870000000  0.4558820000000  0.4477280000000 1.0
C      1  0.5202990000000  0.5201950000000  0.5965810000000 1.0
C      1  0.4744610000000  0.5121490000000  0.5869650000000 1.0
C      1  0.5632560000000  0.4337130000000  0.4978300000000 1.0
C      1  0.5616050000000  0.4430540000000  0.4330940000000 1.0
C      1  0.5621440000000  0.5299040000000  0.4302130000000 1.0
C      1  0.5696400000000  0.4637140000000  0.5121650000000 1.0
C      1  0.4330880000000  0.5113580000000  0.5577540000000 1.0
C      1  0.5470650000000  0.4840700000000  0.5077820000000 1.0
C      1  0.5377580000000  0.5464800000000  0.4242050000000 1.0
C      1  0.4580750000000  0.4802200000000  0.4573770000000 1.0
C      1  0.4370360000000  0.4729860000000  0.5109840000000 1.0
C      1  0.4084230000000  0.5091390000000  0.4499780000000 1.0
C      1  0.5740430000000  0.5603030000000  0.4998920000000 1.0
C      1  0.4029760000000  0.5237230000000  0.5102050000000 1.0
C      1  0.5129590000000  0.5621920000000  0.4933040000000 1.0
C      1  0.4695000000000  0.5995330000000  0.4993590000000 1.0
C      1  0.4035550000000  0.4779770000000  0.4878110000000 1.0
C      1  0.4392150000000  0.5073820000000  0.5139300000000 1.0
C      1  0.4383440000000  0.5293530000000  0.4328930000000 1.0
C      1  0.5227330000000  0.5851340000000  0.5520590000000 1.0
C      1  0.4301680000000  0.4391310000000  0.5310620000000 1.0
C      1  0.4995330000000  0.4811770000000  0.3904140000000 1.0
C      1  0.5155560000000  0.5059560000000  0.5462170000000 1.0
C      1  0.4461590000000  0.4818770000000  0.4195540000000 1.0
C      1  0.5078260000000  0.4636780000000  0.4431110000000 1.0
C      1  0.4883990000000  0.5232830000000  0.4681760000000 1.0
C      1  0.4518690000000  0.4523800000000  0.5634360000000 1.0
C      1  0.5411410000000  0.5353460000000  0.5783020000000 1.0
C      1  0.4506120000000  0.4543580000000  0.4391900000000 1.0
C      1  0.4205720000000  0.4464050000000  0.5040100000000 1.0
C      1  0.5935000000000  0.4831520000000  0.5218150000000 1.0
C      1  0.5802060000000  0.4836230000000  0.4480310000000 1.0
C      1  0.4559940000000  0.4241870000000  0.5149070000000 1.0
C      1  0.4877460000000  0.4871620000000  0.4504230000000 1.0
C      1  0.4638550000000  0.4265010000000  0.5482170000000 1.0
C      1  0.5437580000000  0.5644010000000  0.4882630000000 1.0
C      1  0.5587590000000  0.4850320000000  0.5615890000000 1.0
C      1  0.4775830000000  0.4410400000000  0.4304030000000 1.0
C      1  0.5087730000000  0.4296620000000  0.4383500000000 1.0
C      1  0.5024760000000  0.5804560000000  0.5183530000000 1.0
C      1  0.4909930000000  0.5936630000000  0.5452410000000 1.0
C      1  0.4858610000000  0.5152250000000  0.4358780000000 1.0
C      1  0.5068280000000  0.4838690000000  0.4775080000000 1.0
C      1  0.4920430000000  0.4571490000000  0.4070700000000 1.0
C      1  0.4868600000000  0.4149720000000  0.5258910000000 1.0
C      1  0.5636630000000  0.5429850000000  0.5461900000000 1.0
C      1  0.5133040000000  0.5573410000000  0.4418570000000 1.0
C      1  0.5494700000000  0.4625070000000  0.4159300000000 1.0
C      1  0.4131180000000  0.4495040000000  0.4754600000000 1.0
C      1  0.4308640000000  0.5546670000000  0.5445740000000 1.0
C      1  0.5863580000000  0.5080070000000  0.5441690000000 1.0
C      1  0.4356920000000  0.4355450000000  0.4580500000000 1.0
C      1  0.5333510000000  0.4581470000000  0.5465720000000 1.0
C      1  0.5805970000000  0.4693400000000  0.5502030000000 1.0
C      1  0.5289060000000  0.4592950000000  0.4686810000000 1.0
C      1  0.5193760000000  0.4918110000000  0.5949000000000 1.0
C      1  0.4673220000000  0.5503690000000  0.4691270000000 1.0
C      1  0.5619850000000  0.5760740000000  0.4654870000000 1.0
C      1  0.4017210000000  0.4941740000000  0.5178110000000 1.0
C      1  0.5338080000000  0.4256940000000  0.5574450000000 1.0
C      1  0.4877500000000  0.4838470000000  0.5946720000000 1.0
C      1  0.5013810000000  0.4427880000000  0.4765580000000 1.0
C      1  0.4727740000000  0.5298280000000  0.5043380000000 1.0
C      1  0.6002670000000  0.4977750000000  0.4941120000000 1.0
C      1  0.5181750000000  0.5003230000000  0.3902820000000 1.0
C      1  0.5839420000000  0.5631410000000  0.5459970000000 1.0
C      1  0.5409520000000  0.4286940000000  0.4459560000000 1.0
C      1  0.4708840000000  0.5017770000000  0.5203560000000 1.0
C      1  0.5189220000000  0.4070530000000  0.4801830000000 1.0
C      1  0.4585680000000  0.4814720000000  0.4882780000000 1.0
C      1  0.4834640000000  0.5419160000000  0.5487170000000 1.0
C      1  0.4573710000000  0.5102910000000  0.4238400000000 1.0
C      1  0.5801280000000  0.5052480000000  0.4704570000000 1.0
C      1  0.4258590000000  0.5350100000000  0.5264160000000 1.0
C      1  0.4727190000000  0.5817090000000  0.4801210000000 1.0
C      1  0.4937860000000  0.5321790000000  0.5951390000000 1.0
C      1  0.4541950000000  0.4264140000000  0.4856050000000 1.0
C      1  0.4086840000000  0.5293640000000  0.4771600000000 1.0
C      1  0.5129300000000  0.5336180000000  0.5588430000000 1.0
C      1  0.4767790000000  0.3944400000000  0.4536600000000 1.0
C      1  0.5563910000000  0.4905650000000  0.4265040000000 1.0
C      1  0.5695850000000  0.5149460000000  0.5184200000000 1.0
C      1  0.4668930000000  0.4706170000000  0.5257630000000 1.0
C      1  0.4279380000000  0.4620470000000  0.5498440000000 1.0
C      1  0.5030620000000  0.4049940000000  0.4568990000000 1.0
C      1  0.4286420000000  0.4921510000000  0.4447910000000 1.0
C      1  0.5420270000000  0.4292130000000  0.4775790000000 1.0
C      1  0.5571020000000  0.4386950000000  0.5305100000000 1.0
C      1  0.5833650000000  0.5579240000000  0.4606720000000 1.0
C      1  0.4187820000000  0.5411670000000  0.4174550000000 1.0
C      1  0.5077050000000  0.4464560000000  0.5090610000000 1.0
C      1  0.5021650000000  0.5032600000000  0.5174350000000 1.0
C      1  0.4744570000000  0.5710760000000  0.5613840000000 1.0
C      1  0.4994940000000  0.5379470000000  0.4221940000000 1.0
C      1  0.5093010000000  0.4056560000000  0.5065030000000 1.0
C      1  0.4596970000000  0.5130010000000  0.4801250000000 1.0
C      1  0.5501910000000  0.5040490000000  0.4852100000000 1.0
C      1  0.4155360000000  0.5284400000000  0.5705720000000 1.0
C      1  0.4908650000000  0.5496640000000  0.5166210000000 1.0
C      1  0.5648940000000  0.5180030000000  0.5674120000000 1.0
C      1  0.5192800000000  0.4743710000000  0.5220680000000 1.0
C      1  0.5199220000000  0.5318890000000  0.3989350000000 1.0
C      1  0.5459630000000  0.5116600000000  0.4065190000000 1.0
END
