TITL C-2782232-2968-463 0.000601311707206099 125000 -1151.33403825244 0 0 199 (C1) n - 1
REM
REM in /home/nfs/bkarasulu/CARBON/AIRSS/Generating-Clusters/REBO/Higher-Symm/SD-CG/HFTN-CG
REM
REM
REM
REM
REM
REM ./C.cell (12c818d87b63d06a65506943cc24bca4)
REM
REM compiler GCC version 9.2.1 20190827 (Red Hat 9.2.1-1)
REM options -cpp -mtune=generic -march=x86-64 -g -O0 -fpre-include=/usr/include/finclude/math-vector-fortran.h
REM seed -1069862899 -2040188897 472673948 2139460077 -148058781 1234584611 -821803769 -1534051714 -343432318 -395835722 1636737558 -472598222 -1228702174 784089453 1679981631 -1558850779 1408229860 801772842 -874703501 165970564 -522056055 778088526 1390337029 1332377248 1705628528 -1042388896 268582253 -1548327016 -1780698632 1463346511 1398601371 -319647151 -1889022953
REM
CELL 1.54180   50.00000   50.00000   50.00000   90.00000   90.00000   90.00000
LATT -1
SFAC C  
C      1  0.6103360000000  0.4873220000000  0.5322190000000 1.0
C      1  0.5041330000000  0.4870810000000  0.6139420000000 1.0
C      1  0.3916760000000  0.4828010000000  0.5472210000000 1.0
C      1  0.4315740000000  0.4833290000000  0.4089140000000 1.0
C      1  0.5596820000000  0.4844790000000  0.3973120000000 1.0
C      1  0.5502560000000  0.5230580000000  0.3946020000000 1.0
C      1  0.6100500000000  0.5262110000000  0.5130960000000 1.0
C      1  0.5194360000000  0.5237230000000  0.6092700000000 1.0
C      1  0.4001780000000  0.5265850000000  0.5531000000000 1.0
C      1  0.4145180000000  0.5254510000000  0.4206560000000 1.0
C      1  0.5283320000000  0.4729050000000  0.5956690000000 1.0
C      1  0.4183250000000  0.4691470000000  0.5604770000000 1.0
C      1  0.4214220000000  0.4687700000000  0.4369740000000 1.0
C      1  0.5290190000000  0.4724700000000  0.4022450000000 1.0
C      1  0.6050010000000  0.4734550000000  0.5035640000000 1.0
C      1  0.5603620000000  0.5859670000000  0.5494360000000 1.0
C      1  0.4717730000000  0.5884270000000  0.5751430000000 1.0
C      1  0.4251650000000  0.5870950000000  0.4957770000000 1.0
C      1  0.4805140000000  0.5877010000000  0.4240370000000 1.0
C      1  0.5674820000000  0.5898340000000  0.4575080000000 1.0
C      1  0.4510540000000  0.4976600000000  0.4318370000000 1.0
C      1  0.5527030000000  0.4973350000000  0.4264830000000 1.0
C      1  0.5798120000000  0.5007230000000  0.5252330000000 1.0
C      1  0.4991190000000  0.4995160000000  0.5838590000000 1.0
C      1  0.4139640000000  0.4979720000000  0.5288380000000 1.0
C      1  0.4647190000000  0.5562940000000  0.5127420000000 1.0
C      1  0.4844810000000  0.5531960000000  0.4711220000000 1.0
C      1  0.5301730000000  0.5584350000000  0.4618130000000 1.0
C      1  0.5279960000000  0.5539550000000  0.5119040000000 1.0
C      1  0.4964430000000  0.5522600000000  0.5363230000000 1.0
C      1  0.4267890000000  0.5195660000000  0.5730790000000 1.0
C      1  0.4104890000000  0.5213120000000  0.4528340000000 1.0
C      1  0.5166020000000  0.5189360000000  0.3974260000000 1.0
C      1  0.5993230000000  0.5216230000000  0.4819720000000 1.0
C      1  0.5464150000000  0.5185280000000  0.5900790000000 1.0
C      1  0.4358100000000  0.4302320000000  0.5164520000000 1.0
C      1  0.4612740000000  0.4223080000000  0.4326040000000 1.0
C      1  0.5409980000000  0.4258270000000  0.4420550000000 1.0
C      1  0.5639210000000  0.4312130000000  0.5247220000000 1.0
C      1  0.4972320000000  0.4294950000000  0.5687190000000 1.0
C      1  0.5157210000000  0.4497340000000  0.4719180000000 1.0
C      1  0.5389100000000  0.4475230000000  0.5080370000000 1.0
C      1  0.5041030000000  0.4494950000000  0.5349960000000 1.0
C      1  0.4710230000000  0.4478890000000  0.5095740000000 1.0
C      1  0.4716360000000  0.4454480000000  0.4673410000000 1.0
C      1  0.5117410000000  0.4415190000000  0.4389740000000 1.0
C      1  0.5650430000000  0.4451880000000  0.4876400000000 1.0
C      1  0.5266060000000  0.4419110000000  0.5578070000000 1.0
C      1  0.4561380000000  0.4432940000000  0.5399090000000 1.0
C      1  0.4408930000000  0.4469540000000  0.4647920000000 1.0
C      1  0.4652750000000  0.4941170000000  0.5342380000000 1.0
C      1  0.4585760000000  0.4949580000000  0.4788290000000 1.0
C      1  0.5094520000000  0.4964970000000  0.4544440000000 1.0
C      1  0.5473310000000  0.4946660000000  0.4920920000000 1.0
C      1  0.5217050000000  0.4956650000000  0.5416890000000 1.0
C      1  0.4333240000000  0.4368160000000  0.4345670000000 1.0
C      1  0.5341170000000  0.4430970000000  0.4146960000000 1.0
C      1  0.5902500000000  0.4434970000000  0.5107390000000 1.0
C      1  0.5172080000000  0.4427220000000  0.5905770000000 1.0
C      1  0.4223670000000  0.4411640000000  0.5439960000000 1.0
C      1  0.5866100000000  0.5710740000000  0.4702880000000 1.0
C      1  0.5540830000000  0.5698790000000  0.5734940000000 1.0
C      1  0.4488410000000  0.5693090000000  0.5738470000000 1.0
C      1  0.4178040000000  0.5710460000000  0.4714600000000 1.0
C      1  0.4997630000000  0.5697310000000  0.4105820000000 1.0
C      1  0.4388690000000  0.5334220000000  0.4116130000000 1.0
C      1  0.5706600000000  0.5336770000000  0.4096160000000 1.0
C      1  0.5998720000000  0.5343890000000  0.5367490000000 1.0
C      1  0.4944020000000  0.5340800000000  0.6090000000000 1.0
C      1  0.3938320000000  0.5367540000000  0.5285300000000 1.0
C      1  0.4287990000000  0.4883860000000  0.5865130000000 1.0
C      1  0.4046630000000  0.4901160000000  0.4578670000000 1.0
C      1  0.5076020000000  0.4896250000000  0.3821510000000 1.0
C      1  0.6009180000000  0.4906070000000  0.4749620000000 1.0
C      1  0.5592140000000  0.4872570000000  0.5943670000000 1.0
C      1  0.4151690000000  0.5850700000000  0.5244730000000 1.0
C      1  0.4534100000000  0.5788590000000  0.4260660000000 1.0
C      1  0.5594560000000  0.5833650000000  0.4306740000000 1.0
C      1  0.5847620000000  0.5836380000000  0.5312540000000 1.0
C      1  0.4958830000000  0.5851150000000  0.5939490000000 1.0
C      1  0.5114910000000  0.5805710000000  0.5464940000000 1.0
C      1  0.4636430000000  0.5864130000000  0.5263420000000 1.0
C      1  0.4679950000000  0.5829900000000  0.4705580000000 1.0
C      1  0.5181420000000  0.5890450000000  0.4562060000000 1.0
C      1  0.5445960000000  0.5819550000000  0.5019340000000 1.0
C      1  0.5265530000000  0.5758110000000  0.4262670000000 1.0
C      1  0.5774380000000  0.5734190000000  0.4996220000000 1.0
C      1  0.5234480000000  0.5741030000000  0.5772570000000 1.0
C      1  0.4393760000000  0.5717410000000  0.5443800000000 1.0
C      1  0.4396980000000  0.5801540000000  0.4537250000000 1.0
C      1  0.5417260000000  0.4830000000000  0.5666420000000 1.0
C      1  0.4495040000000  0.4808480000000  0.5618530000000 1.0
C      1  0.4334230000000  0.4775750000000  0.4672690000000 1.0
C      1  0.5002610000000  0.4866090000000  0.4140500000000 1.0
C      1  0.5748220000000  0.4748770000000  0.4890200000000 1.0
C      1  0.4552750000000  0.4131130000000  0.5726160000000 1.0
C      1  0.4191420000000  0.4135890000000  0.4790930000000 1.0
C      1  0.4890070000000  0.4166630000000  0.4135810000000 1.0
C      1  0.5793570000000  0.4121090000000  0.4703440000000 1.0
C      1  0.5579840000000  0.4134310000000  0.5656330000000 1.0
C      1  0.5437430000000  0.5941170000000  0.4737180000000 1.0
C      1  0.5370700000000  0.5883750000000  0.5321890000000 1.0
C      1  0.4828340000000  0.5931810000000  0.5484780000000 1.0
C      1  0.4538450000000  0.5912890000000  0.4967620000000 1.0
C      1  0.4892070000000  0.5950430000000  0.4509670000000 1.0
C      1  0.4681510000000  0.5343840000000  0.3977640000000 1.0
C      1  0.5938070000000  0.5349290000000  0.4344950000000 1.0
C      1  0.5877700000000  0.5345950000000  0.5667250000000 1.0
C      1  0.4625210000000  0.5327030000000  0.6047740000000 1.0
C      1  0.3881760000000  0.5370200000000  0.4950970000000 1.0
C      1  0.5269940000000  0.5420220000000  0.4321690000000 1.0
C      1  0.5600290000000  0.5452280000000  0.5039920000000 1.0
C      1  0.5130970000000  0.5448530000000  0.5642540000000 1.0
C      1  0.4426150000000  0.5405770000000  0.5325170000000 1.0
C      1  0.4516920000000  0.5444110000000  0.4668440000000 1.0
C      1  0.5930330000000  0.4370730000000  0.4603200000000 1.0
C      1  0.5696720000000  0.4400160000000  0.5754850000000 1.0
C      1  0.4507060000000  0.4395950000000  0.5875050000000 1.0
C      1  0.4025830000000  0.4387270000000  0.4762820000000 1.0
C      1  0.4938490000000  0.4364120000000  0.3949100000000 1.0
C      1  0.5666820000000  0.5137500000000  0.4603810000000 1.0
C      1  0.5549040000000  0.5181140000000  0.5511310000000 1.0
C      1  0.4662620000000  0.5162510000000  0.5685200000000 1.0
C      1  0.4241660000000  0.5199990000000  0.4972660000000 1.0
C      1  0.4869320000000  0.5145890000000  0.4269550000000 1.0
C      1  0.5751700000000  0.5525960000000  0.5333760000000 1.0
C      1  0.4899070000000  0.5545300000000  0.5857470000000 1.0
C      1  0.4168840000000  0.5540980000000  0.5166890000000 1.0
C      1  0.4537380000000  0.5489670000000  0.4332710000000 1.0
C      1  0.5584370000000  0.5526270000000  0.4306130000000 1.0
C      1  0.4718910000000  0.4747300000000  0.6159570000000 1.0
C      1  0.3840220000000  0.4758710000000  0.5144370000000 1.0
C      1  0.4601550000000  0.4728300000000  0.3921820000000 1.0
C      1  0.5844570000000  0.4743250000000  0.4190110000000 1.0
C      1  0.5997260000000  0.4765630000000  0.5634940000000 1.0
C      1  0.4377650000000  0.4507830000000  0.4053980000000 1.0
C      1  0.5632290000000  0.4520230000000  0.4043790000000 1.0
C      1  0.6057800000000  0.4543680000000  0.5382880000000 1.0
C      1  0.4988500000000  0.4539120000000  0.6145730000000 1.0
C      1  0.3924800000000  0.4510050000000  0.5361830000000 1.0
C      1  0.4283200000000  0.4491260000000  0.4948090000000 1.0
C      1  0.4828740000000  0.4475330000000  0.4377140000000 1.0
C      1  0.5602920000000  0.4444290000000  0.4567020000000 1.0
C      1  0.5542500000000  0.4493840000000  0.5490040000000 1.0
C      1  0.4722430000000  0.4481730000000  0.5647030000000 1.0
C      1  0.5813140000000  0.4649950000000  0.5852350000000 1.0
C      1  0.4458930000000  0.4641400000000  0.6024710000000 1.0
C      1  0.3975360000000  0.4715470000000  0.4836910000000 1.0
C      1  0.4880090000000  0.4618100000000  0.3853610000000 1.0
C      1  0.5905460000000  0.4697530000000  0.4522120000000 1.0
C      1  0.5409540000000  0.4094390000000  0.5364600000000 1.0
C      1  0.4790250000000  0.4103340000000  0.5488830000000 1.0
C      1  0.4475920000000  0.4082220000000  0.4949060000000 1.0
C      1  0.4894450000000  0.4093300000000  0.4471090000000 1.0
C      1  0.5473160000000  0.4096940000000  0.4714960000000 1.0
C      1  0.4656810000000  0.5028490000000  0.4024440000000 1.0
C      1  0.5844810000000  0.5044200000000  0.4336460000000 1.0
C      1  0.5849730000000  0.5039150000000  0.5578180000000 1.0
C      1  0.4701810000000  0.5018610000000  0.5991130000000 1.0
C      1  0.3939580000000  0.5061040000000  0.5031290000000 1.0
C      1  0.5552430000000  0.5383490000000  0.4600080000000 1.0
C      1  0.5439540000000  0.5422540000000  0.5396730000000 1.0
C      1  0.4740190000000  0.5415990000000  0.5597730000000 1.0
C      1  0.4396670000000  0.5456420000000  0.4932670000000 1.0
C      1  0.4813920000000  0.5348600000000  0.4424390000000 1.0
C      1  0.5239300000000  0.5175550000000  0.4961650000000 1.0
C      1  0.5112830000000  0.5180860000000  0.5219320000000 1.0
C      1  0.4823790000000  0.5173250000000  0.5183300000000 1.0
C      1  0.4780370000000  0.5175040000000  0.4898670000000 1.0
C      1  0.5034750000000  0.5176930000000  0.4764640000000 1.0
C      1  0.4026340000000  0.5458260000000  0.4718270000000 1.0
C      1  0.4949360000000  0.5438420000000  0.3990600000000 1.0
C      1  0.5963530000000  0.5452860000000  0.4610810000000 1.0
C      1  0.5645910000000  0.5438210000000  0.5802020000000 1.0
C      1  0.4435720000000  0.5436960000000  0.5866290000000 1.0
C      1  0.5199320000000  0.5162360000000  0.5699830000000 1.0
C      1  0.4371340000000  0.5130670000000  0.5415770000000 1.0
C      1  0.4436130000000  0.5152710000000  0.4549850000000 1.0
C      1  0.5265890000000  0.5117200000000  0.4294000000000 1.0
C      1  0.5718560000000  0.5172390000000  0.4998900000000 1.0
C      1  0.4764790000000  0.4763520000000  0.4303740000000 1.0
C      1  0.5570400000000  0.4752220000000  0.4479450000000 1.0
C      1  0.5585060000000  0.4802500000000  0.5395380000000 1.0
C      1  0.4808330000000  0.4792080000000  0.5679160000000 1.0
C      1  0.4228430000000  0.4786340000000  0.5057790000000 1.0
C      1  0.5321380000000  0.4776080000000  0.4668550000000 1.0
C      1  0.5367700000000  0.4764930000000  0.5171120000000 1.0
C      1  0.4948290000000  0.4772970000000  0.5402350000000 1.0
C      1  0.4550020000000  0.4771090000000  0.5077400000000 1.0
C      1  0.4819460000000  0.4780150000000  0.4631440000000 1.0
C      1  0.5351110000000  0.4142630000000  0.5029360000000 1.0
C      1  0.5088950000000  0.4162120000000  0.5329620000000 1.0
C      1  0.4722770000000  0.4147000000000  0.5174700000000 1.0
C      1  0.4751140000000  0.4150850000000  0.4777330000000 1.0
C      1  0.5139300000000  0.4158750000000  0.4691800000000 1.0
C      1  0.5011230000000  0.4088090000000  0.4999930000000 1.0
C      1  0.5010080000000  0.4852710000000  0.5015670000000 1.0
C      1  0.4964150000000  0.5511450000000  0.5025070000000 1.0
C      1  0.4967570000000  0.4595090000000  0.4952640000000 1.0
END
