TITL C-2782235-7892-443 0.00458614650612139 125000 -1061.13773513225 0 0 185 (C1) n - 1
REM
REM in /home/nfs/bkarasulu/CARBON/AIRSS/Generating-Clusters/REBO/Higher-Symm/SD-CG/HFTN-CG
REM
REM
REM
REM
REM
REM ./C.cell (12c818d87b63d06a65506943cc24bca4)
REM
REM compiler GCC version 9.2.1 20190827 (Red Hat 9.2.1-1)
REM options -cpp -mtune=generic -march=x86-64 -g -O0 -fpre-include=/usr/include/finclude/math-vector-fortran.h
REM seed 296397392 -1633317179 1788440185 1023535295 438907639 934226088 -885600787 1590420736 1182327419 474692793 -369260069 731611944 -1230787202 -1160607408 -1205254580 -1573641741 680959176 -1686612871 -1220909116 -1530902841 -1000951833 831426762 -1074959104 -142103409 481379782 1430435081 -1172083602 597335934 -1498525632 257585401 -983318003 -1417629688 898933807
REM
CELL 1.54180   50.00000   50.00000   50.00000   90.00000   90.00000   90.00000
LATT -1
SFAC C  
C      1  0.4996240000000  0.5339110000000  0.3927900000000 1.0
C      1  0.5923830000000  0.5289180000000  0.5556450000000 1.0
C      1  0.4061710000000  0.5329790000000  0.5518070000000 1.0
C      1  0.4724610000000  0.4832200000000  0.6077880000000 1.0
C      1  0.4169490000000  0.4852790000000  0.4236650000000 1.0
C      1  0.6074960000000  0.4891680000000  0.4646890000000 1.0
C      1  0.5642310000000  0.5109190000000  0.5764280000000 1.0
C      1  0.4074260000000  0.5158870000000  0.5158730000000 1.0
C      1  0.5310490000000  0.5186040000000  0.4116210000000 1.0
C      1  0.4418840000000  0.5437660000000  0.5659730000000 1.0
C      1  0.4688920000000  0.5441640000000  0.4160440000000 1.0
C      1  0.5882470000000  0.5388900000000  0.5173130000000 1.0
C      1  0.4274950000000  0.5724700000000  0.5660940000000 1.0
C      1  0.4764250000000  0.5727750000000  0.4037270000000 1.0
C      1  0.5966430000000  0.5689910000000  0.5238120000000 1.0
C      1  0.4374010000000  0.5221050000000  0.5837250000000 1.0
C      1  0.4576860000000  0.5213950000000  0.4030460000000 1.0
C      1  0.6061330000000  0.5170490000000  0.5146070000000 1.0
C      1  0.5799560000000  0.4587940000000  0.5968040000000 1.0
C      1  0.3832340000000  0.4568120000000  0.5344510000000 1.0
C      1  0.5274330000000  0.4584560000000  0.3794720000000 1.0
C      1  0.5633630000000  0.5846730000000  0.5386140000000 1.0
C      1  0.4328730000000  0.5861510000000  0.5293510000000 1.0
C      1  0.5062670000000  0.5899650000000  0.4233150000000 1.0
C      1  0.4887660000000  0.4888900000000  0.5263130000000 1.0
C      1  0.4845780000000  0.4912260000000  0.4768150000000 1.0
C      1  0.5289110000000  0.4915270000000  0.4980810000000 1.0
C      1  0.5406540000000  0.4819010000000  0.4341150000000 1.0
C      1  0.5312440000000  0.4694110000000  0.5694630000000 1.0
C      1  0.4264550000000  0.4756380000000  0.4944790000000 1.0
C      1  0.4868390000000  0.4608990000000  0.4769300000000 1.0
C      1  0.5323470000000  0.4601760000000  0.4951070000000 1.0
C      1  0.4921680000000  0.4585880000000  0.5252810000000 1.0
C      1  0.4640870000000  0.4589930000000  0.5447010000000 1.0
C      1  0.4858240000000  0.4555050000000  0.4440430000000 1.0
C      1  0.5547040000000  0.4509330000000  0.5148720000000 1.0
C      1  0.4921860000000  0.6083800000000  0.4485570000000 1.0
C      1  0.5476490000000  0.6013820000000  0.5131680000000 1.0
C      1  0.4636440000000  0.6006970000000  0.5303920000000 1.0
C      1  0.4499730000000  0.4601300000000  0.5738570000000 1.0
C      1  0.4631210000000  0.4587640000000  0.4207830000000 1.0
C      1  0.5868630000000  0.4566640000000  0.5064810000000 1.0
C      1  0.4708620000000  0.5901110000000  0.4998010000000 1.0
C      1  0.5112600000000  0.5852530000000  0.4626350000000 1.0
C      1  0.5195920000000  0.5855290000000  0.5225570000000 1.0
C      1  0.5158680000000  0.4752600000000  0.4137870000000 1.0
C      1  0.5589840000000  0.4668240000000  0.5545440000000 1.0
C      1  0.4190730000000  0.4727530000000  0.5270350000000 1.0
C      1  0.5541380000000  0.4112600000000  0.5488310000000 1.0
C      1  0.4428180000000  0.4182730000000  0.5240140000000 1.0
C      1  0.5068950000000  0.4221160000000  0.4379540000000 1.0
C      1  0.5399890000000  0.5622890000000  0.5153750000000 1.0
C      1  0.4751610000000  0.5638180000000  0.5202160000000 1.0
C      1  0.4909030000000  0.5626150000000  0.4680720000000 1.0
C      1  0.4595190000000  0.4383250000000  0.5897000000000 1.0
C      1  0.4443410000000  0.4383790000000  0.4271650000000 1.0
C      1  0.5932170000000  0.4420980000000  0.4840480000000 1.0
C      1  0.5594990000000  0.5477940000000  0.4389300000000 1.0
C      1  0.5246440000000  0.5423650000000  0.5780620000000 1.0
C      1  0.4178720000000  0.5418300000000  0.4789980000000 1.0
C      1  0.4440190000000  0.6009790000000  0.5572200000000 1.0
C      1  0.4749670000000  0.6020550000000  0.4211450000000 1.0
C      1  0.5797300000000  0.5952500000000  0.5109710000000 1.0
C      1  0.5304170000000  0.5933420000000  0.4848980000000 1.0
C      1  0.4964020000000  0.5963460000000  0.5297170000000 1.0
C      1  0.4775280000000  0.6015480000000  0.4765260000000 1.0
C      1  0.3778580000000  0.5189340000000  0.4571950000000 1.0
C      1  0.5976100000000  0.5262290000000  0.4092310000000 1.0
C      1  0.5196030000000  0.5215720000000  0.6143150000000 1.0
C      1  0.3892590000000  0.4716830000000  0.5077400000000 1.0
C      1  0.5474850000000  0.4749610000000  0.3957010000000 1.0
C      1  0.5557310000000  0.4693980000000  0.6077980000000 1.0
C      1  0.5164570000000  0.5017860000000  0.5233070000000 1.0
C      1  0.4732400000000  0.4999900000000  0.5038550000000 1.0
C      1  0.5122860000000  0.5033990000000  0.4755950000000 1.0
C      1  0.4838940000000  0.5666360000000  0.5530290000000 1.0
C      1  0.4590330000000  0.5661860000000  0.4580020000000 1.0
C      1  0.5550780000000  0.5711120000000  0.4883230000000 1.0
C      1  0.5635820000000  0.4817100000000  0.5264650000000 1.0
C      1  0.4459320000000  0.4859690000000  0.5417220000000 1.0
C      1  0.4897650000000  0.4862510000000  0.4327040000000 1.0
C      1  0.4345700000000  0.5006050000000  0.4727150000000 1.0
C      1  0.5578020000000  0.5089110000000  0.4457860000000 1.0
C      1  0.5069890000000  0.4920500000000  0.5687580000000 1.0
C      1  0.4432920000000  0.4020930000000  0.4671830000000 1.0
C      1  0.5595990000000  0.4087300000000  0.4660700000000 1.0
C      1  0.4995480000000  0.3991270000000  0.5711420000000 1.0
C      1  0.5570370000000  0.5349470000000  0.5227580000000 1.0
C      1  0.4570580000000  0.5410530000000  0.5380320000000 1.0
C      1  0.4854510000000  0.5404120000000  0.4427630000000 1.0
C      1  0.4008540000000  0.5539690000000  0.5063350000000 1.0
C      1  0.5415790000000  0.5570900000000  0.4115370000000 1.0
C      1  0.5581150000000  0.5507830000000  0.5766370000000 1.0
C      1  0.4433190000000  0.5025510000000  0.5044010000000 1.0
C      1  0.5250020000000  0.5063410000000  0.4491000000000 1.0
C      1  0.5322080000000  0.4960720000000  0.5477060000000 1.0
C      1  0.5514010000000  0.5003250000000  0.6036240000000 1.0
C      1  0.3894440000000  0.5001130000000  0.4982500000000 1.0
C      1  0.5551070000000  0.5037510000000  0.4026970000000 1.0
C      1  0.4911910000000  0.4073510000000  0.5187180000000 1.0
C      1  0.4928010000000  0.4056750000000  0.4850620000000 1.0
C      1  0.5206780000000  0.4086640000000  0.5043420000000 1.0
C      1  0.4604320000000  0.5782760000000  0.5737040000000 1.0
C      1  0.4532780000000  0.5789120000000  0.4280640000000 1.0
C      1  0.5865380000000  0.5689100000000  0.4910120000000 1.0
C      1  0.5185070000000  0.4923700000000  0.6002850000000 1.0
C      1  0.4016230000000  0.4972120000000  0.4681590000000 1.0
C      1  0.5811690000000  0.5003220000000  0.4233570000000 1.0
C      1  0.4630810000000  0.5265450000000  0.4592450000000 1.0
C      1  0.5531210000000  0.5258860000000  0.4908990000000 1.0
C      1  0.4827590000000  0.5271980000000  0.5492240000000 1.0
C      1  0.4314940000000  0.4026750000000  0.4958940000000 1.0
C      1  0.5380480000000  0.4122600000000  0.4474460000000 1.0
C      1  0.5299770000000  0.3981410000000  0.5689050000000 1.0
C      1  0.4700360000000  0.5286920000000  0.4904630000000 1.0
C      1  0.5222880000000  0.5333940000000  0.4819270000000 1.0
C      1  0.5066140000000  0.5315670000000  0.5263590000000 1.0
C      1  0.4353580000000  0.5215830000000  0.5270020000000 1.0
C      1  0.5069820000000  0.5227670000000  0.4304530000000 1.0
C      1  0.5558790000000  0.5147880000000  0.5474130000000 1.0
C      1  0.5152440000000  0.5546860000000  0.5474620000000 1.0
C      1  0.4491770000000  0.5532830000000  0.4869230000000 1.0
C      1  0.5398350000000  0.5554690000000  0.4652790000000 1.0
C      1  0.4761590000000  0.4963000000000  0.5556520000000 1.0
C      1  0.4615030000000  0.4938710000000  0.4513490000000 1.0
C      1  0.5631360000000  0.4933160000000  0.4942110000000 1.0
C      1  0.4926150000000  0.5409090000000  0.5766730000000 1.0
C      1  0.4349450000000  0.5400750000000  0.4525030000000 1.0
C      1  0.5716860000000  0.5314190000000  0.4652810000000 1.0
C      1  0.5782560000000  0.4511040000000  0.5691610000000 1.0
C      1  0.4079470000000  0.4471310000000  0.5457890000000 1.0
C      1  0.5058220000000  0.4488930000000  0.3961100000000 1.0
C      1  0.5968330000000  0.4959760000000  0.4920030000000 1.0
C      1  0.4600950000000  0.4979450000000  0.5847690000000 1.0
C      1  0.4440270000000  0.4987660000000  0.4223480000000 1.0
C      1  0.5789770000000  0.4236320000000  0.5616760000000 1.0
C      1  0.4212180000000  0.4238060000000  0.5447840000000 1.0
C      1  0.4978730000000  0.4267900000000  0.4092660000000 1.0
C      1  0.5643480000000  0.4749160000000  0.4655140000000 1.0
C      1  0.4944090000000  0.4538030000000  0.5786480000000 1.0
C      1  0.4427380000000  0.4652860000000  0.4566490000000 1.0
C      1  0.4050100000000  0.4544850000000  0.4829750000000 1.0
C      1  0.5616630000000  0.4598950000000  0.4226910000000 1.0
C      1  0.5322850000000  0.4549690000000  0.5973490000000 1.0
C      1  0.4290600000000  0.5703410000000  0.5039550000000 1.0
C      1  0.5279020000000  0.5714630000000  0.4377200000000 1.0
C      1  0.5425490000000  0.5688310000000  0.5546450000000 1.0
C      1  0.5423330000000  0.4582210000000  0.4662600000000 1.0
C      1  0.4982260000000  0.4394000000000  0.5507210000000 1.0
C      1  0.4590020000000  0.4444690000000  0.4714290000000 1.0
C      1  0.5866200000000  0.4815370000000  0.4484640000000 1.0
C      1  0.4960510000000  0.4714930000000  0.6010610000000 1.0
C      1  0.4148910000000  0.4747930000000  0.4494770000000 1.0
C      1  0.5806160000000  0.5576330000000  0.5517850000000 1.0
C      1  0.4117660000000  0.5600700000000  0.5382290000000 1.0
C      1  0.5086860000000  0.5614840000000  0.4041050000000 1.0
C      1  0.6028620000000  0.4829810000000  0.5210600000000 1.0
C      1  0.4304700000000  0.4877470000000  0.5782910000000 1.0
C      1  0.4654400000000  0.4868910000000  0.4015460000000 1.0
C      1  0.4848150000000  0.4251280000000  0.4600110000000 1.0
C      1  0.5482690000000  0.4215100000000  0.5197490000000 1.0
C      1  0.4702460000000  0.4269270000000  0.5349160000000 1.0
C      1  0.4872200000000  0.3931390000000  0.5474760000000 1.0
C      1  0.4692060000000  0.3896060000000  0.4683180000000 1.0
C      1  0.5511490000000  0.4034370000000  0.4921900000000 1.0
C      1  0.5942260000000  0.5468730000000  0.4748540000000 1.0
C      1  0.4745010000000  0.5590330000000  0.5911210000000 1.0
C      1  0.4313410000000  0.5590310000000  0.4301490000000 1.0
C      1  0.4441790000000  0.4322280000000  0.4934520000000 1.0
C      1  0.5309910000000  0.4426400000000  0.4471680000000 1.0
C      1  0.5227340000000  0.4238970000000  0.5500750000000 1.0
C      1  0.4196580000000  0.5052260000000  0.5522570000000 1.0
C      1  0.4940880000000  0.5051830000000  0.4043800000000 1.0
C      1  0.5860070000000  0.5001820000000  0.5446670000000 1.0
C      1  0.5460600000000  0.5341620000000  0.6029650000000 1.0
C      1  0.3879900000000  0.5309860000000  0.4846070000000 1.0
C      1  0.5673010000000  0.5349470000000  0.4092310000000 1.0
C      1  0.4325210000000  0.4236880000000  0.4498630000000 1.0
C      1  0.5802800000000  0.4291610000000  0.4619360000000 1.0
C      1  0.4894010000000  0.4218700000000  0.5890600000000 1.0
C      1  0.4113690000000  0.4375560000000  0.4635360000000 1.0
C      1  0.5765760000000  0.4440210000000  0.4378200000000 1.0
C      1  0.5162490000000  0.4345010000000  0.6056850000000 1.0
C      1  0.5037750000000  0.4512590000000  0.4991080000000 1.0
C      1  0.4956490000000  0.5470670000000  0.4981390000000 1.0
END
