TITL C-2782230-7391-820 0.00163224804150047 125000 -533.821916088394 0 0 93 (C1) n - 1
REM
REM in /home/nfs/bkarasulu/CARBON/AIRSS/Generating-Clusters/REBO/Higher-Symm/SD-CG/HFTN-CG
REM
REM
REM
REM
REM
REM ./C.cell (12c818d87b63d06a65506943cc24bca4)
REM
REM compiler GCC version 9.2.1 20190827 (Red Hat 9.2.1-1)
REM options -cpp -mtune=generic -march=x86-64 -g -O0 -fpre-include=/usr/include/finclude/math-vector-fortran.h
REM seed 1307530830 -942768864 -982448074 -565005295 -717395815 -487938264 390694554 -81487087 -1486962161 170164063 837460571 -1439615812 876549074 -301507033 -1053748984 -522893185 -1028932205 2089325091 643620367 -15202255 804545038 487835189 836100561 1396120809 1894094804 -1708641645 -281083017 94866683 250147527 -954484730 -1694970976 -1934950014 1430672255
REM
CELL 1.54180   50.00000   50.00000   50.00000   90.00000   90.00000   90.00000
LATT -1
SFAC C  
C      1  0.4225170000000  0.5155890000000  0.5044880000000 1.0
C      1  0.4214310000000  0.4862210000000  0.4962430000000 1.0
C      1  0.5744350000000  0.5136240000000  0.5051880000000 1.0
C      1  0.5712820000000  0.4853690000000  0.4965970000000 1.0
C      1  0.4623110000000  0.4378050000000  0.4704360000000 1.0
C      1  0.4646960000000  0.5636290000000  0.5282250000000 1.0
C      1  0.5463630000000  0.4400940000000  0.4735860000000 1.0
C      1  0.5405760000000  0.5655870000000  0.5295270000000 1.0
C      1  0.5477270000000  0.4587780000000  0.4229230000000 1.0
C      1  0.5480660000000  0.5434110000000  0.5720610000000 1.0
C      1  0.4525600000000  0.4700800000000  0.4259420000000 1.0
C      1  0.4682810000000  0.5254400000000  0.5750170000000 1.0
C      1  0.4612240000000  0.4521740000000  0.5652510000000 1.0
C      1  0.4659070000000  0.5462950000000  0.4356080000000 1.0
C      1  0.5311560000000  0.4595080000000  0.5589060000000 1.0
C      1  0.5312570000000  0.5451750000000  0.4368850000000 1.0
C      1  0.4636640000000  0.5151860000000  0.4683360000000 1.0
C      1  0.4615310000000  0.4824660000000  0.5322320000000 1.0
C      1  0.5336320000000  0.5196400000000  0.4750480000000 1.0
C      1  0.5528160000000  0.4919830000000  0.5319390000000 1.0
C      1  0.4739120000000  0.4797000000000  0.5038410000000 1.0
C      1  0.4757780000000  0.5192960000000  0.4972120000000 1.0
C      1  0.5163860000000  0.4710960000000  0.5072430000000 1.0
C      1  0.5246720000000  0.5155050000000  0.5004830000000 1.0
C      1  0.4804970000000  0.4499870000000  0.4948970000000 1.0
C      1  0.4823810000000  0.5504940000000  0.5042630000000 1.0
C      1  0.5107930000000  0.4411140000000  0.4916480000000 1.0
C      1  0.5120470000000  0.5635590000000  0.5108860000000 1.0
C      1  0.5701510000000  0.5096350000000  0.4499950000000 1.0
C      1  0.5778700000000  0.4867820000000  0.5553220000000 1.0
C      1  0.4351160000000  0.5062660000000  0.4517040000000 1.0
C      1  0.4338650000000  0.4918540000000  0.5497450000000 1.0
C      1  0.4607270000000  0.5820470000000  0.4928020000000 1.0
C      1  0.4584950000000  0.4206990000000  0.5108960000000 1.0
C      1  0.5502390000000  0.5815300000000  0.4863480000000 1.0
C      1  0.5466600000000  0.4166830000000  0.5183060000000 1.0
C      1  0.4820000000000  0.4933310000000  0.4188260000000 1.0
C      1  0.4837570000000  0.4994300000000  0.5762820000000 1.0
C      1  0.5136170000000  0.4877630000000  0.4288010000000 1.0
C      1  0.5153920000000  0.5068040000000  0.5712990000000 1.0
C      1  0.5590120000000  0.5426950000000  0.5454270000000 1.0
C      1  0.5475150000000  0.4668270000000  0.4547360000000 1.0
C      1  0.4511160000000  0.5278240000000  0.5484860000000 1.0
C      1  0.4635170000000  0.4687780000000  0.4567200000000 1.0
C      1  0.4880160000000  0.5719940000000  0.4797210000000 1.0
C      1  0.4856680000000  0.4294860000000  0.5204840000000 1.0
C      1  0.5202030000000  0.5776560000000  0.4809500000000 1.0
C      1  0.5190190000000  0.4229050000000  0.5191210000000 1.0
C      1  0.4416580000000  0.4417110000000  0.4975800000000 1.0
C      1  0.4426490000000  0.5577870000000  0.5028470000000 1.0
C      1  0.5607490000000  0.4375580000000  0.5042960000000 1.0
C      1  0.5587380000000  0.5582360000000  0.5021160000000 1.0
C      1  0.5463080000000  0.5287940000000  0.5165030000000 1.0
C      1  0.5441130000000  0.4662420000000  0.4944390000000 1.0
C      1  0.4513960000000  0.5281600000000  0.5158160000000 1.0
C      1  0.4493190000000  0.4726170000000  0.4843540000000 1.0
C      1  0.4935690000000  0.4759740000000  0.4613120000000 1.0
C      1  0.4836470000000  0.5298040000000  0.5385900000000 1.0
C      1  0.5174270000000  0.4738170000000  0.4660730000000 1.0
C      1  0.5059060000000  0.5209430000000  0.5352610000000 1.0
C      1  0.5172620000000  0.5378340000000  0.5712450000000 1.0
C      1  0.5176810000000  0.4541920000000  0.4313360000000 1.0
C      1  0.4867010000000  0.5482170000000  0.5739580000000 1.0
C      1  0.4851520000000  0.4600540000000  0.4243040000000 1.0
C      1  0.4806310000000  0.5675300000000  0.5512910000000 1.0
C      1  0.4860140000000  0.4369770000000  0.4477870000000 1.0
C      1  0.5118560000000  0.5594130000000  0.5451460000000 1.0
C      1  0.5168030000000  0.4345560000000  0.4592390000000 1.0
C      1  0.5133820000000  0.5212990000000  0.4207900000000 1.0
C      1  0.5143040000000  0.4737960000000  0.5775160000000 1.0
C      1  0.4802100000000  0.5268290000000  0.4156820000000 1.0
C      1  0.4831330000000  0.4667040000000  0.5810240000000 1.0
C      1  0.5176110000000  0.5114700000000  0.4531450000000 1.0
C      1  0.5244460000000  0.4944300000000  0.5406010000000 1.0
C      1  0.4848710000000  0.5123530000000  0.4471450000000 1.0
C      1  0.4920260000000  0.4851540000000  0.5464990000000 1.0
C      1  0.5564580000000  0.5365890000000  0.4472160000000 1.0
C      1  0.5591570000000  0.4604040000000  0.5552710000000 1.0
C      1  0.4404680000000  0.5382170000000  0.4459000000000 1.0
C      1  0.4365210000000  0.4604950000000  0.5539690000000 1.0
C      1  0.5627990000000  0.5341520000000  0.4806150000000 1.0
C      1  0.5707390000000  0.4638850000000  0.5233880000000 1.0
C      1  0.4366720000000  0.5343790000000  0.4795810000000 1.0
C      1  0.4338860000000  0.4653670000000  0.5201920000000 1.0
C      1  0.5676240000000  0.4866470000000  0.4644840000000 1.0
C      1  0.5763650000000  0.5161260000000  0.5387610000000 1.0
C      1  0.4188370000000  0.4882090000000  0.4638330000000 1.0
C      1  0.4209640000000  0.5162850000000  0.5379220000000 1.0
C      1  0.5147000000000  0.5628180000000  0.4516850000000 1.0
C      1  0.5147640000000  0.4528940000000  0.5341760000000 1.0
C      1  0.4841920000000  0.5609360000000  0.4499100000000 1.0
C      1  0.4843800000000  0.4519760000000  0.5440080000000 1.0
C      1  0.4996910000000  0.4985790000000  0.5027650000000 1.0
END
