TITL C-2782232-2968-419 -0.000241942790664902 125000 -519.230798936007 0 0 88 (T23) n - 1
REM
REM in /home/nfs/bkarasulu/CARBON/AIRSS/Generating-Clusters/REBO/Higher-Symm/SD-CG/HFTN-CG
REM
REM
REM
REM
REM
REM ./C.cell (12c818d87b63d06a65506943cc24bca4)
REM
REM compiler GCC version 9.2.1 20190827 (Red Hat 9.2.1-1)
REM options -cpp -mtune=generic -march=x86-64 -g -O0 -fpre-include=/usr/include/finclude/math-vector-fortran.h
REM seed 929296920 1016451465 1194806717 -1188598567 373199710 -1868544930 917610544 -635314069 -57156014 1976528451 -351879384 -1826402995 396190041 1842663087 2097570527 532165606 -1888822773 -1810330897 135072987 -1739060832 -702792990 861578726 -423529303 1735082388 -1861419250 589476192 -199255988 948246385 -295863091 474801482 1770148958 -1876546391 1050965433
REM
CELL 1.54180   50.00000   50.00000   50.00000   90.00000   90.00000   90.00000
LATT -1
SFAC C  
C      1  0.4494950000000  0.5235280000000  0.5437710000000 1.0
C      1  0.5441780000000  0.4487590000000  0.5241570000000 1.0
C      1  0.5247480000000  0.5436270000000  0.4495750000000 1.0
C      1  0.5508730000000  0.4755730000000  0.5443360000000 1.0
C      1  0.5515260000000  0.5234710000000  0.4564810000000 1.0
C      1  0.4499590000000  0.4759200000000  0.4557580000000 1.0
C      1  0.4564450000000  0.5504080000000  0.5237670000000 1.0
C      1  0.4565470000000  0.4490130000000  0.4758470000000 1.0
C      1  0.5446820000000  0.5503120000000  0.4765730000000 1.0
C      1  0.4768220000000  0.4557860000000  0.4491260000000 1.0
C      1  0.4763520000000  0.5435550000000  0.5507440000000 1.0
C      1  0.5239300000000  0.4555240000000  0.5509010000000 1.0
C      1  0.4985570000000  0.4389550000000  0.5459470000000 1.0
C      1  0.5468160000000  0.4981370000000  0.4397820000000 1.0
C      1  0.4399700000000  0.5457180000000  0.4982830000000 1.0
C      1  0.5017860000000  0.5601390000000  0.5461670000000 1.0
C      1  0.5021300000000  0.4391010000000  0.4540240000000 1.0
C      1  0.4993810000000  0.5602970000000  0.4542070000000 1.0
C      1  0.4548800000000  0.5013090000000  0.4392030000000 1.0
C      1  0.4541050000000  0.4981200000000  0.5603860000000 1.0
C      1  0.5460520000000  0.5009260000000  0.5609740000000 1.0
C      1  0.5609750000000  0.4535330000000  0.4989000000000 1.0
C      1  0.5611380000000  0.5454720000000  0.5020420000000 1.0
C      1  0.4397690000000  0.4537700000000  0.5011200000000 1.0
C      1  0.5509430000000  0.4523620000000  0.4738030000000 1.0
C      1  0.4743380000000  0.5501590000000  0.4527990000000 1.0
C      1  0.4528880000000  0.4731080000000  0.5501470000000 1.0
C      1  0.4503200000000  0.5469710000000  0.4733190000000 1.0
C      1  0.4497970000000  0.4524760000000  0.5262130000000 1.0
C      1  0.5507930000000  0.5466830000000  0.5270100000000 1.0
C      1  0.5271880000000  0.4492420000000  0.4529680000000 1.0
C      1  0.5267890000000  0.5498980000000  0.5475410000000 1.0
C      1  0.4735380000000  0.4491920000000  0.5470370000000 1.0
C      1  0.5473990000000  0.5259720000000  0.5508350000000 1.0
C      1  0.5479340000000  0.4730860000000  0.4499370000000 1.0
C      1  0.4536330000000  0.5263260000000  0.4494260000000 1.0
C      1  0.5159190000000  0.4076260000000  0.4932620000000 1.0
C      1  0.4943070000000  0.5153830000000  0.4080930000000 1.0
C      1  0.4083750000000  0.4930100000000  0.5150860000000 1.0
C      1  0.4850930000000  0.5916430000000  0.4933690000000 1.0
C      1  0.4846430000000  0.4076650000000  0.5066050000000 1.0
C      1  0.5161980000000  0.5915580000000  0.5071090000000 1.0
C      1  0.5077870000000  0.4841660000000  0.4081280000000 1.0
C      1  0.5066810000000  0.5150540000000  0.5921310000000 1.0
C      1  0.4930780000000  0.4838890000000  0.5919930000000 1.0
C      1  0.5923530000000  0.5061850000000  0.5162760000000 1.0
C      1  0.5925250000000  0.4926950000000  0.4850640000000 1.0
C      1  0.4086000000000  0.5066030000000  0.4839190000000 1.0
C      1  0.4809720000000  0.4664490000000  0.4174890000000 1.0
C      1  0.4182200000000  0.4798940000000  0.4661810000000 1.0
C      1  0.4670780000000  0.4173050000000  0.4797900000000 1.0
C      1  0.5210010000000  0.5330690000000  0.4178530000000 1.0
C      1  0.5198220000000  0.4660980000000  0.5825730000000 1.0
C      1  0.4800580000000  0.5328770000000  0.5824310000000 1.0
C      1  0.5831300000000  0.5194620000000  0.4672930000000 1.0
C      1  0.5826270000000  0.4794560000000  0.5339250000000 1.0
C      1  0.4178750000000  0.5196810000000  0.5329450000000 1.0
C      1  0.5341020000000  0.5820070000000  0.4804870000000 1.0
C      1  0.5335220000000  0.4171070000000  0.5201090000000 1.0
C      1  0.4671510000000  0.5820740000000  0.5199590000000 1.0
C      1  0.5825730000000  0.4701910000000  0.5032250000000 1.0
C      1  0.5034770000000  0.5818520000000  0.4709770000000 1.0
C      1  0.4706840000000  0.5022120000000  0.5820900000000 1.0
C      1  0.4183190000000  0.5290460000000  0.5022790000000 1.0
C      1  0.4182370000000  0.4705270000000  0.4968500000000 1.0
C      1  0.5827230000000  0.5287270000000  0.4979910000000 1.0
C      1  0.4978210000000  0.4174900000000  0.4706700000000 1.0
C      1  0.4977750000000  0.5817670000000  0.5294690000000 1.0
C      1  0.5027800000000  0.4173830000000  0.5292300000000 1.0
C      1  0.5291990000000  0.4967640000000  0.5824530000000 1.0
C      1  0.5302530000000  0.5023660000000  0.4180910000000 1.0
C      1  0.4717170000000  0.4971510000000  0.4177110000000 1.0
C      1  0.4555010000000  0.5541840000000  0.5830670000000 1.0
C      1  0.5832010000000  0.4548250000000  0.5551480000000 1.0
C      1  0.5555190000000  0.5827620000000  0.4560290000000 1.0
C      1  0.5443690000000  0.4447880000000  0.5834510000000 1.0
C      1  0.5456420000000  0.5542800000000  0.4172870000000 1.0
C      1  0.4563410000000  0.4452400000000  0.4165400000000 1.0
C      1  0.4170320000000  0.5442420000000  0.5542400000000 1.0
C      1  0.4175490000000  0.4553360000000  0.4448760000000 1.0
C      1  0.5840710000000  0.5440900000000  0.4460800000000 1.0
C      1  0.4459730000000  0.4166310000000  0.4550590000000 1.0
C      1  0.4457370000000  0.5828320000000  0.5444200000000 1.0
C      1  0.5546240000000  0.4162670000000  0.5448370000000 1.0
C      1  0.4372530000000  0.5625810000000  0.5627270000000 1.0
C      1  0.5628750000000  0.4364570000000  0.5633170000000 1.0
C      1  0.5639230000000  0.5625380000000  0.4376550000000 1.0
C      1  0.4378030000000  0.4369150000000  0.4366470000000 1.0
END
