TITL C-2782230-7391-798 -0.000627174039281673 125000 -499.885763937018 0 0 86 (C2) n - 1
REM
REM in /home/nfs/bkarasulu/CARBON/AIRSS/Generating-Clusters/REBO/Higher-Symm/SD-CG/HFTN-CG
REM
REM
REM
REM
REM
REM ./C.cell (12c818d87b63d06a65506943cc24bca4)
REM
REM compiler GCC version 9.2.1 20190827 (Red Hat 9.2.1-1)
REM options -cpp -mtune=generic -march=x86-64 -g -O0 -fpre-include=/usr/include/finclude/math-vector-fortran.h
REM seed -18440227 1377793997 -121028247 -2127349267 -1716122411 -921614975 -783324041 403356042 1000361609 -568070538 -604906014 -121972016 -2024381581 -2015366592 440769757 -1559259324 1867863067 1895290161 737569166 -542518661 -503085716 -1861132016 346651085 1170456179 138017831 -1434205983 -1626070357 -2065167069 1462463398 -326288646 1685386017 256409143 1295790636
REM
CELL 1.54180   50.00000   50.00000   50.00000   90.00000   90.00000   90.00000
LATT -1
SFAC C  
C      1  0.4746720000000  0.4264910000000  0.5124620000000 1.0
C      1  0.5252200000000  0.5734240000000  0.5137470000000 1.0
C      1  0.4768150000000  0.4287300000000  0.4846540000000 1.0
C      1  0.5230500000000  0.5711020000000  0.4859600000000 1.0
C      1  0.4768210000000  0.5712730000000  0.5174320000000 1.0
C      1  0.5230410000000  0.4288950000000  0.5161310000000 1.0
C      1  0.4746810000000  0.5735120000000  0.4896240000000 1.0
C      1  0.5252130000000  0.4265730000000  0.4883430000000 1.0
C      1  0.4246240000000  0.5186260000000  0.4834860000000 1.0
C      1  0.5754810000000  0.4812660000000  0.4834460000000 1.0
C      1  0.4253900000000  0.5139470000000  0.5153770000000 1.0
C      1  0.5746500000000  0.4860690000000  0.5153770000000 1.0
C      1  0.4253900000000  0.4860610000000  0.4867050000000 1.0
C      1  0.5746530000000  0.5139230000000  0.4867180000000 1.0
C      1  0.4246210000000  0.4813820000000  0.5185960000000 1.0
C      1  0.5754820000000  0.5187260000000  0.5186490000000 1.0
C      1  0.5182190000000  0.4757060000000  0.5415730000000 1.0
C      1  0.4815900000000  0.5268850000000  0.5423920000000 1.0
C      1  0.5138200000000  0.4702470000000  0.4606770000000 1.0
C      1  0.4861360000000  0.5269010000000  0.4616890000000 1.0
C      1  0.5138190000000  0.5297510000000  0.5414120000000 1.0
C      1  0.4861290000000  0.4731010000000  0.5403980000000 1.0
C      1  0.5182250000000  0.5242920000000  0.4605170000000 1.0
C      1  0.4815910000000  0.4731170000000  0.4596950000000 1.0
C      1  0.5405190000000  0.4888760000000  0.5614590000000 1.0
C      1  0.4593350000000  0.5122960000000  0.5618380000000 1.0
C      1  0.5387080000000  0.4808860000000  0.4407350000000 1.0
C      1  0.4614540000000  0.5179330000000  0.4412110000000 1.0
C      1  0.5387050000000  0.5191100000000  0.5613570000000 1.0
C      1  0.4614470000000  0.4820720000000  0.5608740000000 1.0
C      1  0.5405250000000  0.5111200000000  0.4406330000000 1.0
C      1  0.4593390000000  0.4877080000000  0.4402470000000 1.0
C      1  0.5516560000000  0.5714380000000  0.5233860000000 1.0
C      1  0.4483330000000  0.4287450000000  0.5223160000000 1.0
C      1  0.5472740000000  0.5638960000000  0.4735650000000 1.0
C      1  0.4524450000000  0.4359090000000  0.4725040000000 1.0
C      1  0.5472650000000  0.4360990000000  0.5285270000000 1.0
C      1  0.4524500000000  0.5640970000000  0.5295810000000 1.0
C      1  0.5516500000000  0.4285560000000  0.4787070000000 1.0
C      1  0.4483420000000  0.5712600000000  0.4797680000000 1.0
C      1  0.5244810000000  0.5178610000000  0.5159380000000 1.0
C      1  0.4757830000000  0.4858940000000  0.5151510000000 1.0
C      1  0.5259970000000  0.5131400000000  0.4863290000000 1.0
C      1  0.4742900000000  0.4837140000000  0.4857580000000 1.0
C      1  0.5259940000000  0.4868570000000  0.5157610000000 1.0
C      1  0.4742900000000  0.5162880000000  0.5163280000000 1.0
C      1  0.5244810000000  0.4821360000000  0.4861530000000 1.0
C      1  0.4757850000000  0.5141090000000  0.4869360000000 1.0
C      1  0.5146780000000  0.5295340000000  0.5812740000000 1.0
C      1  0.4854370000000  0.4711520000000  0.5802460000000 1.0
C      1  0.5193620000000  0.5261860000000  0.4208410000000 1.0
C      1  0.4807470000000  0.4734820000000  0.4199790000000 1.0
C      1  0.5193530000000  0.4738110000000  0.5812490000000 1.0
C      1  0.4807430000000  0.5265200000000  0.5821080000000 1.0
C      1  0.5146820000000  0.4704640000000  0.4208150000000 1.0
C      1  0.4854470000000  0.5288500000000  0.4218410000000 1.0
C      1  0.5645060000000  0.5284720000000  0.5493550000000 1.0
C      1  0.4359090000000  0.4718540000000  0.5492390000000 1.0
C      1  0.5665660000000  0.5190430000000  0.4538750000000 1.0
C      1  0.4331930000000  0.4805070000000  0.4538500000000 1.0
C      1  0.5665600000000  0.4809500000000  0.5482190000000 1.0
C      1  0.4331910000000  0.5195000000000  0.5482330000000 1.0
C      1  0.5645070000000  0.4715210000000  0.4527390000000 1.0
C      1  0.4359160000000  0.5281530000000  0.4528440000000 1.0
C      1  0.4780450000000  0.5545470000000  0.4432750000000 1.0
C      1  0.5218010000000  0.4436000000000  0.4408940000000 1.0
C      1  0.4887130000000  0.5529150000000  0.5620240000000 1.0
C      1  0.5111630000000  0.4486990000000  0.5596210000000 1.0
C      1  0.4887130000000  0.4470870000000  0.4400640000000 1.0
C      1  0.5111730000000  0.5513000000000  0.4424680000000 1.0
C      1  0.4780340000000  0.4454550000000  0.5588120000000 1.0
C      1  0.5218020000000  0.5563970000000  0.5611960000000 1.0
C      1  0.5694000000000  0.4491780000000  0.4743490000000 1.0
C      1  0.4309540000000  0.5506040000000  0.4744070000000 1.0
C      1  0.5660040000000  0.4561520000000  0.5292300000000 1.0
C      1  0.4335680000000  0.5440900000000  0.5290930000000 1.0
C      1  0.5660110000000  0.5438410000000  0.4728640000000 1.0
C      1  0.4335650000000  0.4559170000000  0.4729900000000 1.0
C      1  0.5694030000000  0.5508140000000  0.5277450000000 1.0
C      1  0.4309460000000  0.4494030000000  0.5276750000000 1.0
C      1  0.4969350000000  0.5675900000000  0.4690820000000 1.0
C      1  0.4969250000000  0.4324110000000  0.5330060000000 1.0
C      1  0.5029480000000  0.4320840000000  0.4675280000000 1.0
C      1  0.5029520000000  0.5679150000000  0.5345610000000 1.0
C      1  0.5001290000000  0.5001280000000  0.5905590000000 1.0
C      1  0.5001370000000  0.4998720000000  0.4115290000000 1.0
END
