TITL C-2782236-320-636 0.000571304409866471 125000 -827.908947011707 0 0 141 (C1) n - 1
REM
REM in /home/nfs/bkarasulu/CARBON/AIRSS/Generating-Clusters/REBO/Higher-Symm/SD-CG/HFTN-CG
REM
REM
REM
REM
REM
REM ./C.cell (12c818d87b63d06a65506943cc24bca4)
REM
REM compiler GCC version 9.2.1 20190827 (Red Hat 9.2.1-1)
REM options -cpp -mtune=generic -march=x86-64 -g -O0 -fpre-include=/usr/include/finclude/math-vector-fortran.h
REM seed -191020666 1237746024 734931731 1257711201 -1267387845 -2134387438 642201138 -1956021130 -1747327181 -435525693 1519296317 -383815852 -1095757995 1969319649 1429733047 -674569278 118407179 1820104223 -1599844814 1624297468 -1916078632 2095846943 1039588740 -133034809 -941537864 562406638 46809874 -263127338 -1713512895 -967479095 348724225 -1360724495 -869519238
REM
CELL 1.54180   50.00000   50.00000   50.00000   90.00000   90.00000   90.00000
LATT -1
SFAC C  
C      1  0.4524090000000  0.5828150000000  0.5167300000000 1.0
C      1  0.4482920000000  0.5468480000000  0.5580960000000 1.0
C      1  0.5597640000000  0.4139710000000  0.4698380000000 1.0
C      1  0.5838670000000  0.4854750000000  0.4392030000000 1.0
C      1  0.5415080000000  0.4572120000000  0.4543930000000 1.0
C      1  0.5747700000000  0.5487400000000  0.5551640000000 1.0
C      1  0.4803590000000  0.4147910000000  0.4508600000000 1.0
C      1  0.4445630000000  0.5259620000000  0.4725080000000 1.0
C      1  0.4506660000000  0.5736200000000  0.4620030000000 1.0
C      1  0.5728460000000  0.4716130000000  0.5599470000000 1.0
C      1  0.5284240000000  0.5562940000000  0.4892950000000 1.0
C      1  0.4627550000000  0.4558100000000  0.4465650000000 1.0
C      1  0.5714790000000  0.5735300000000  0.4808140000000 1.0
C      1  0.4755330000000  0.4640590000000  0.5867720000000 1.0
C      1  0.5823080000000  0.5529070000000  0.5281210000000 1.0
C      1  0.5350880000000  0.5646190000000  0.4375690000000 1.0
C      1  0.5581390000000  0.4211150000000  0.5000230000000 1.0
C      1  0.4120500000000  0.4834770000000  0.5213960000000 1.0
C      1  0.5886310000000  0.4771900000000  0.5046700000000 1.0
C      1  0.4899110000000  0.5319130000000  0.4332790000000 1.0
C      1  0.5894350000000  0.5318840000000  0.5090960000000 1.0
C      1  0.4943750000000  0.4846020000000  0.5836130000000 1.0
C      1  0.5263380000000  0.4245710000000  0.4881440000000 1.0
C      1  0.4974440000000  0.5948830000000  0.4547380000000 1.0
C      1  0.5682830000000  0.5756200000000  0.5140350000000 1.0
C      1  0.5562710000000  0.4466450000000  0.5620410000000 1.0
C      1  0.5074610000000  0.5066400000000  0.4429320000000 1.0
C      1  0.5311930000000  0.4725750000000  0.5932800000000 1.0
C      1  0.4703920000000  0.5936160000000  0.5377080000000 1.0
C      1  0.4302080000000  0.5417490000000  0.4991570000000 1.0
C      1  0.4725910000000  0.5968570000000  0.4555930000000 1.0
C      1  0.4369820000000  0.4247090000000  0.4820140000000 1.0
C      1  0.4477200000000  0.5480250000000  0.4396140000000 1.0
C      1  0.4480430000000  0.4741280000000  0.5818090000000 1.0
C      1  0.4080670000000  0.4979980000000  0.4604700000000 1.0
C      1  0.4927360000000  0.5966520000000  0.4942700000000 1.0
C      1  0.5539850000000  0.4860530000000  0.4521490000000 1.0
C      1  0.5385090000000  0.5245350000000  0.6090340000000 1.0
C      1  0.5230160000000  0.5531010000000  0.5744300000000 1.0
C      1  0.5662770000000  0.4378940000000  0.4558630000000 1.0
C      1  0.4475540000000  0.4155150000000  0.5324120000000 1.0
C      1  0.5204250000000  0.5111580000000  0.5552680000000 1.0
C      1  0.5186210000000  0.4086660000000  0.5558020000000 1.0
C      1  0.5255220000000  0.5410570000000  0.4176710000000 1.0
C      1  0.4910330000000  0.5554360000000  0.4539370000000 1.0
C      1  0.5653500000000  0.4927600000000  0.3948340000000 1.0
C      1  0.4856840000000  0.4634980000000  0.4674800000000 1.0
C      1  0.4892320000000  0.5225490000000  0.5135450000000 1.0
C      1  0.4976280000000  0.4343330000000  0.4725440000000 1.0
C      1  0.4532690000000  0.5183630000000  0.4237990000000 1.0
C      1  0.4866990000000  0.4099560000000  0.5022940000000 1.0
C      1  0.5402970000000  0.4092140000000  0.5382850000000 1.0
C      1  0.5492010000000  0.5348430000000  0.4414150000000 1.0
C      1  0.4068720000000  0.5312960000000  0.5393230000000 1.0
C      1  0.4613820000000  0.4299280000000  0.5574760000000 1.0
C      1  0.5104660000000  0.4818830000000  0.5604110000000 1.0
C      1  0.5755770000000  0.5216650000000  0.5641590000000 1.0
C      1  0.5583560000000  0.4925870000000  0.4838490000000 1.0
C      1  0.4243210000000  0.4551220000000  0.5134670000000 1.0
C      1  0.5245810000000  0.4138310000000  0.4327750000000 1.0
C      1  0.5092210000000  0.5058380000000  0.4934070000000 1.0
C      1  0.4761030000000  0.4534110000000  0.4191400000000 1.0
C      1  0.5393710000000  0.4998570000000  0.4031170000000 1.0
C      1  0.4983600000000  0.4646640000000  0.4985220000000 1.0
C      1  0.5279780000000  0.4567320000000  0.4852920000000 1.0
C      1  0.4391150000000  0.4946370000000  0.4712850000000 1.0
C      1  0.5857810000000  0.4876260000000  0.4126150000000 1.0
C      1  0.5169480000000  0.4693380000000  0.4101550000000 1.0
C      1  0.5390770000000  0.5162530000000  0.5304950000000 1.0
C      1  0.5347610000000  0.5053710000000  0.5004410000000 1.0
C      1  0.4878710000000  0.5170660000000  0.5915290000000 1.0
C      1  0.5880420000000  0.4804380000000  0.4723500000000 1.0
C      1  0.4108630000000  0.4462910000000  0.4864890000000 1.0
C      1  0.4671760000000  0.5485130000000  0.5349520000000 1.0
C      1  0.4348750000000  0.5021170000000  0.5676140000000 1.0
C      1  0.4605480000000  0.4840180000000  0.4905990000000 1.0
C      1  0.4649210000000  0.5022780000000  0.5177690000000 1.0
C      1  0.4973830000000  0.5566350000000  0.5440440000000 1.0
C      1  0.5544810000000  0.5999270000000  0.4940830000000 1.0
C      1  0.4262210000000  0.5298340000000  0.5585980000000 1.0
C      1  0.4768390000000  0.4710180000000  0.5241460000000 1.0
C      1  0.4610860000000  0.5401960000000  0.5059870000000 1.0
C      1  0.4584840000000  0.4208180000000  0.5043900000000 1.0
C      1  0.5728500000000  0.4481330000000  0.5136040000000 1.0
C      1  0.4267330000000  0.5724100000000  0.5083590000000 1.0
C      1  0.4940090000000  0.6057860000000  0.5246420000000 1.0
C      1  0.4072070000000  0.5127140000000  0.5129840000000 1.0
C      1  0.5037110000000  0.4206850000000  0.5208170000000 1.0
C      1  0.5342260000000  0.5020690000000  0.5850070000000 1.0
C      1  0.5501750000000  0.4747600000000  0.5342900000000 1.0
C      1  0.4731560000000  0.5139020000000  0.4783880000000 1.0
C      1  0.5668160000000  0.5038470000000  0.5405060000000 1.0
C      1  0.5229660000000  0.6018800000000  0.5067730000000 1.0
C      1  0.4955680000000  0.4293660000000  0.4268850000000 1.0
C      1  0.5355880000000  0.5737780000000  0.5164130000000 1.0
C      1  0.5587070000000  0.4308280000000  0.5385850000000 1.0
C      1  0.5369880000000  0.5059930000000  0.4356530000000 1.0
C      1  0.4773640000000  0.5476880000000  0.4788000000000 1.0
C      1  0.4831990000000  0.5059700000000  0.4119840000000 1.0
C      1  0.3974410000000  0.4695450000000  0.4712880000000 1.0
C      1  0.4765420000000  0.5764260000000  0.5614320000000 1.0
C      1  0.5262250000000  0.5659210000000  0.5427220000000 1.0
C      1  0.5143640000000  0.5182050000000  0.4050230000000 1.0
C      1  0.5537310000000  0.5473200000000  0.4692660000000 1.0
C      1  0.5868770000000  0.5038910000000  0.5173810000000 1.0
C      1  0.4061780000000  0.5239240000000  0.4818770000000 1.0
C      1  0.4693570000000  0.5777630000000  0.4905100000000 1.0
C      1  0.5146590000000  0.5358260000000  0.5940460000000 1.0
C      1  0.4283340000000  0.4753410000000  0.5476260000000 1.0
C      1  0.5228030000000  0.4643070000000  0.5429000000000 1.0
C      1  0.4819680000000  0.4389040000000  0.5738560000000 1.0
C      1  0.4984770000000  0.3996450000000  0.4743790000000 1.0
C      1  0.4219390000000  0.5745910000000  0.4780150000000 1.0
C      1  0.5100330000000  0.4310910000000  0.5716300000000 1.0
C      1  0.5296890000000  0.4032590000000  0.4613620000000 1.0
C      1  0.5094800000000  0.4480520000000  0.5240490000000 1.0
C      1  0.4957140000000  0.4940360000000  0.4674220000000 1.0
C      1  0.4763180000000  0.5454910000000  0.5759690000000 1.0
C      1  0.4328000000000  0.4429070000000  0.5441330000000 1.0
C      1  0.5323790000000  0.4485880000000  0.5784040000000 1.0
C      1  0.4210730000000  0.5468510000000  0.4609090000000 1.0
C      1  0.4731970000000  0.5676570000000  0.4284480000000 1.0
C      1  0.4947310000000  0.5263140000000  0.5535930000000 1.0
C      1  0.4290740000000  0.5014330000000  0.4334900000000 1.0
C      1  0.4556760000000  0.4541590000000  0.5035390000000 1.0
C      1  0.4683020000000  0.5081090000000  0.5648250000000 1.0
C      1  0.4391540000000  0.5125770000000  0.5249490000000 1.0
C      1  0.5246600000000  0.4471260000000  0.4312590000000 1.0
C      1  0.4620790000000  0.4790340000000  0.5501590000000 1.0
C      1  0.4899440000000  0.4760290000000  0.4093530000000 1.0
C      1  0.5514860000000  0.5624590000000  0.5637290000000 1.0
C      1  0.4363880000000  0.4730390000000  0.4474510000000 1.0
C      1  0.5835820000000  0.5416560000000  0.4829830000000 1.0
C      1  0.5498320000000  0.4686170000000  0.5030030000000 1.0
C      1  0.5632740000000  0.5164730000000  0.5887590000000 1.0
C      1  0.5898590000000  0.4513040000000  0.4586110000000 1.0
C      1  0.4256460000000  0.4453270000000  0.4566170000000 1.0
C      1  0.4515760000000  0.4243680000000  0.4527330000000 1.0
C      1  0.5174790000000  0.5704080000000  0.4611830000000 1.0
C      1  0.5178880000000  0.5381170000000  0.5152010000000 1.0
C      1  0.4702580000000  0.5428660000000  0.4072240000000 1.0
END
