TITL C-2782234-8014-826 0.00287925851530064 125000 -892.139291371024 0 0 152 (C2) n - 1
REM
REM in /home/nfs/bkarasulu/CARBON/AIRSS/Generating-Clusters/REBO/Higher-Symm/SD-CG/HFTN-CG
REM
REM
REM
REM
REM
REM ./C.cell (12c818d87b63d06a65506943cc24bca4)
REM
REM compiler GCC version 9.2.1 20190827 (Red Hat 9.2.1-1)
REM options -cpp -mtune=generic -march=x86-64 -g -O0 -fpre-include=/usr/include/finclude/math-vector-fortran.h
REM seed -1964435783 -93778578 216415576 -1825700463 1094434355 1244409549 1014362292 -799061607 -594404829 1927535045 -724493989 992039462 -910577392 -271606436 -162085460 -1429348638 827031965 1437318751 1008842537 -835026178 480440876 983409642 -1149392702 -791454678 1746187935 -1037110364 587130735 -855812933 1134281922 -1776548524 52804275 1236019440 -1593338329
REM
CELL 1.54180   50.00000   50.00000   50.00000   90.00000   90.00000   90.00000
LATT -1
SFAC C  
C      1  0.4104440000000  0.5069590000000  0.5394990000000 1.0
C      1  0.4087020000000  0.4919780000000  0.4616800000000 1.0
C      1  0.5912980000000  0.5080230000000  0.4616810000000 1.0
C      1  0.5895560000000  0.4930400000000  0.5394990000000 1.0
C      1  0.5317290000000  0.4174820000000  0.5566880000000 1.0
C      1  0.5318290000000  0.5834650000000  0.4438140000000 1.0
C      1  0.4681710000000  0.4165360000000  0.4438120000000 1.0
C      1  0.4682710000000  0.5825170000000  0.5566900000000 1.0
C      1  0.5562160000000  0.5407660000000  0.4575790000000 1.0
C      1  0.5558670000000  0.4608010000000  0.5446660000000 1.0
C      1  0.4441330000000  0.5391970000000  0.5446670000000 1.0
C      1  0.4437850000000  0.4592350000000  0.4575780000000 1.0
C      1  0.5065500000000  0.5393130000000  0.4838810000000 1.0
C      1  0.5062240000000  0.4605800000000  0.5154640000000 1.0
C      1  0.4937760000000  0.5394190000000  0.5154650000000 1.0
C      1  0.4934500000000  0.4606880000000  0.4838800000000 1.0
C      1  0.4395610000000  0.4168930000000  0.4838680000000 1.0
C      1  0.4390670000000  0.5818780000000  0.5166960000000 1.0
C      1  0.5609330000000  0.4181220000000  0.5166950000000 1.0
C      1  0.5604390000000  0.5831070000000  0.4838710000000 1.0
C      1  0.5660590000000  0.5722830000000  0.5090500000000 1.0
C      1  0.5653100000000  0.4273010000000  0.4906160000000 1.0
C      1  0.4346900000000  0.5727000000000  0.4906170000000 1.0
C      1  0.4339410000000  0.4277170000000  0.5090480000000 1.0
C      1  0.5329710000000  0.5119970000000  0.4228960000000 1.0
C      1  0.5306640000000  0.4885510000000  0.5767310000000 1.0
C      1  0.4693350000000  0.5114470000000  0.5767310000000 1.0
C      1  0.4670300000000  0.4880050000000  0.4228950000000 1.0
C      1  0.4334600000000  0.5327080000000  0.4450520000000 1.0
C      1  0.4363280000000  0.4660080000000  0.5526480000000 1.0
C      1  0.5636720000000  0.5339910000000  0.5526490000000 1.0
C      1  0.5665400000000  0.4672930000000  0.4450520000000 1.0
C      1  0.4410480000000  0.5390950000000  0.5113580000000 1.0
C      1  0.4404810000000  0.4628370000000  0.4910600000000 1.0
C      1  0.5595190000000  0.5371630000000  0.4910610000000 1.0
C      1  0.5589520000000  0.4609050000000  0.5113570000000 1.0
C      1  0.4356930000000  0.5079540000000  0.4616760000000 1.0
C      1  0.4374980000000  0.4914820000000  0.5376350000000 1.0
C      1  0.5625020000000  0.5085170000000  0.5376360000000 1.0
C      1  0.5643070000000  0.4920470000000  0.4616760000000 1.0
C      1  0.4610550000000  0.4413110000000  0.5256340000000 1.0
C      1  0.4619990000000  0.5595280000000  0.4742630000000 1.0
C      1  0.5380010000000  0.4404730000000  0.4742620000000 1.0
C      1  0.5389450000000  0.5586880000000  0.5256350000000 1.0
C      1  0.4306320000000  0.4354060000000  0.5402580000000 1.0
C      1  0.4308720000000  0.5621180000000  0.4603400000000 1.0
C      1  0.5691290000000  0.4378830000000  0.4603390000000 1.0
C      1  0.5693680000000  0.5645930000000  0.5402590000000 1.0
C      1  0.4076870000000  0.4794460000000  0.4331500000000 1.0
C      1  0.4091520000000  0.5180820000000  0.5686770000000 1.0
C      1  0.5908470000000  0.4819160000000  0.5686770000000 1.0
C      1  0.5923140000000  0.5205560000000  0.4331510000000 1.0
C      1  0.4992640000000  0.4123420000000  0.4685600000000 1.0
C      1  0.4992890000000  0.5870320000000  0.5319170000000 1.0
C      1  0.5007110000000  0.4129680000000  0.5319150000000 1.0
C      1  0.5007360000000  0.5876580000000  0.4685620000000 1.0
C      1  0.5094750000000  0.4612750000000  0.4114730000000 1.0
C      1  0.5104740000000  0.5397300000000  0.5895700000000 1.0
C      1  0.4895260000000  0.4602680000000  0.5895690000000 1.0
C      1  0.4905250000000  0.5387270000000  0.4114740000000 1.0
C      1  0.5232260000000  0.5617970000000  0.5748780000000 1.0
C      1  0.5229450000000  0.4397720000000  0.4263480000000 1.0
C      1  0.4770550000000  0.5602290000000  0.4263490000000 1.0
C      1  0.4767740000000  0.4382020000000  0.5748760000000 1.0
C      1  0.4620050000000  0.5118350000000  0.5476210000000 1.0
C      1  0.4595120000000  0.4875970000000  0.4520140000000 1.0
C      1  0.5404890000000  0.5124040000000  0.4520150000000 1.0
C      1  0.5379950000000  0.4881640000000  0.5476210000000 1.0
C      1  0.5248620000000  0.5170750000000  0.5937400000000 1.0
C      1  0.5238220000000  0.4838760000000  0.4063580000000 1.0
C      1  0.4761790000000  0.5161260000000  0.4063580000000 1.0
C      1  0.4751380000000  0.4829230000000  0.5937390000000 1.0
C      1  0.4729070000000  0.3841880000000  0.5005190000000 1.0
C      1  0.4726200000000  0.6155990000000  0.5004830000000 1.0
C      1  0.5273800000000  0.3844010000000  0.5004810000000 1.0
C      1  0.5270930000000  0.6158120000000  0.5005220000000 1.0
C      1  0.5128300000000  0.4888460000000  0.5282680000000 1.0
C      1  0.5118340000000  0.5123770000000  0.4688850000000 1.0
C      1  0.4881660000000  0.4876240000000  0.4688840000000 1.0
C      1  0.4871690000000  0.5111540000000  0.5282680000000 1.0
C      1  0.5139970000000  0.6139400000000  0.5256770000000 1.0
C      1  0.5142120000000  0.3856870000000  0.4753240000000 1.0
C      1  0.4857880000000  0.6143140000000  0.4753260000000 1.0
C      1  0.4860030000000  0.3860590000000  0.5256740000000 1.0
C      1  0.4477330000000  0.4973860000000  0.5990110000000 1.0
C      1  0.4482790000000  0.5033710000000  0.3990270000000 1.0
C      1  0.5517210000000  0.4966310000000  0.3990270000000 1.0
C      1  0.5522670000000  0.5026120000000  0.5990110000000 1.0
C      1  0.5091940000000  0.5640880000000  0.4360790000000 1.0
C      1  0.5086380000000  0.4364590000000  0.5637920000000 1.0
C      1  0.4913610000000  0.5635390000000  0.5637940000000 1.0
C      1  0.4908070000000  0.4359140000000  0.4360780000000 1.0
C      1  0.4720100000000  0.6102810000000  0.5512400000000 1.0
C      1  0.4722920000000  0.3888740000000  0.4495920000000 1.0
C      1  0.5277080000000  0.6111270000000  0.4495950000000 1.0
C      1  0.5279900000000  0.3897180000000  0.5512380000000 1.0
C      1  0.5530920000000  0.5435440000000  0.4089890000000 1.0
C      1  0.5515720000000  0.4584750000000  0.5926670000000 1.0
C      1  0.4484280000000  0.5415230000000  0.5926680000000 1.0
C      1  0.4469090000000  0.4564580000000  0.4089880000000 1.0
C      1  0.4675060000000  0.5560430000000  0.5061950000000 1.0
C      1  0.4671150000000  0.4440750000000  0.4933050000000 1.0
C      1  0.5328850000000  0.5559250000000  0.4933060000000 1.0
C      1  0.5324940000000  0.4439570000000  0.5061940000000 1.0
C      1  0.5158620000000  0.3763330000000  0.5285630000000 1.0
C      1  0.5156390000000  0.6243240000000  0.4724670000000 1.0
C      1  0.4843610000000  0.3756770000000  0.4724640000000 1.0
C      1  0.4841380000000  0.6236660000000  0.5285660000000 1.0
C      1  0.5480620000000  0.4427560000000  0.4348630000000 1.0
C      1  0.5481360000000  0.5591630000000  0.5654810000000 1.0
C      1  0.4518640000000  0.4408360000000  0.5654800000000 1.0
C      1  0.4519380000000  0.5572460000000  0.4348640000000 1.0
C      1  0.4457370000000  0.4872940000000  0.5082940000000 1.0
C      1  0.4431950000000  0.5155190000000  0.4917370000000 1.0
C      1  0.5568050000000  0.4844820000000  0.4917370000000 1.0
C      1  0.5542630000000  0.5127060000000  0.5082950000000 1.0
C      1  0.6168970000000  0.4583760000000  0.5075270000000 1.0
C      1  0.6173510000000  0.5408330000000  0.4962880000000 1.0
C      1  0.3826490000000  0.4591670000000  0.4962870000000 1.0
C      1  0.3831030000000  0.5416240000000  0.5075270000000 1.0
C      1  0.3905830000000  0.4906300000000  0.4904820000000 1.0
C      1  0.3913170000000  0.5099950000000  0.5115000000000 1.0
C      1  0.6086830000000  0.4900040000000  0.5115010000000 1.0
C      1  0.6094170000000  0.5093700000000  0.4904830000000 1.0
C      1  0.4119560000000  0.5352110000000  0.5212480000000 1.0
C      1  0.4112660000000  0.4651940000000  0.4818870000000 1.0
C      1  0.5887340000000  0.5348060000000  0.4818880000000 1.0
C      1  0.5880440000000  0.4647890000000  0.5212480000000 1.0
C      1  0.5101130000000  0.5577580000000  0.5357600000000 1.0
C      1  0.5096380000000  0.4415200000000  0.4640270000000 1.0
C      1  0.4903620000000  0.5584810000000  0.4640280000000 1.0
C      1  0.4898870000000  0.4422410000000  0.5357590000000 1.0
C      1  0.4800000000000  0.5397210000000  0.5852930000000 1.0
C      1  0.4787500000000  0.4597420000000  0.4149670000000 1.0
C      1  0.5212500000000  0.5402590000000  0.4149680000000 1.0
C      1  0.5200000000000  0.4602770000000  0.5852920000000 1.0
C      1  0.4308890000000  0.5346240000000  0.5727710000000 1.0
C      1  0.4299340000000  0.4636600000000  0.4292810000000 1.0
C      1  0.5700660000000  0.5363420000000  0.4292820000000 1.0
C      1  0.5691100000000  0.4653740000000  0.5727700000000 1.0
C      1  0.4471040000000  0.5699580000000  0.5429600000000 1.0
C      1  0.4469150000000  0.4288400000000  0.4575400000000 1.0
C      1  0.5530850000000  0.5711610000000  0.4575420000000 1.0
C      1  0.5528960000000  0.4300410000000  0.5429590000000 1.0
C      1  0.5242970000000  0.5033040000000  0.5038270000000 1.0
C      1  0.5271810000000  0.4834780000000  0.4762720000000 1.0
C      1  0.4728190000000  0.5165220000000  0.4762720000000 1.0
C      1  0.4757030000000  0.4966960000000  0.5038260000000 1.0
C      1  0.5276710000000  0.5878300000000  0.4833520000000 1.0
C      1  0.5278950000000  0.4126780000000  0.5171960000000 1.0
C      1  0.4721050000000  0.5873210000000  0.5171980000000 1.0
C      1  0.4723290000000  0.4121710000000  0.4833500000000 1.0
END
