TITL C-2782235-7892-201 -0.00424468047464932 125000 -1013.278408537 0 0 182 (C1) n - 1
REM
REM in /home/nfs/bkarasulu/CARBON/AIRSS/Generating-Clusters/REBO/Higher-Symm/SD-CG/HFTN-CG
REM
REM
REM
REM
REM
REM ./C.cell (12c818d87b63d06a65506943cc24bca4)
REM
REM compiler GCC version 9.2.1 20190827 (Red Hat 9.2.1-1)
REM options -cpp -mtune=generic -march=x86-64 -g -O0 -fpre-include=/usr/include/finclude/math-vector-fortran.h
REM seed 1889249653 1039381076 1192976999 695390147 1748736029 -1031514105 1119516045 275686482 -1955451295 1940478894 2005373254 -104099974 507625384 -1232669373 967223208 -1893673833 -770726203 -1112317892 1164032582 953421447 -1069002234 1932883914 858469156 -2058804291 -1049266838 1966454648 -585987155 1940753376 -2005441851 -1232409655 154795502 -1636668937 1953793395
REM
CELL 1.54180   50.00000   50.00000   50.00000   90.00000   90.00000   90.00000
LATT -1
SFAC C  
C      1  0.5286040000000  0.4767090000000  0.5723870000000 1.0
C      1  0.4308730000000  0.4709440000000  0.4827580000000 1.0
C      1  0.5515350000000  0.4727660000000  0.4432680000000 1.0
C      1  0.4776330000000  0.5270400000000  0.5694310000000 1.0
C      1  0.5700460000000  0.5186430000000  0.4830830000000 1.0
C      1  0.4391390000000  0.5237450000000  0.4335820000000 1.0
C      1  0.4692630000000  0.5296370000000  0.4297510000000 1.0
C      1  0.5665880000000  0.5240910000000  0.5157540000000 1.0
C      1  0.4453200000000  0.5270790000000  0.5613720000000 1.0
C      1  0.5204700000000  0.4773640000000  0.4294580000000 1.0
C      1  0.4283790000000  0.4765480000000  0.5162380000000 1.0
C      1  0.5602350000000  0.4776240000000  0.5591280000000 1.0
C      1  0.4634280000000  0.5833320000000  0.5173320000000 1.0
C      1  0.4993490000000  0.5672980000000  0.4706610000000 1.0
C      1  0.5201890000000  0.5656870000000  0.5174080000000 1.0
C      1  0.5364990000000  0.4401210000000  0.5164930000000 1.0
C      1  0.4985460000000  0.4298750000000  0.4585890000000 1.0
C      1  0.4686280000000  0.4302260000000  0.5256420000000 1.0
C      1  0.5422270000000  0.4283190000000  0.4874290000000 1.0
C      1  0.4983950000000  0.4390680000000  0.5284620000000 1.0
C      1  0.4729190000000  0.4248470000000  0.4759120000000 1.0
C      1  0.4651150000000  0.5809560000000  0.4863120000000 1.0
C      1  0.5065950000000  0.5749150000000  0.5436210000000 1.0
C      1  0.5321620000000  0.5647140000000  0.4740580000000 1.0
C      1  0.4998820000000  0.4829280000000  0.5903540000000 1.0
C      1  0.4141590000000  0.4670330000000  0.4532170000000 1.0
C      1  0.5827640000000  0.4798560000000  0.4553230000000 1.0
C      1  0.5022220000000  0.5170860000000  0.5909810000000 1.0
C      1  0.5812450000000  0.5139020000000  0.4512690000000 1.0
C      1  0.4192410000000  0.5374690000000  0.4489510000000 1.0
C      1  0.4913560000000  0.5189960000000  0.4074340000000 1.0
C      1  0.5779110000000  0.5155550000000  0.5495390000000 1.0
C      1  0.4187430000000  0.5169700000000  0.5455390000000 1.0
C      1  0.4986560000000  0.4853480000000  0.4053140000000 1.0
C      1  0.4225660000000  0.4829690000000  0.5491710000000 1.0
C      1  0.5876120000000  0.4831110000000  0.5428510000000 1.0
C      1  0.5118230000000  0.4591550000000  0.5503290000000 1.0
C      1  0.4563580000000  0.4483200000000  0.4812880000000 1.0
C      1  0.5426110000000  0.4503500000000  0.4657590000000 1.0
C      1  0.4865440000000  0.5530790000000  0.5524800000000 1.0
C      1  0.5502030000000  0.5460340000000  0.4868780000000 1.0
C      1  0.4601750000000  0.5597300000000  0.4688180000000 1.0
C      1  0.4825750000000  0.5473770000000  0.4503120000000 1.0
C      1  0.5451660000000  0.5492750000000  0.5187460000000 1.0
C      1  0.4614940000000  0.5596680000000  0.5359500000000 1.0
C      1  0.5165430000000  0.4500050000000  0.4491500000000 1.0
C      1  0.4518090000000  0.4523890000000  0.5113080000000 1.0
C      1  0.5413510000000  0.4550770000000  0.5415180000000 1.0
C      1  0.5234490000000  0.5665030000000  0.5788270000000 1.0
C      1  0.4258100000000  0.5742270000000  0.4894400000000 1.0
C      1  0.5528390000000  0.5662220000000  0.4401160000000 1.0
C      1  0.4802130000000  0.4316480000000  0.5767020000000 1.0
C      1  0.5815490000000  0.4298760000000  0.4816430000000 1.0
C      1  0.4498660000000  0.4277840000000  0.4435140000000 1.0
C      1  0.4783830000000  0.4274500000000  0.4243040000000 1.0
C      1  0.5774090000000  0.4274320000000  0.5160150000000 1.0
C      1  0.4483650000000  0.4370880000000  0.5593060000000 1.0
C      1  0.5202930000000  0.5703660000000  0.4297000000000 1.0
C      1  0.4250910000000  0.5742960000000  0.5240880000000 1.0
C      1  0.5510760000000  0.5645750000000  0.5553370000000 1.0
C      1  0.4990120000000  0.4065350000000  0.5361270000000 1.0
C      1  0.4744610000000  0.3940380000000  0.4893460000000 1.0
C      1  0.5282150000000  0.3977880000000  0.4863650000000 1.0
C      1  0.5007170000000  0.6083560000000  0.5390730000000 1.0
C      1  0.5245270000000  0.5959160000000  0.4859440000000 1.0
C      1  0.4733570000000  0.6129800000000  0.4924410000000 1.0
C      1  0.4959350000000  0.6012360000000  0.4713480000000 1.0
C      1  0.5249020000000  0.5989350000000  0.5175680000000 1.0
C      1  0.4739090000000  0.6133310000000  0.5264390000000 1.0
C      1  0.5024170000000  0.3983290000000  0.4715460000000 1.0
C      1  0.4720140000000  0.3970400000000  0.5184620000000 1.0
C      1  0.5267200000000  0.4074340000000  0.5186020000000 1.0
C      1  0.4148720000000  0.4388960000000  0.5179740000000 1.0
C      1  0.5348650000000  0.4409750000000  0.4225950000000 1.0
C      1  0.5554820000000  0.4392930000000  0.5666890000000 1.0
C      1  0.5882230000000  0.5576210000000  0.5172030000000 1.0
C      1  0.4693240000000  0.5679560000000  0.4186780000000 1.0
C      1  0.4521100000000  0.5652350000000  0.5684670000000 1.0
C      1  0.5818660000000  0.5559510000000  0.4898370000000 1.0
C      1  0.4713890000000  0.5616540000000  0.5883930000000 1.0
C      1  0.4507750000000  0.5702760000000  0.4388270000000 1.0
C      1  0.4183470000000  0.4337540000000  0.4903750000000 1.0
C      1  0.5329710000000  0.4392170000000  0.5853700000000 1.0
C      1  0.5618070000000  0.4363310000000  0.4308600000000 1.0
C      1  0.4962800000000  0.5222490000000  0.5293090000000 1.0
C      1  0.4737580000000  0.5239950000000  0.4870880000000 1.0
C      1  0.5223230000000  0.5174930000000  0.4896670000000 1.0
C      1  0.4924810000000  0.4827270000000  0.5246160000000 1.0
C      1  0.5195900000000  0.4778040000000  0.4859230000000 1.0
C      1  0.4723460000000  0.4847370000000  0.4799480000000 1.0
C      1  0.4985960000000  0.4792300000000  0.4695400000000 1.0
C      1  0.5169780000000  0.4778590000000  0.5148790000000 1.0
C      1  0.4705860000000  0.4872540000000  0.5062050000000 1.0
C      1  0.4977410000000  0.5196440000000  0.4745660000000 1.0
C      1  0.4744920000000  0.5268680000000  0.5158300000000 1.0
C      1  0.5210890000000  0.5175530000000  0.5160470000000 1.0
C      1  0.4074170000000  0.4967250000000  0.4737920000000 1.0
C      1  0.5561110000000  0.4895080000000  0.4166800000000 1.0
C      1  0.5345040000000  0.4955170000000  0.6002790000000 1.0
C      1  0.5993230000000  0.5026190000000  0.4835860000000 1.0
C      1  0.4333610000000  0.4979480000000  0.4203980000000 1.0
C      1  0.4630830000000  0.5020420000000  0.5861640000000 1.0
C      1  0.5940600000000  0.5095630000000  0.5136200000000 1.0
C      1  0.4317180000000  0.5048470000000  0.5812560000000 1.0
C      1  0.4622020000000  0.5012640000000  0.4076720000000 1.0
C      1  0.4089090000000  0.4974130000000  0.5030550000000 1.0
C      1  0.5599190000000  0.4989730000000  0.5821460000000 1.0
C      1  0.5276050000000  0.5019630000000  0.4065370000000 1.0
C      1  0.5617180000000  0.4021340000000  0.4808070000000 1.0
C      1  0.4919760000000  0.4061900000000  0.5646470000000 1.0
C      1  0.4535010000000  0.4002180000000  0.4631650000000 1.0
C      1  0.4408240000000  0.6046570000000  0.4862570000000 1.0
C      1  0.5147750000000  0.5966430000000  0.5679140000000 1.0
C      1  0.5471660000000  0.5920940000000  0.4607700000000 1.0
C      1  0.4410390000000  0.6037950000000  0.5305500000000 1.0
C      1  0.5074380000000  0.5943400000000  0.4424500000000 1.0
C      1  0.5463090000000  0.5887570000000  0.5369820000000 1.0
C      1  0.5577390000000  0.4068390000000  0.5224620000000 1.0
C      1  0.4950710000000  0.4025640000000  0.4385250000000 1.0
C      1  0.4561620000000  0.4075940000000  0.5469100000000 1.0
C      1  0.5785420000000  0.5494740000000  0.5436050000000 1.0
C      1  0.4254560000000  0.5526190000000  0.5508430000000 1.0
C      1  0.4955730000000  0.5522460000000  0.4137020000000 1.0
C      1  0.4212370000000  0.4490410000000  0.5438900000000 1.0
C      1  0.5801000000000  0.4471930000000  0.5443280000000 1.0
C      1  0.5031090000000  0.4480820000000  0.4121490000000 1.0
C      1  0.4230110000000  0.4376410000000  0.4624280000000 1.0
C      1  0.5796340000000  0.4457840000000  0.4513880000000 1.0
C      1  0.5062020000000  0.4491080000000  0.5900770000000 1.0
C      1  0.5765830000000  0.5478000000000  0.4570260000000 1.0
C      1  0.4232290000000  0.5667130000000  0.4559510000000 1.0
C      1  0.4972980000000  0.5510270000000  0.5941780000000 1.0
C      1  0.4433260000000  0.5155300000000  0.5118200000000 1.0
C      1  0.5027070000000  0.5098530000000  0.4445660000000 1.0
C      1  0.5404880000000  0.5022230000000  0.5360780000000 1.0
C      1  0.5502760000000  0.4824960000000  0.5139450000000 1.0
C      1  0.4814180000000  0.4874560000000  0.4412600000000 1.0
C      1  0.4569500000000  0.4970650000000  0.5357130000000 1.0
C      1  0.5484520000000  0.4872000000000  0.4799720000000 1.0
C      1  0.4847360000000  0.4908490000000  0.5544660000000 1.0
C      1  0.4508920000000  0.4926800000000  0.4558690000000 1.0
C      1  0.4439020000000  0.5126020000000  0.4777080000000 1.0
C      1  0.5123680000000  0.5078120000000  0.5538150000000 1.0
C      1  0.5334230000000  0.5092810000000  0.4599100000000 1.0
C      1  0.3734160000000  0.5302680000000  0.4639600000000 1.0
C      1  0.5992430000000  0.5176070000000  0.4042390000000 1.0
C      1  0.5344780000000  0.5508890000000  0.6140610000000 1.0
C      1  0.6221770000000  0.4487100000000  0.4733280000000 1.0
C      1  0.4082580000000  0.4594300000000  0.4052050000000 1.0
C      1  0.4672630000000  0.4506020000000  0.6160530000000 1.0
C      1  0.6326000000000  0.4711160000000  0.5228520000000 1.0
C      1  0.4207960000000  0.4494910000000  0.5895170000000 1.0
C      1  0.4621730000000  0.4573540000000  0.3753510000000 1.0
C      1  0.3873120000000  0.5401190000000  0.5141900000000 1.0
C      1  0.5805560000000  0.5516740000000  0.5864750000000 1.0
C      1  0.5435810000000  0.5521380000000  0.4027800000000 1.0
C      1  0.6063840000000  0.4786270000000  0.5146660000000 1.0
C      1  0.4377890000000  0.4723540000000  0.5780480000000 1.0
C      1  0.4713830000000  0.4757870000000  0.3909340000000 1.0
C      1  0.4030640000000  0.5187850000000  0.5198880000000 1.0
C      1  0.5655450000000  0.5299150000000  0.5779410000000 1.0
C      1  0.5480320000000  0.5270320000000  0.4088980000000 1.0
C      1  0.3989220000000  0.5211530000000  0.4610180000000 1.0
C      1  0.5766550000000  0.5139650000000  0.4199900000000 1.0
C      1  0.5349160000000  0.5279370000000  0.5934650000000 1.0
C      1  0.6041440000000  0.4716560000000  0.4809650000000 1.0
C      1  0.4176110000000  0.4753610000000  0.4252280000000 1.0
C      1  0.4679970000000  0.4716380000000  0.5942040000000 1.0
C      1  0.4765150000000  0.4602290000000  0.4272130000000 1.0
C      1  0.5712560000000  0.4596220000000  0.5155090000000 1.0
C      1  0.4572970000000  0.4650850000000  0.5412900000000 1.0
C      1  0.5153610000000  0.5412980000000  0.4443690000000 1.0
C      1  0.4403710000000  0.5471840000000  0.5148660000000 1.0
C      1  0.5422700000000  0.5330010000000  0.5460040000000 1.0
C      1  0.5151580000000  0.5398800000000  0.5608250000000 1.0
C      1  0.4389390000000  0.5429750000000  0.4833140000000 1.0
C      1  0.5472040000000  0.5343460000000  0.4482110000000 1.0
C      1  0.4822220000000  0.4579970000000  0.5596820000000 1.0
C      1  0.5664440000000  0.4599950000000  0.4853990000000 1.0
C      1  0.4535000000000  0.4608900000000  0.4513140000000 1.0
C      1  0.5014680000000  0.5564450000000  0.4982740000000 1.0
C      1  0.5074090000000  0.4424020000000  0.4996260000000 1.0
END
