TITL C-2782233-7966-1466 0.0109034519773614 125000 -1022.03421080015 0 0 181 (C1) n - 1
REM
REM in /home/nfs/bkarasulu/CARBON/AIRSS/Generating-Clusters/REBO/Higher-Symm/SD-CG/HFTN-CG
REM
REM
REM
REM
REM
REM ./C.cell (12c818d87b63d06a65506943cc24bca4)
REM
REM compiler GCC version 9.2.1 20190827 (Red Hat 9.2.1-1)
REM options -cpp -mtune=generic -march=x86-64 -g -O0 -fpre-include=/usr/include/finclude/math-vector-fortran.h
REM seed -1239896076 -76679113 1009267771 1943515079 -1503966022 259758466 242889765 -759252235 -782387192 -695605006 2128787403 698597376 804329109 -46206899 -755867371 1373246592 -1697512791 144862745 969420715 -1227169390 -2129988738 -279862048 655307880 1588163597 -333169807 1151007370 -388911231 1544790193 1888910572 429363676 -2059207135 -1976931565 -722328311
REM
CELL 1.54180   50.00000   50.00000   50.00000   90.00000   90.00000   90.00000
LATT -1
SFAC C  
C      1  0.5361360000000  0.5467010000000  0.4229460000000 1.0
C      1  0.4876380000000  0.5799430000000  0.4268240000000 1.0
C      1  0.4325750000000  0.5135360000000  0.4158270000000 1.0
C      1  0.4328360000000  0.4544140000000  0.4194400000000 1.0
C      1  0.5106940000000  0.4180150000000  0.4191500000000 1.0
C      1  0.5652080000000  0.4827480000000  0.4238740000000 1.0
C      1  0.4454350000000  0.5491980000000  0.5867270000000 1.0
C      1  0.5165650000000  0.5578310000000  0.5725390000000 1.0
C      1  0.5632870000000  0.5118640000000  0.5809160000000 1.0
C      1  0.5702390000000  0.4533640000000  0.5820750000000 1.0
C      1  0.4841000000000  0.4389870000000  0.5744280000000 1.0
C      1  0.4296500000000  0.4779380000000  0.5873150000000 1.0
C      1  0.6143610000000  0.4958720000000  0.5201420000000 1.0
C      1  0.5623340000000  0.5929600000000  0.5140990000000 1.0
C      1  0.4533020000000  0.6001950000000  0.5239560000000 1.0
C      1  0.3957380000000  0.5103340000000  0.5153890000000 1.0
C      1  0.4388900000000  0.4067600000000  0.5173760000000 1.0
C      1  0.5559600000000  0.3964230000000  0.5188120000000 1.0
C      1  0.3843720000000  0.4974750000000  0.4849870000000 1.0
C      1  0.4429710000000  0.6124160000000  0.4768320000000 1.0
C      1  0.5473790000000  0.6032910000000  0.4793190000000 1.0
C      1  0.6085710000000  0.5091520000000  0.4834840000000 1.0
C      1  0.5636410000000  0.4097560000000  0.4825700000000 1.0
C      1  0.4562600000000  0.4008720000000  0.4823640000000 1.0
C      1  0.5785520000000  0.5946630000000  0.4839080000000 1.0
C      1  0.4688060000000  0.6227400000000  0.4761210000000 1.0
C      1  0.3895010000000  0.5308910000000  0.4889370000000 1.0
C      1  0.4235890000000  0.4099000000000  0.4869970000000 1.0
C      1  0.5387960000000  0.3886930000000  0.4900390000000 1.0
C      1  0.6138890000000  0.4772180000000  0.4950400000000 1.0
C      1  0.4294440000000  0.5894470000000  0.5174310000000 1.0
C      1  0.5361080000000  0.6145050000000  0.5094970000000 1.0
C      1  0.6213100000000  0.5263190000000  0.5103220000000 1.0
C      1  0.5806140000000  0.4132350000000  0.5103090000000 1.0
C      1  0.4657140000000  0.3864770000000  0.5117990000000 1.0
C      1  0.3859680000000  0.4780370000000  0.5132250000000 1.0
C      1  0.5186370000000  0.4366410000000  0.4925850000000 1.0
C      1  0.5276580000000  0.4811860000000  0.5005170000000 1.0
C      1  0.5295990000000  0.5271990000000  0.4866230000000 1.0
C      1  0.4778590000000  0.5552150000000  0.4870950000000 1.0
C      1  0.4614780000000  0.5143220000000  0.4964690000000 1.0
C      1  0.4747650000000  0.4693770000000  0.4951750000000 1.0
C      1  0.4965260000000  0.4565410000000  0.5044030000000 1.0
C      1  0.4544050000000  0.4880570000000  0.5093750000000 1.0
C      1  0.4615670000000  0.5389860000000  0.5062060000000 1.0
C      1  0.5000210000000  0.5320230000000  0.4984220000000 1.0
C      1  0.5363320000000  0.5091180000000  0.5097670000000 1.0
C      1  0.5387590000000  0.4544300000000  0.5102470000000 1.0
C      1  0.4068500000000  0.4519700000000  0.5126980000000 1.0
C      1  0.4948230000000  0.3893300000000  0.5159210000000 1.0
C      1  0.5900580000000  0.4398010000000  0.5143080000000 1.0
C      1  0.5959060000000  0.5485420000000  0.5150970000000 1.0
C      1  0.5046920000000  0.6092760000000  0.5128740000000 1.0
C      1  0.4151540000000  0.5626970000000  0.5169250000000 1.0
C      1  0.5983730000000  0.4540040000000  0.4897060000000 1.0
C      1  0.5068100000000  0.3928120000000  0.4849410000000 1.0
C      1  0.4072040000000  0.4374440000000  0.4817580000000 1.0
C      1  0.4078230000000  0.5562810000000  0.4843330000000 1.0
C      1  0.4960940000000  0.6125290000000  0.4798870000000 1.0
C      1  0.5913620000000  0.5630620000000  0.4843830000000 1.0
C      1  0.4625760000000  0.5323890000000  0.5622600000000 1.0
C      1  0.4524000000000  0.4856730000000  0.5629490000000 1.0
C      1  0.4904950000000  0.4661020000000  0.5580360000000 1.0
C      1  0.5414200000000  0.4647150000000  0.5674650000000 1.0
C      1  0.5380710000000  0.5103850000000  0.5597140000000 1.0
C      1  0.5070140000000  0.5323160000000  0.5563170000000 1.0
C      1  0.5198340000000  0.5244220000000  0.4410850000000 1.0
C      1  0.5380260000000  0.4890020000000  0.4410720000000 1.0
C      1  0.5093400000000  0.4477300000000  0.4360770000000 1.0
C      1  0.4604360000000  0.4689300000000  0.4332140000000 1.0
C      1  0.4538560000000  0.5176500000000  0.4424460000000 1.0
C      1  0.4872030000000  0.5488860000000  0.4329090000000 1.0
C      1  0.4991920000000  0.5901930000000  0.5408470000000 1.0
C      1  0.4204980000000  0.5428030000000  0.5433980000000 1.0
C      1  0.4230820000000  0.4520620000000  0.5426060000000 1.0
C      1  0.5036030000000  0.4051510000000  0.5448870000000 1.0
C      1  0.5798140000000  0.4534180000000  0.5437370000000 1.0
C      1  0.5805720000000  0.5466200000000  0.5457260000000 1.0
C      1  0.5073190000000  0.5926100000000  0.4614110000000 1.0
C      1  0.5800780000000  0.5450070000000  0.4577320000000 1.0
C      1  0.5808370000000  0.4545650000000  0.4604240000000 1.0
C      1  0.5005720000000  0.4116500000000  0.4572310000000 1.0
C      1  0.4208470000000  0.4545370000000  0.4571580000000 1.0
C      1  0.4222310000000  0.5454170000000  0.4554130000000 1.0
C      1  0.5490630000000  0.4567950000000  0.4202810000000 1.0
C      1  0.5551030000000  0.5203560000000  0.4230470000000 1.0
C      1  0.5138740000000  0.5661710000000  0.4099030000000 1.0
C      1  0.4478540000000  0.5426940000000  0.4121690000000 1.0
C      1  0.4365490000000  0.4841800000000  0.4055220000000 1.0
C      1  0.4844440000000  0.4333180000000  0.4090520000000 1.0
C      1  0.4503740000000  0.4538330000000  0.5867600000000 1.0
C      1  0.4339790000000  0.5196760000000  0.5868000000000 1.0
C      1  0.4872980000000  0.5618870000000  0.5804990000000 1.0
C      1  0.5482480000000  0.5396980000000  0.5848360000000 1.0
C      1  0.5641560000000  0.4833250000000  0.5942330000000 1.0
C      1  0.5133950000000  0.4367260000000  0.5833940000000 1.0
C      1  0.4669540000000  0.4232230000000  0.5274150000000 1.0
C      1  0.5412540000000  0.4451380000000  0.5393620000000 1.0
C      1  0.5844620000000  0.5009520000000  0.5301620000000 1.0
C      1  0.5357950000000  0.5752850000000  0.5251990000000 1.0
C      1  0.4581900000000  0.5517500000000  0.5343550000000 1.0
C      1  0.4330100000000  0.4898480000000  0.5349840000000 1.0
C      1  0.5272370000000  0.4405650000000  0.4643180000000 1.0
C      1  0.4548010000000  0.4324030000000  0.4695610000000 1.0
C      1  0.4332650000000  0.5095480000000  0.4687940000000 1.0
C      1  0.4697960000000  0.5829960000000  0.4748200000000 1.0
C      1  0.5452550000000  0.5524310000000  0.4759000000000 1.0
C      1  0.5807780000000  0.4908220000000  0.4774260000000 1.0
C      1  0.4733890000000  0.5781310000000  0.5600780000000 1.0
C      1  0.4180740000000  0.5144670000000  0.5624450000000 1.0
C      1  0.4464540000000  0.4366590000000  0.5623480000000 1.0
C      1  0.5283650000000  0.4179980000000  0.5652810000000 1.0
C      1  0.5821980000000  0.4808530000000  0.5646460000000 1.0
C      1  0.5555200000000  0.5610790000000  0.5643710000000 1.0
C      1  0.5257680000000  0.5814280000000  0.4382260000000 1.0
C      1  0.5796940000000  0.5172560000000  0.4373890000000 1.0
C      1  0.5589620000000  0.4367800000000  0.4404240000000 1.0
C      1  0.4746780000000  0.4210320000000  0.4366200000000 1.0
C      1  0.4191620000000  0.4815650000000  0.4356640000000 1.0
C      1  0.4431510000000  0.5603150000000  0.4347520000000 1.0
C      1  0.5228340000000  0.4774030000000  0.4129190000000 1.0
C      1  0.5251460000000  0.5104760000000  0.4101360000000 1.0
C      1  0.5018550000000  0.5338810000000  0.4068360000000 1.0
C      1  0.4720470000000  0.5187830000000  0.4131620000000 1.0
C      1  0.4703440000000  0.4879320000000  0.4079630000000 1.0
C      1  0.4935430000000  0.4655010000000  0.4111270000000 1.0
C      1  0.4722680000000  0.4798330000000  0.5904660000000 1.0
C      1  0.4669680000000  0.5116830000000  0.5893330000000 1.0
C      1  0.4932130000000  0.5291230000000  0.5875320000000 1.0
C      1  0.5230510000000  0.5179870000000  0.5896710000000 1.0
C      1  0.5304380000000  0.4869130000000  0.5911100000000 1.0
C      1  0.5047070000000  0.4694960000000  0.5887700000000 1.0
C      1  0.4141940000000  0.5146870000000  0.4429860000000 1.0
C      1  0.4433150000000  0.4337050000000  0.4413410000000 1.0
C      1  0.5321200000000  0.4159520000000  0.4440110000000 1.0
C      1  0.5874810000000  0.4849860000000  0.4459900000000 1.0
C      1  0.5530970000000  0.5626700000000  0.4464240000000 1.0
C      1  0.4629550000000  0.5788200000000  0.4436300000000 1.0
C      1  0.5844470000000  0.5147900000000  0.5575300000000 1.0
C      1  0.5600780000000  0.4302130000000  0.5603830000000 1.0
C      1  0.4734400000000  0.4161240000000  0.5566310000000 1.0
C      1  0.4131220000000  0.4807520000000  0.5584660000000 1.0
C      1  0.4414410000000  0.5658870000000  0.5580700000000 1.0
C      1  0.5287370000000  0.5804020000000  0.5548560000000 1.0
C      1  0.5687500000000  0.4786580000000  0.4999310000000 1.0
C      1  0.5621690000000  0.5620360000000  0.4986060000000 1.0
C      1  0.4779800000000  0.5899680000000  0.5070960000000 1.0
C      1  0.4217620000000  0.5203490000000  0.4949420000000 1.0
C      1  0.4425480000000  0.4362310000000  0.4991520000000 1.0
C      1  0.5274700000000  0.4122780000000  0.5119920000000 1.0
C      1  0.4107140000000  0.4762790000000  0.4891650000000 1.0
C      1  0.4271020000000  0.5846380000000  0.4857820000000 1.0
C      1  0.5261680000000  0.5815000000000  0.4945510000000 1.0
C      1  0.5828450000000  0.5198610000000  0.5047230000000 1.0
C      1  0.5583790000000  0.4387780000000  0.4892200000000 1.0
C      1  0.4794390000000  0.4209800000000  0.4980790000000 1.0
C      1  0.5133780000000  0.5605700000000  0.4717500000000 1.0
C      1  0.4461490000000  0.5589930000000  0.4744620000000 1.0
C      1  0.4359390000000  0.4790730000000  0.4718430000000 1.0
C      1  0.4859620000000  0.4385460000000  0.4701540000000 1.0
C      1  0.5500790000000  0.4629370000000  0.4685480000000 1.0
C      1  0.5685900000000  0.5202090000000  0.4754290000000 1.0
C      1  0.4860320000000  0.5643750000000  0.5249210000000 1.0
C      1  0.5546320000000  0.5488030000000  0.5265650000000 1.0
C      1  0.5646650000000  0.4780940000000  0.5289970000000 1.0
C      1  0.5129040000000  0.4331240000000  0.5319510000000 1.0
C      1  0.4513050000000  0.4518310000000  0.5258620000000 1.0
C      1  0.4331990000000  0.5192030000000  0.5255130000000 1.0
C      1  0.4696500000000  0.4750880000000  0.5370400000000 1.0
C      1  0.5085630000000  0.4668480000000  0.5332230000000 1.0
C      1  0.5357040000000  0.4842780000000  0.5410000000000 1.0
C      1  0.5420490000000  0.5226350000000  0.5317250000000 1.0
C      1  0.4924790000000  0.5318230000000  0.5304840000000 1.0
C      1  0.4652500000000  0.5130360000000  0.5361860000000 1.0
C      1  0.5220270000000  0.4799810000000  0.4682820000000 1.0
C      1  0.4971290000000  0.4661150000000  0.4600380000000 1.0
C      1  0.4675030000000  0.4784560000000  0.4635530000000 1.0
C      1  0.4735720000000  0.5119690000000  0.4672160000000 1.0
C      1  0.4958670000000  0.5344310000000  0.4588020000000 1.0
C      1  0.5412930000000  0.5140830000000  0.4608720000000 1.0
C      1  0.5004870000000  0.5009250000000  0.4943880000000 1.0
END
