TITL C-2782237-5345-1276 -0.00081657543671242 125000 -838.563609502959 0 0 142 (C1) n - 1
REM
REM in /home/nfs/bkarasulu/CARBON/AIRSS/Generating-Clusters/REBO/Higher-Symm/SD-CG/HFTN-CG
REM
REM
REM
REM
REM
REM ./C.cell (12c818d87b63d06a65506943cc24bca4)
REM
REM compiler GCC version 9.2.1 20190827 (Red Hat 9.2.1-1)
REM options -cpp -mtune=generic -march=x86-64 -g -O0 -fpre-include=/usr/include/finclude/math-vector-fortran.h
REM seed 1831041431 209262530 -2133820514 1965567528 -2132713649 1648295253 876951176 296859482 2135842968 -378716473 524414361 1652867510 -1740459103 -158158273 -1875826401 1451022873 326889131 -600609238 -1445002867 1375749274 -627149018 1738793520 1411924365 -126286980 691301437 1935028832 748474772 -1711936645 710872177 -1694737820 841230420 2118126857 1739245803
REM
CELL 1.54180   50.00000   50.00000   50.00000   90.00000   90.00000   90.00000
LATT -1
SFAC C  
C      1  0.5168670000000  0.4806420000000  0.4887890000000 1.0
C      1  0.5150080000000  0.5193020000000  0.4796840000000 1.0
C      1  0.5146050000000  0.5269070000000  0.5112100000000 1.0
C      1  0.5198270000000  0.4881730000000  0.5199770000000 1.0
C      1  0.4844100000000  0.4822680000000  0.4845690000000 1.0
C      1  0.4846380000000  0.5137810000000  0.4746320000000 1.0
C      1  0.4860170000000  0.5182300000000  0.5210590000000 1.0
C      1  0.4883100000000  0.4875880000000  0.5192520000000 1.0
C      1  0.4650420000000  0.4138020000000  0.5001610000000 1.0
C      1  0.4598710000000  0.4994010000000  0.4121390000000 1.0
C      1  0.4661550000000  0.5873480000000  0.4977480000000 1.0
C      1  0.4640920000000  0.4951680000000  0.5855010000000 1.0
C      1  0.5358910000000  0.4156070000000  0.4880410000000 1.0
C      1  0.5285030000000  0.5054930000000  0.4131120000000 1.0
C      1  0.5406720000000  0.5908560000000  0.5120630000000 1.0
C      1  0.5348840000000  0.4983540000000  0.5857620000000 1.0
C      1  0.5101330000000  0.5310170000000  0.4384070000000 1.0
C      1  0.5157830000000  0.5658040000000  0.5307930000000 1.0
C      1  0.5149940000000  0.4777490000000  0.5581050000000 1.0
C      1  0.5087690000000  0.4432320000000  0.4780070000000 1.0
C      1  0.4815350000000  0.5229160000000  0.4359370000000 1.0
C      1  0.4859150000000  0.5617460000000  0.5324110000000 1.0
C      1  0.4880650000000  0.4784500000000  0.5581930000000 1.0
C      1  0.4829750000000  0.4422590000000  0.4786190000000 1.0
C      1  0.4300880000000  0.5645920000000  0.4670540000000 1.0
C      1  0.4308500000000  0.5396800000000  0.5663490000000 1.0
C      1  0.4379450000000  0.4335390000000  0.5339410000000 1.0
C      1  0.4358280000000  0.4642260000000  0.4333790000000 1.0
C      1  0.5648170000000  0.5661860000000  0.4684090000000 1.0
C      1  0.5608760000000  0.5290020000000  0.5704360000000 1.0
C      1  0.5545960000000  0.4370030000000  0.5348490000000 1.0
C      1  0.5597980000000  0.4690970000000  0.4348330000000 1.0
C      1  0.5862380000000  0.5215170000000  0.4788820000000 1.0
C      1  0.5835330000000  0.5207890000000  0.5250310000000 1.0
C      1  0.5828390000000  0.4744960000000  0.5244910000000 1.0
C      1  0.5851090000000  0.4744380000000  0.4780580000000 1.0
C      1  0.4100820000000  0.5203130000000  0.4770830000000 1.0
C      1  0.4098430000000  0.5209840000000  0.5240470000000 1.0
C      1  0.4164300000000  0.4764660000000  0.5242670000000 1.0
C      1  0.4155880000000  0.4751660000000  0.4771460000000 1.0
C      1  0.4838180000000  0.5783300000000  0.4518560000000 1.0
C      1  0.4774670000000  0.5643310000000  0.5655990000000 1.0
C      1  0.4823140000000  0.4094910000000  0.5488690000000 1.0
C      1  0.4816290000000  0.4539350000000  0.4088610000000 1.0
C      1  0.5087490000000  0.5650440000000  0.4428080000000 1.0
C      1  0.5094460000000  0.5625460000000  0.5644500000000 1.0
C      1  0.5075110000000  0.4104710000000  0.5602430000000 1.0
C      1  0.5116620000000  0.4577800000000  0.4099870000000 1.0
C      1  0.4830080000000  0.5954950000000  0.4754010000000 1.0
C      1  0.4741390000000  0.5152620000000  0.6024920000000 1.0
C      1  0.4804260000000  0.4010790000000  0.5213980000000 1.0
C      1  0.4721410000000  0.4793530000000  0.3959080000000 1.0
C      1  0.5284140000000  0.6092020000000  0.4949210000000 1.0
C      1  0.5238510000000  0.5180700000000  0.6023330000000 1.0
C      1  0.5274050000000  0.3962630000000  0.5063720000000 1.0
C      1  0.5175760000000  0.4841500000000  0.3976870000000 1.0
C      1  0.5651860000000  0.5324410000000  0.4394620000000 1.0
C      1  0.5697480000000  0.5632000000000  0.5362210000000 1.0
C      1  0.5733080000000  0.4619270000000  0.5692180000000 1.0
C      1  0.5627760000000  0.4359980000000  0.4649200000000 1.0
C      1  0.4356720000000  0.5339620000000  0.4420250000000 1.0
C      1  0.4366350000000  0.5574520000000  0.5304310000000 1.0
C      1  0.4350630000000  0.4671030000000  0.5659990000000 1.0
C      1  0.4363980000000  0.4349210000000  0.4659800000000 1.0
C      1  0.5471750000000  0.5281090000000  0.5013650000000 1.0
C      1  0.5482190000000  0.5013280000000  0.5224810000000 1.0
C      1  0.5498830000000  0.4787060000000  0.4961850000000 1.0
C      1  0.5448550000000  0.5055550000000  0.4754890000000 1.0
C      1  0.4585040000000  0.5246560000000  0.5026630000000 1.0
C      1  0.4509510000000  0.4999810000000  0.5252680000000 1.0
C      1  0.4529770000000  0.4785860000000  0.4988260000000 1.0
C      1  0.4522480000000  0.5041360000000  0.4759570000000 1.0
C      1  0.4787800000000  0.4583190000000  0.5250250000000 1.0
C      1  0.4812800000000  0.4732340000000  0.4534400000000 1.0
C      1  0.4859590000000  0.5464990000000  0.4787990000000 1.0
C      1  0.4865240000000  0.5276010000000  0.5527350000000 1.0
C      1  0.5115300000000  0.4551230000000  0.5191120000000 1.0
C      1  0.5134740000000  0.4772910000000  0.4575670000000 1.0
C      1  0.5192510000000  0.5517890000000  0.4802710000000 1.0
C      1  0.5179650000000  0.5278110000000  0.5430550000000 1.0
C      1  0.4704570000000  0.5567100000000  0.5034190000000 1.0
C      1  0.4659040000000  0.5020210000000  0.5537710000000 1.0
C      1  0.4627930000000  0.4460160000000  0.5024380000000 1.0
C      1  0.4639670000000  0.4974290000000  0.4445610000000 1.0
C      1  0.5357850000000  0.5601310000000  0.5051780000000 1.0
C      1  0.5343780000000  0.5031110000000  0.5538340000000 1.0
C      1  0.5363900000000  0.4471900000000  0.4972440000000 1.0
C      1  0.5282880000000  0.5030480000000  0.4456960000000 1.0
C      1  0.4167130000000  0.5469660000000  0.4854160000000 1.0
C      1  0.4203920000000  0.5158700000000  0.5510580000000 1.0
C      1  0.4251960000000  0.4505840000000  0.5152620000000 1.0
C      1  0.4235160000000  0.4838180000000  0.4507460000000 1.0
C      1  0.5785790000000  0.5482520000000  0.4869890000000 1.0
C      1  0.5751280000000  0.5118300000000  0.5515310000000 1.0
C      1  0.5717520000000  0.4494510000000  0.5157510000000 1.0
C      1  0.5765430000000  0.4843530000000  0.4523290000000 1.0
C      1  0.4476330000000  0.5662120000000  0.5676450000000 1.0
C      1  0.4591200000000  0.4258780000000  0.5584880000000 1.0
C      1  0.4576550000000  0.4394140000000  0.4247120000000 1.0
C      1  0.4528840000000  0.5699910000000  0.4427390000000 1.0
C      1  0.5409370000000  0.5561950000000  0.5761160000000 1.0
C      1  0.5354660000000  0.4257630000000  0.5611310000000 1.0
C      1  0.5355730000000  0.4473800000000  0.4247320000000 1.0
C      1  0.5423980000000  0.5713850000000  0.4431570000000 1.0
C      1  0.4531250000000  0.6009200000000  0.5196620000000 1.0
C      1  0.4616440000000  0.4688700000000  0.5956150000000 1.0
C      1  0.4603380000000  0.4039590000000  0.4734020000000 1.0
C      1  0.4579570000000  0.5259150000000  0.4011940000000 1.0
C      1  0.5491780000000  0.5973750000000  0.5380890000000 1.0
C      1  0.5344850000000  0.4705950000000  0.5929710000000 1.0
C      1  0.5356980000000  0.4070670000000  0.4610100000000 1.0
C      1  0.5343970000000  0.5315170000000  0.4027340000000 1.0
C      1  0.5373440000000  0.5407390000000  0.4548920000000 1.0
C      1  0.5410100000000  0.5507410000000  0.5436900000000 1.0
C      1  0.5275540000000  0.4534720000000  0.5461840000000 1.0
C      1  0.5327490000000  0.4501060000000  0.4572680000000 1.0
C      1  0.4662160000000  0.5425580000000  0.4541710000000 1.0
C      1  0.4591170000000  0.5417860000000  0.5383990000000 1.0
C      1  0.4644460000000  0.4572280000000  0.5522590000000 1.0
C      1  0.4654240000000  0.4475590000000  0.4542980000000 1.0
C      1  0.4402640000000  0.5857900000000  0.5407080000000 1.0
C      1  0.4488610000000  0.4433410000000  0.5857720000000 1.0
C      1  0.4504180000000  0.4124800000000  0.4448300000000 1.0
C      1  0.4498540000000  0.5468780000000  0.4179610000000 1.0
C      1  0.5586490000000  0.5813950000000  0.5615810000000 1.0
C      1  0.5494730000000  0.4506710000000  0.5794650000000 1.0
C      1  0.5495720000000  0.4200780000000  0.4379190000000 1.0
C      1  0.5501140000000  0.5493270000000  0.4182270000000 1.0
C      1  0.5748980000000  0.4490640000000  0.4866490000000 1.0
C      1  0.5790050000000  0.5128620000000  0.4531180000000 1.0
C      1  0.5800140000000  0.5474620000000  0.5157850000000 1.0
C      1  0.5785810000000  0.4829920000000  0.5511970000000 1.0
C      1  0.4246780000000  0.4500600000000  0.4864550000000 1.0
C      1  0.4211490000000  0.5127010000000  0.4523520000000 1.0
C      1  0.4171360000000  0.5462060000000  0.5138750000000 1.0
C      1  0.4227490000000  0.4865420000000  0.5502080000000 1.0
C      1  0.5053500000000  0.6117190000000  0.4810140000000 1.0
C      1  0.4985330000000  0.5250040000000  0.6094500000000 1.0
C      1  0.5031320000000  0.3861950000000  0.5132680000000 1.0
C      1  0.4946900000000  0.4901660000000  0.3806800000000 1.0
C      1  0.4079040000000  0.4974980000000  0.5007170000000 1.0
C      1  0.5888890000000  0.4976170000000  0.5018000000000 1.0
END
