TITL C-2782235-7892-438 -0.000962154944421813 125000 -348.723245927674 0 0 61 (C1) n - 1
REM
REM in /home/nfs/bkarasulu/CARBON/AIRSS/Generating-Clusters/REBO/Higher-Symm/SD-CG/HFTN-CG
REM
REM
REM
REM
REM
REM ./C.cell (12c818d87b63d06a65506943cc24bca4)
REM
REM compiler GCC version 9.2.1 20190827 (Red Hat 9.2.1-1)
REM options -cpp -mtune=generic -march=x86-64 -g -O0 -fpre-include=/usr/include/finclude/math-vector-fortran.h
REM seed -1348452880 -901285683 -1900721610 106054822 -161642352 591623115 12419254 -1470865800 -289146669 2088528526 -1860433928 -1500235568 1950394628 1612510182 -787167250 2084957383 -90242239 -567722736 621099444 1436099189 640435836 -470504086 -1153445861 -1739916400 -1202149694 427766565 -1100839051 -1788697579 -32390945 486757571 1960760006 -922979506 784094961
REM
CELL 1.54180   50.00000   50.00000   50.00000   90.00000   90.00000   90.00000
LATT -1
SFAC C  
C      1  0.4461860000000  0.5299730000000  0.5139290000000 1.0
C      1  0.5528320000000  0.4725800000000  0.5132770000000 1.0
C      1  0.4527610000000  0.5271440000000  0.4825420000000 1.0
C      1  0.5407470000000  0.4731090000000  0.4828730000000 1.0
C      1  0.5538570000000  0.5296520000000  0.5142300000000 1.0
C      1  0.4452640000000  0.4721140000000  0.5143650000000 1.0
C      1  0.5410840000000  0.5259680000000  0.4850860000000 1.0
C      1  0.4500640000000  0.4711180000000  0.4823880000000 1.0
C      1  0.4199660000000  0.4885720000000  0.5210500000000 1.0
C      1  0.5807090000000  0.5136040000000  0.5141230000000 1.0
C      1  0.4280730000000  0.4877180000000  0.4681770000000 1.0
C      1  0.5606520000000  0.5125730000000  0.4655700000000 1.0
C      1  0.5800880000000  0.4882430000000  0.5132350000000 1.0
C      1  0.4209680000000  0.5137940000000  0.5215820000000 1.0
C      1  0.5604920000000  0.4873900000000  0.4642300000000 1.0
C      1  0.4298200000000  0.5129050000000  0.4678760000000 1.0
C      1  0.4881300000000  0.5715900000000  0.4845500000000 1.0
C      1  0.5147310000000  0.4259740000000  0.4843600000000 1.0
C      1  0.4830530000000  0.5687320000000  0.5174600000000 1.0
C      1  0.5193770000000  0.4279020000000  0.5182410000000 1.0
C      1  0.5178100000000  0.5751980000000  0.4794660000000 1.0
C      1  0.4832560000000  0.4266350000000  0.4806260000000 1.0
C      1  0.5158430000000  0.5703260000000  0.5133110000000 1.0
C      1  0.4884580000000  0.4303910000000  0.5139200000000 1.0
C      1  0.5288470000000  0.4431450000000  0.5471770000000 1.0
C      1  0.4722870000000  0.5454520000000  0.5398170000000 1.0
C      1  0.5305960000000  0.4426350000000  0.4591050000000 1.0
C      1  0.4748880000000  0.5521690000000  0.4607700000000 1.0
C      1  0.4748300000000  0.4533040000000  0.5332030000000 1.0
C      1  0.5257610000000  0.5586240000000  0.5438630000000 1.0
C      1  0.4762810000000  0.4415290000000  0.4510890000000 1.0
C      1  0.5301150000000  0.5523720000000  0.4573720000000 1.0
C      1  0.4894430000000  0.4737500000000  0.5542570000000 1.0
C      1  0.5194180000000  0.5304740000000  0.5559210000000 1.0
C      1  0.4889440000000  0.4693740000000  0.4471740000000 1.0
C      1  0.5196550000000  0.5280590000000  0.4461230000000 1.0
C      1  0.5194690000000  0.4715950000000  0.5548660000000 1.0
C      1  0.4889490000000  0.5276920000000  0.5594720000000 1.0
C      1  0.5207100000000  0.4697370000000  0.4485310000000 1.0
C      1  0.4895100000000  0.5275770000000  0.4474090000000 1.0
C      1  0.4727390000000  0.5150030000000  0.5252530000000 1.0
C      1  0.5355880000000  0.4882330000000  0.5330180000000 1.0
C      1  0.4795430000000  0.5144220000000  0.4755700000000 1.0
C      1  0.5105710000000  0.4855230000000  0.4766720000000 1.0
C      1  0.5360020000000  0.5144590000000  0.5336120000000 1.0
C      1  0.4685720000000  0.4867700000000  0.5312610000000 1.0
C      1  0.5127030000000  0.5157640000000  0.4858120000000 1.0
C      1  0.4769560000000  0.4828930000000  0.4747760000000 1.0
C      1  0.4567900000000  0.5591850000000  0.4888930000000 1.0
C      1  0.5440730000000  0.4413880000000  0.4900470000000 1.0
C      1  0.4497700000000  0.5622750000000  0.5209740000000 1.0
C      1  0.5505510000000  0.4414090000000  0.5218490000000 1.0
C      1  0.5444860000000  0.5581680000000  0.4879230000000 1.0
C      1  0.4524750000000  0.4398010000000  0.4744990000000 1.0
C      1  0.5482920000000  0.5608890000000  0.5199390000000 1.0
C      1  0.4566670000000  0.4407700000000  0.5072920000000 1.0
C      1  0.5294460000000  0.5021360000000  0.4429180000000 1.0
C      1  0.4798000000000  0.5023230000000  0.5663120000000 1.0
C      1  0.5282260000000  0.5007350000000  0.5701980000000 1.0
C      1  0.4776160000000  0.4987130000000  0.4380700000000 1.0
C      1  0.4974740000000  0.5200720000000  0.5108190000000 1.0
END
