TITL C-2782227-3064-548 0.000786610810815659 125000 -376.90563837674 0 0 65 (C1) n - 1
REM
REM in /home/nfs/bkarasulu/CARBON/AIRSS/Generating-Clusters/REBO/Higher-Symm/SD-CG/HFTN-CG
REM
REM
REM
REM
REM
REM ./C.cell (12c818d87b63d06a65506943cc24bca4)
REM
REM compiler GCC version 9.2.1 20190827 (Red Hat 9.2.1-1)
REM options -cpp -mtune=generic -march=x86-64 -g -O0 -fpre-include=/usr/include/finclude/math-vector-fortran.h
REM seed -719781490 1795209405 35960682 -1693606043 -68606978 -291748464 -1889850295 -2042931406 293286678 1748619412 -1580333495 149403056 1849237202 -538773482 -1914236830 -1822432357 1385271848 -1509581952 -2054718853 -1262977738 307547304 -854548804 7722522 65883162 -1812473844 1817316067 1549292942 901049025 266814926 1627336614 -375098047 1916220583 -1694855315
REM
CELL 1.54180   50.00000   50.00000   50.00000   90.00000   90.00000   90.00000
LATT -1
SFAC C  
C      1  0.5015700000000  0.4561690000000  0.4636760000000 1.0
C      1  0.4737170000000  0.4358980000000  0.4600800000000 1.0
C      1  0.4284450000000  0.4745610000000  0.5281230000000 1.0
C      1  0.4893250000000  0.4410070000000  0.5040140000000 1.0
C      1  0.5995990000000  0.4815510000000  0.4927510000000 1.0
C      1  0.4535010000000  0.4666360000000  0.5198740000000 1.0
C      1  0.4731880000000  0.5230330000000  0.4689110000000 1.0
C      1  0.5036540000000  0.5318720000000  0.5087980000000 1.0
C      1  0.5495000000000  0.4788290000000  0.5550150000000 1.0
C      1  0.5935540000000  0.5024680000000  0.4763290000000 1.0
C      1  0.4889110000000  0.4760080000000  0.4414800000000 1.0
C      1  0.5212560000000  0.5245780000000  0.4423700000000 1.0
C      1  0.5464050000000  0.5543760000000  0.5177230000000 1.0
C      1  0.5141150000000  0.4840160000000  0.4787100000000 1.0
C      1  0.4311870000000  0.5057880000000  0.4731400000000 1.0
C      1  0.4385720000000  0.4830410000000  0.4582470000000 1.0
C      1  0.4886780000000  0.5270420000000  0.5483700000000 1.0
C      1  0.4295740000000  0.5232720000000  0.4934900000000 1.0
C      1  0.5418970000000  0.4948980000000  0.4902100000000 1.0
C      1  0.5768390000000  0.4685790000000  0.5035740000000 1.0
C      1  0.5655820000000  0.4796390000000  0.5272890000000 1.0
C      1  0.4964260000000  0.4166460000000  0.4642630000000 1.0
C      1  0.3803790000000  0.4897620000000  0.5439480000000 1.0
C      1  0.4721720000000  0.5539620000000  0.5509780000000 1.0
C      1  0.5206330000000  0.4305780000000  0.4748490000000 1.0
C      1  0.5638710000000  0.5104080000000  0.4747190000000 1.0
C      1  0.5518780000000  0.5223750000000  0.4461780000000 1.0
C      1  0.5177570000000  0.4761550000000  0.5310310000000 1.0
C      1  0.5099080000000  0.5155690000000  0.5606040000000 1.0
C      1  0.5038880000000  0.5460870000000  0.4560380000000 1.0
C      1  0.5297050000000  0.5265970000000  0.5276530000000 1.0
C      1  0.4624770000000  0.4817510000000  0.4431460000000 1.0
C      1  0.4900760000000  0.4773730000000  0.5783990000000 1.0
C      1  0.5383870000000  0.4526710000000  0.5393500000000 1.0
C      1  0.5016870000000  0.5072160000000  0.4650130000000 1.0
C      1  0.4605230000000  0.4436180000000  0.5039810000000 1.0
C      1  0.5428150000000  0.5560530000000  0.4890440000000 1.0
C      1  0.4717170000000  0.5466220000000  0.4443060000000 1.0
C      1  0.4446240000000  0.5492570000000  0.5372290000000 1.0
C      1  0.4718290000000  0.5322370000000  0.4964070000000 1.0
C      1  0.4510550000000  0.4402210000000  0.4770610000000 1.0
C      1  0.4304420000000  0.4574320000000  0.4677940000000 1.0
C      1  0.5601870000000  0.5431530000000  0.4711590000000 1.0
C      1  0.4710930000000  0.5791170000000  0.6006910000000 1.0
C      1  0.4804250000000  0.5637760000000  0.5031190000000 1.0
C      1  0.5101340000000  0.4956230000000  0.4280780000000 1.0
C      1  0.4791090000000  0.4834100000000  0.5243260000000 1.0
C      1  0.4042200000000  0.4822220000000  0.5360990000000 1.0
C      1  0.5023570000000  0.4695050000000  0.5043440000000 1.0
C      1  0.4798460000000  0.5635230000000  0.4728670000000 1.0
C      1  0.4919870000000  0.5652090000000  0.5292280000000 1.0
C      1  0.5512000000000  0.4718740000000  0.4588660000000 1.0
C      1  0.4944400000000  0.4785460000000  0.5530370000000 1.0
C      1  0.5410540000000  0.4903740000000  0.4415630000000 1.0
C      1  0.5190190000000  0.5587780000000  0.5339110000000 1.0
C      1  0.4831700000000  0.5152600000000  0.4368960000000 1.0
C      1  0.5582150000000  0.4584520000000  0.4832770000000 1.0
C      1  0.5387440000000  0.4989260000000  0.5221730000000 1.0
C      1  0.5420530000000  0.4325830000000  0.5201720000000 1.0
C      1  0.5312890000000  0.4989710000000  0.5634740000000 1.0
C      1  0.4715870000000  0.5675970000000  0.5779250000000 1.0
C      1  0.5150850000000  0.5496190000000  0.4850670000000 1.0
C      1  0.4786180000000  0.5128210000000  0.5217770000000 1.0
C      1  0.4333580000000  0.5377610000000  0.5157920000000 1.0
C      1  0.5414960000000  0.4370520000000  0.4919940000000 1.0
END
