TITL C-2782238-9940-867 -0.00169355998033123 125000 -943.409436322845 0 0 165 (C1) n - 1
REM
REM in /home/nfs/bkarasulu/CARBON/AIRSS/Generating-Clusters/REBO/Higher-Symm/SD-CG/HFTN-CG
REM
REM
REM
REM
REM
REM ./C.cell (12c818d87b63d06a65506943cc24bca4)
REM
REM compiler GCC version 9.2.1 20190827 (Red Hat 9.2.1-1)
REM options -cpp -mtune=generic -march=x86-64 -g -O0 -fpre-include=/usr/include/finclude/math-vector-fortran.h
REM seed -4865657 -1141944989 996701564 -1440189256 1748790915 -2039705600 1077761811 -1358188465 -881659451 684905261 1460596969 -2071615762 -1396863446 683130428 -1219212725 759889457 509825145 -1844985843 2055395601 650216898 -448814049 2143451758 256028952 194437814 1272960504 -392017701 -1704800484 1357185682 -1445470616 1137356199 1484963486 904861694 -1732068726
REM
CELL 1.54180   50.00000   50.00000   50.00000   90.00000   90.00000   90.00000
LATT -1
SFAC C  
C      1  0.4595010000000  0.4880530000000  0.4579110000000 1.0
C      1  0.4832750000000  0.4889890000000  0.5597830000000 1.0
C      1  0.5519960000000  0.4805520000000  0.4907240000000 1.0
C      1  0.4612060000000  0.5196850000000  0.4650280000000 1.0
C      1  0.4835080000000  0.5212180000000  0.5562740000000 1.0
C      1  0.5539270000000  0.5134990000000  0.4955100000000 1.0
C      1  0.5361960000000  0.4768790000000  0.4606410000000 1.0
C      1  0.5155610000000  0.4802150000000  0.5550980000000 1.0
C      1  0.4475240000000  0.4905080000000  0.4900670000000 1.0
C      1  0.5429960000000  0.5082370000000  0.4635230000000 1.0
C      1  0.5155200000000  0.5123090000000  0.5600400000000 1.0
C      1  0.4444100000000  0.5232680000000  0.4936030000000 1.0
C      1  0.5880750000000  0.4349700000000  0.5181260000000 1.0
C      1  0.4833590000000  0.4399800000000  0.4195760000000 1.0
C      1  0.4347120000000  0.4442630000000  0.5508810000000 1.0
C      1  0.5862670000000  0.5668580000000  0.5270810000000 1.0
C      1  0.4869160000000  0.5581680000000  0.4209800000000 1.0
C      1  0.4294030000000  0.5583470000000  0.5495090000000 1.0
C      1  0.4129370000000  0.4353950000000  0.5258380000000 1.0
C      1  0.5170070000000  0.4379610000000  0.4132620000000 1.0
C      1  0.5700290000000  0.4432530000000  0.5458580000000 1.0
C      1  0.4101370000000  0.5662440000000  0.5223310000000 1.0
C      1  0.5206960000000  0.5539330000000  0.4207110000000 1.0
C      1  0.5648530000000  0.5583890000000  0.5531310000000 1.0
C      1  0.4576960000000  0.5455040000000  0.4204630000000 1.0
C      1  0.4490010000000  0.5476000000000  0.5731320000000 1.0
C      1  0.5952250000000  0.5499070000000  0.4987400000000 1.0
C      1  0.4516300000000  0.4479500000000  0.4172380000000 1.0
C      1  0.4531390000000  0.4565360000000  0.5748510000000 1.0
C      1  0.5966510000000  0.4520460000000  0.4898300000000 1.0
C      1  0.5514680000000  0.5471380000000  0.4199510000000 1.0
C      1  0.5458470000000  0.5461130000000  0.5767850000000 1.0
C      1  0.4017710000000  0.5488030000000  0.4940890000000 1.0
C      1  0.5459230000000  0.4503880000000  0.4155070000000 1.0
C      1  0.5510260000000  0.4543370000000  0.5704320000000 1.0
C      1  0.4052600000000  0.4504380000000  0.4962960000000 1.0
C      1  0.5625710000000  0.5860400000000  0.5220620000000 1.0
C      1  0.4837600000000  0.5832080000000  0.4390650000000 1.0
C      1  0.4506810000000  0.5826520000000  0.5471790000000 1.0
C      1  0.5617530000000  0.4167640000000  0.5171210000000 1.0
C      1  0.4840460000000  0.4175800000000  0.4423140000000 1.0
C      1  0.4541420000000  0.4182750000000  0.5459480000000 1.0
C      1  0.4362950000000  0.5844320000000  0.5200500000000 1.0
C      1  0.5151180000000  0.5786230000000  0.4405910000000 1.0
C      1  0.5446730000000  0.5831860000000  0.5458040000000 1.0
C      1  0.4355680000000  0.4144680000000  0.5222100000000 1.0
C      1  0.5130120000000  0.4178590000000  0.4369240000000 1.0
C      1  0.5482530000000  0.4192860000000  0.5451350000000 1.0
C      1  0.5631010000000  0.4836010000000  0.5799080000000 1.0
C      1  0.5455430000000  0.4826020000000  0.4049010000000 1.0
C      1  0.3955390000000  0.4834120000000  0.5015710000000 1.0
C      1  0.5557610000000  0.5163830000000  0.5858960000000 1.0
C      1  0.5547290000000  0.5151250000000  0.4100930000000 1.0
C      1  0.3887850000000  0.5172830000000  0.5001370000000 1.0
C      1  0.4440010000000  0.4864190000000  0.5856820000000 1.0
C      1  0.4490330000000  0.4798960000000  0.4058360000000 1.0
C      1  0.6067960000000  0.4849210000000  0.4941090000000 1.0
C      1  0.4376630000000  0.5196270000000  0.5837180000000 1.0
C      1  0.4575200000000  0.5131740000000  0.4092590000000 1.0
C      1  0.6072690000000  0.5178230000000  0.5044620000000 1.0
C      1  0.5275340000000  0.4622160000000  0.4967880000000 1.0
C      1  0.4791160000000  0.4723160000000  0.4741520000000 1.0
C      1  0.4837070000000  0.4753440000000  0.5316390000000 1.0
C      1  0.5327190000000  0.5334100000000  0.5077440000000 1.0
C      1  0.4898800000000  0.5315760000000  0.4718310000000 1.0
C      1  0.4820970000000  0.5325570000000  0.5277830000000 1.0
C      1  0.4666790000000  0.4674900000000  0.5054380000000 1.0
C      1  0.5085960000000  0.4656100000000  0.4689710000000 1.0
C      1  0.5167270000000  0.4687690000000  0.5264560000000 1.0
C      1  0.4707640000000  0.5387410000000  0.4987380000000 1.0
C      1  0.5206560000000  0.5251150000000  0.4769340000000 1.0
C      1  0.5152030000000  0.5263410000000  0.5327200000000 1.0
C      1  0.5784570000000  0.4660560000000  0.5142730000000 1.0
C      1  0.4799890000000  0.4724590000000  0.4295970000000 1.0
C      1  0.4429670000000  0.4768080000000  0.5421550000000 1.0
C      1  0.5774680000000  0.5359580000000  0.5228530000000 1.0
C      1  0.4921880000000  0.5263820000000  0.4241630000000 1.0
C      1  0.4339650000000  0.5246250000000  0.5443020000000 1.0
C      1  0.4263650000000  0.4648230000000  0.5178190000000 1.0
C      1  0.5108180000000  0.4688750000000  0.4187900000000 1.0
C      1  0.5647300000000  0.4767930000000  0.5405960000000 1.0
C      1  0.4184770000000  0.5350040000000  0.5192320000000 1.0
C      1  0.5236350000000  0.5223800000000  0.4337330000000 1.0
C      1  0.5609700000000  0.5245110000000  0.5470740000000 1.0
C      1  0.5124630000000  0.5579940000000  0.5318210000000 1.0
C      1  0.5198390000000  0.5570570000000  0.4783100000000 1.0
C      1  0.4694070000000  0.5722120000000  0.4986790000000 1.0
C      1  0.5178680000000  0.4365050000000  0.5256360000000 1.0
C      1  0.5095930000000  0.4341150000000  0.4730090000000 1.0
C      1  0.4673790000000  0.4333580000000  0.5071030000000 1.0
C      1  0.4808070000000  0.5647990000000  0.5271020000000 1.0
C      1  0.4886280000000  0.5643710000000  0.4738260000000 1.0
C      1  0.5306740000000  0.5672070000000  0.5072170000000 1.0
C      1  0.4862190000000  0.4435560000000  0.5307650000000 1.0
C      1  0.4783320000000  0.4410810000000  0.4777740000000 1.0
C      1  0.5288760000000  0.4281410000000  0.4974590000000 1.0
C      1  0.4363770000000  0.5907420000000  0.4868670000000 1.0
C      1  0.5157610000000  0.5831320000000  0.5625210000000 1.0
C      1  0.5439240000000  0.5817970000000  0.4584780000000 1.0
C      1  0.4418670000000  0.4088690000000  0.4892490000000 1.0
C      1  0.5171600000000  0.4146160000000  0.5583600000000 1.0
C      1  0.5404900000000  0.4147090000000  0.4567890000000 1.0
C      1  0.5568900000000  0.5906160000000  0.4888910000000 1.0
C      1  0.4821670000000  0.5874490000000  0.5592370000000 1.0
C      1  0.4572420000000  0.5848310000000  0.4603810000000 1.0
C      1  0.5611360000000  0.4096910000000  0.4838150000000 1.0
C      1  0.4836070000000  0.4191670000000  0.5621570000000 1.0
C      1  0.4556280000000  0.4145320000000  0.4584730000000 1.0
C      1  0.5651970000000  0.5167530000000  0.4418350000000 1.0
C      1  0.4149010000000  0.5130340000000  0.4824210000000 1.0
C      1  0.5223550000000  0.5174410000000  0.5914050000000 1.0
C      1  0.5575930000000  0.4842620000000  0.4352620000000 1.0
C      1  0.4189670000000  0.4823960000000  0.4773520000000 1.0
C      1  0.5297320000000  0.4847630000000  0.5850660000000 1.0
C      1  0.4401490000000  0.5166260000000  0.4383690000000 1.0
C      1  0.5839830000000  0.5154920000000  0.4822540000000 1.0
C      1  0.4705310000000  0.5163380000000  0.5859930000000 1.0
C      1  0.4368190000000  0.4830010000000  0.4354510000000 1.0
C      1  0.5796520000000  0.4846370000000  0.4746930000000 1.0
C      1  0.4774020000000  0.4834080000000  0.5914610000000 1.0
C      1  0.4042510000000  0.4831490000000  0.5349440000000 1.0
C      1  0.5909920000000  0.4840520000000  0.5602560000000 1.0
C      1  0.5145490000000  0.4849830000000  0.3909470000000 1.0
C      1  0.3970650000000  0.5141470000000  0.5331570000000 1.0
C      1  0.5850540000000  0.5151700000000  0.5690200000000 1.0
C      1  0.5221250000000  0.5156090000000  0.4000130000000 1.0
C      1  0.6014420000000  0.4858580000000  0.5277670000000 1.0
C      1  0.4180140000000  0.4773530000000  0.5655740000000 1.0
C      1  0.4808620000000  0.4832160000000  0.3967720000000 1.0
C      1  0.5988420000000  0.5160780000000  0.5378130000000 1.0
C      1  0.4117770000000  0.5098680000000  0.5637410000000 1.0
C      1  0.4883190000000  0.5146290000000  0.3944140000000 1.0
C      1  0.4781240000000  0.4459770000000  0.5773930000000 1.0
C      1  0.5777870000000  0.4333460000000  0.4685720000000 1.0
C      1  0.4372090000000  0.4363890000000  0.4422430000000 1.0
C      1  0.4735070000000  0.5587400000000  0.5754480000000 1.0
C      1  0.5768070000000  0.5667160000000  0.4755410000000 1.0
C      1  0.4424310000000  0.5577070000000  0.4457490000000 1.0
C      1  0.5266990000000  0.4432830000000  0.5740320000000 1.0
C      1  0.4234140000000  0.4327750000000  0.4734940000000 1.0
C      1  0.5589050000000  0.4384600000000  0.4405770000000 1.0
C      1  0.5209850000000  0.5568090000000  0.5787520000000 1.0
C      1  0.4223170000000  0.5652170000000  0.4724870000000 1.0
C      1  0.5642650000000  0.5598440000000  0.4444560000000 1.0
C      1  0.5294070000000  0.6009880000000  0.5066680000000 1.0
C      1  0.4860440000000  0.5985680000000  0.4739790000000 1.0
C      1  0.4789510000000  0.5991740000000  0.5265890000000 1.0
C      1  0.5339710000000  0.3950890000000  0.4984000000000 1.0
C      1  0.4811440000000  0.4070430000000  0.4799210000000 1.0
C      1  0.4891410000000  0.4092810000000  0.5303520000000 1.0
C      1  0.4648700000000  0.6051690000000  0.4986160000000 1.0
C      1  0.5177080000000  0.5912900000000  0.4781300000000 1.0
C      1  0.5096530000000  0.5921570000000  0.5302430000000 1.0
C      1  0.4689960000000  0.3993100000000  0.5081890000000 1.0
C      1  0.5133260000000  0.4008580000000  0.4728520000000 1.0
C      1  0.5195630000000  0.4019100000000  0.5260720000000 1.0
C      1  0.4959630000000  0.5389140000000  0.5898520000000 1.0
C      1  0.4238780000000  0.5334430000000  0.4608800000000 1.0
C      1  0.5041050000000  0.4624430000000  0.5889830000000 1.0
C      1  0.5767580000000  0.4636210000000  0.4530680000000 1.0
C      1  0.5825430000000  0.5367510000000  0.4603800000000 1.0
C      1  0.4219750000000  0.4620960000000  0.4560040000000 1.0
C      1  0.5022180000000  0.4964390000000  0.4369540000000 1.0
C      1  0.4526240000000  0.5032940000000  0.5384990000000 1.0
C      1  0.5478400000000  0.4997530000000  0.5401700000000 1.0
END
