TITL C-2782232-2968-1376 -0.00135071725049693 125000 -300.173928254913 0 0 51 (C3) n - 1
REM
REM in /home/nfs/bkarasulu/CARBON/AIRSS/Generating-Clusters/REBO/Higher-Symm/SD-CG/HFTN-CG
REM
REM
REM
REM
REM
REM ./C.cell (12c818d87b63d06a65506943cc24bca4)
REM
REM compiler GCC version 9.2.1 20190827 (Red Hat 9.2.1-1)
REM options -cpp -mtune=generic -march=x86-64 -g -O0 -fpre-include=/usr/include/finclude/math-vector-fortran.h
REM seed -1688548458 717846193 -736720004 677498295 1865332069 -792930660 1273233293 -2019269568 -954631577 -1356612375 1608376163 -283374283 -1165470354 1406733114 -1356641650 811234081 1498344174 -1651891773 942797092 -829156275 -812859998 -1431862232 316881806 -464026856 182026541 -1649263807 -1845028057 614148396 709979937 -504141 -1642218719 1989620206 -1413119031
REM
CELL 1.54180   50.00000   50.00000   50.00000   90.00000   90.00000   90.00000
LATT -1
SFAC C  
C      1  0.5162630000000  0.4917260000000  0.5168750000000 1.0
C      1  0.4846920000000  0.4900560000000  0.5168670000000 1.0
C      1  0.4990320000000  0.5182330000000  0.5168630000000 1.0
C      1  0.5156920000000  0.5087550000000  0.4809200000000 1.0
C      1  0.4845740000000  0.5092010000000  0.4809120000000 1.0
C      1  0.4997470000000  0.4820290000000  0.4809230000000 1.0
C      1  0.5258640000000  0.4676760000000  0.4544120000000 1.0
C      1  0.4591020000000  0.4937550000000  0.4543880000000 1.0
C      1  0.5150680000000  0.5385330000000  0.4543900000000 1.0
C      1  0.5254330000000  0.5312510000000  0.5439360000000 1.0
C      1  0.4602130000000  0.5064280000000  0.5439270000000 1.0
C      1  0.5143200000000  0.4623580000000  0.5439520000000 1.0
C      1  0.4896540000000  0.4690040000000  0.5571990000000 1.0
C      1  0.4782940000000  0.5244690000000  0.5571820000000 1.0
C      1  0.5320080000000  0.5065750000000  0.5572000000000 1.0
C      1  0.4895430000000  0.5315960000000  0.4431070000000 1.0
C      1  0.4778730000000  0.4751110000000  0.4431200000000 1.0
C      1  0.5326260000000  0.4932470000000  0.4431280000000 1.0
C      1  0.4515070000000  0.5653550000000  0.4883460000000 1.0
C      1  0.5808520000000  0.5093170000000  0.4883940000000 1.0
C      1  0.4676480000000  0.4253190000000  0.4883880000000 1.0
C      1  0.4548240000000  0.4346610000000  0.5109880000000 1.0
C      1  0.5791710000000  0.4935530000000  0.5110030000000 1.0
C      1  0.4659960000000  0.5717950000000  0.5109530000000 1.0
C      1  0.4985030000000  0.5429760000000  0.5481650000000 1.0
C      1  0.5379370000000  0.4798180000000  0.5481920000000 1.0
C      1  0.4635230000000  0.4772460000000  0.5481740000000 1.0
C      1  0.4986370000000  0.4563850000000  0.4502820000000 1.0
C      1  0.5384590000000  0.5205970000000  0.4502750000000 1.0
C      1  0.4629400000000  0.5229780000000  0.4502550000000 1.0
C      1  0.5376440000000  0.4619640000000  0.4802210000000 1.0
C      1  0.4482500000000  0.4864140000000  0.4801920000000 1.0
C      1  0.5141200000000  0.5516070000000  0.4801900000000 1.0
C      1  0.5394540000000  0.5369260000000  0.5195070000000 1.0
C      1  0.4482910000000  0.5157180000000  0.5194900000000 1.0
C      1  0.5122390000000  0.4473730000000  0.5195240000000 1.0
C      1  0.5420180000000  0.5168320000000  0.4941230000000 1.0
C      1  0.4935710000000  0.4551940000000  0.4941270000000 1.0
C      1  0.4644140000000  0.5279700000000  0.4941000000000 1.0
C      1  0.5419440000000  0.4849520000000  0.4993390000000 1.0
C      1  0.4920600000000  0.5438480000000  0.4993100000000 1.0
C      1  0.4659960000000  0.4712000000000  0.4993240000000 1.0
C      1  0.4487200000000  0.5415040000000  0.4699090000000 1.0
C      1  0.5616010000000  0.5236530000000  0.4699420000000 1.0
C      1  0.4897010000000  0.4348200000000  0.4699480000000 1.0
C      1  0.4534160000000  0.4604360000000  0.5269600000000 1.0
C      1  0.5575520000000  0.4794560000000  0.5269810000000 1.0
C      1  0.4890110000000  0.5601300000000  0.5269420000000 1.0
C      1  0.4325390000000  0.5040130000000  0.4964060000000 1.0
C      1  0.5302560000000  0.4395690000000  0.4964480000000 1.0
C      1  0.5372070000000  0.5564160000000  0.4964180000000 1.0
END
