TITL C-2782230-7391-2 -0.000284656985037249 125000 -193.49208292346 0 0 36 (C2) n - 1
REM
REM in /home/nfs/bkarasulu/CARBON/AIRSS/Generating-Clusters/REBO/Higher-Symm/SD-CG/HFTN-CG
REM
REM
REM
REM
REM
REM ./C.cell (12c818d87b63d06a65506943cc24bca4)
REM
REM compiler GCC version 9.2.1 20190827 (Red Hat 9.2.1-1)
REM options -cpp -mtune=generic -march=x86-64 -g -O0 -fpre-include=/usr/include/finclude/math-vector-fortran.h
REM seed -181456103 -52570426 -1117660831 107697537 1936463862 -1515768400 -661560499 -1545801963 -1609793350 840047211 866742746 -1661748162 296210906 -1135189802 1171292937 1055328907 305967783 -1493234933 520441757 255134292 851490188 -121024325 625454397 1177499352 -1275406644 667897130 1396155718 924726147 1381144718 -1070436612 -1798256652 -665737273 1108429513
REM
CELL 1.54180   50.00000   50.00000   50.00000   90.00000   90.00000   90.00000
LATT -1
SFAC C  
C      1  0.4554330000000  0.5400110000000  0.5180990000000 1.0
C      1  0.4588790000000  0.4554080000000  0.4832170000000 1.0
C      1  0.5442870000000  0.4599610000000  0.5187160000000 1.0
C      1  0.5413720000000  0.5446170000000  0.4839130000000 1.0
C      1  0.4580200000000  0.5171650000000  0.5429280000000 1.0
C      1  0.4572300000000  0.4831450000000  0.4640760000000 1.0
C      1  0.5433120000000  0.5169090000000  0.4647570000000 1.0
C      1  0.5413210000000  0.4827700000000  0.5435370000000 1.0
C      1  0.5709480000000  0.4699940000000  0.5006990000000 1.0
C      1  0.5587250000000  0.5213440000000  0.5013120000000 1.0
C      1  0.4290490000000  0.5300060000000  0.4996630000000 1.0
C      1  0.4412620000000  0.4786550000000  0.5003840000000 1.0
C      1  0.5631670000000  0.4947880000000  0.4811830000000 1.0
C      1  0.5635250000000  0.4949230000000  0.5210540000000 1.0
C      1  0.4361620000000  0.5050460000000  0.5200910000000 1.0
C      1  0.4371270000000  0.5052410000000  0.4802310000000 1.0
C      1  0.5397290000000  0.5145960000000  0.5357160000000 1.0
C      1  0.5377930000000  0.4847030000000  0.4608280000000 1.0
C      1  0.4597320000000  0.4853510000000  0.5350840000000 1.0
C      1  0.4628080000000  0.5153570000000  0.4602800000000 1.0
C      1  0.5368910000000  0.5426830000000  0.5164600000000 1.0
C      1  0.5418000000000  0.4613240000000  0.4854350000000 1.0
C      1  0.4584260000000  0.5386990000000  0.4848580000000 1.0
C      1  0.4628630000000  0.4572930000000  0.5158310000000 1.0
C      1  0.5135990000000  0.4556620000000  0.4728200000000 1.0
C      1  0.5088910000000  0.5551760000000  0.5268940000000 1.0
C      1  0.4868170000000  0.5443790000000  0.4726830000000 1.0
C      1  0.4907010000000  0.4447830000000  0.5266720000000 1.0
C      1  0.5097360000000  0.4760580000000  0.4477920000000 1.0
C      1  0.5120670000000  0.5274100000000  0.5432820000000 1.0
C      1  0.4872750000000  0.4725240000000  0.5430520000000 1.0
C      1  0.4910600000000  0.5240220000000  0.4476860000000 1.0
C      1  0.4815410000000  0.5395020000000  0.5382240000000 1.0
C      1  0.5178750000000  0.4604400000000  0.5384410000000 1.0
C      1  0.5177970000000  0.5376620000000  0.4622150000000 1.0
C      1  0.4827820000000  0.4623960000000  0.4618910000000 1.0
END
