TITL C-2782228-2999-288 0.109970605825562 125000 -333.060801009629 0 0 58 (C1) n - 1
REM
REM in /home/nfs/bkarasulu/CARBON/AIRSS/Generating-Clusters/REBO/Higher-Symm/SD-CG/HFTN-CG
REM
REM
REM
REM
REM
REM ./C.cell (12c818d87b63d06a65506943cc24bca4)
REM
REM compiler GCC version 9.2.1 20190827 (Red Hat 9.2.1-1)
REM options -cpp -mtune=generic -march=x86-64 -g -O0 -fpre-include=/usr/include/finclude/math-vector-fortran.h
REM seed 1452183177 -1808936811 -1631592052 -1935719187 -1095899422 -1719311229 191368477 855346306 -319113938 -2069339814 1326283075 -999444812 -1887808597 -138472562 1658556511 1196871473 -1785241948 1882201642 1476754369 1196046986 1965034234 35064355 -1220780632 -1078039798 557103760 -533160925 67209466 660796990 -325559461 -1221686337 1163034703 -535280573 298756805
REM
CELL 1.54180   50.00000   50.00000   50.00000   90.00000   90.00000   90.00000
LATT -1
SFAC C  
C      1  0.5426770000000  0.4528470000000  0.5601970000000 1.0
C      1  0.5073150000000  0.5153790000000  0.4847540000000 1.0
C      1  0.4892370000000  0.5204480000000  0.5123450000000 1.0
C      1  0.4757580000000  0.5068790000000  0.4474310000000 1.0
C      1  0.4709940000000  0.5669690000000  0.4574410000000 1.0
C      1  0.4793550000000  0.4941600000000  0.5224190000000 1.0
C      1  0.5066370000000  0.4840280000000  0.4759090000000 1.0
C      1  0.5184860000000  0.5305630000000  0.5657990000000 1.0
C      1  0.5385050000000  0.4802500000000  0.5685570000000 1.0
C      1  0.4496540000000  0.5066580000000  0.5460630000000 1.0
C      1  0.5097000000000  0.4905240000000  0.5577910000000 1.0
C      1  0.5269050000000  0.5533290000000  0.4709610000000 1.0
C      1  0.4524380000000  0.5475290000000  0.4639530000000 1.0
C      1  0.5423720000000  0.5131190000000  0.5618140000000 1.0
C      1  0.4396670000000  0.4987320000000  0.5208450000000 1.0
C      1  0.5349830000000  0.4439470000000  0.5335460000000 1.0
C      1  0.4850010000000  0.5398600000000  0.4856080000000 1.0
C      1  0.5557550000000  0.5231710000000  0.5043580000000 1.0
C      1  0.4946490000000  0.5144000000000  0.5756780000000 1.0
C      1  0.4856710000000  0.5437480000000  0.5324610000000 1.0
C      1  0.4954970000000  0.4227490000000  0.5042230000000 1.0
C      1  0.5518730000000  0.5138160000000  0.4541330000000 1.0
C      1  0.4883850000000  0.4731310000000  0.4982940000000 1.0
C      1  0.5108640000000  0.5501290000000  0.5450040000000 1.0
C      1  0.5355170000000  0.4738450000000  0.4866820000000 1.0
C      1  0.4769730000000  0.4359620000000  0.4867060000000 1.0
C      1  0.5329360000000  0.4388620000000  0.4335800000000 1.0
C      1  0.4771960000000  0.4946980000000  0.5541440000000 1.0
C      1  0.4553670000000  0.4760770000000  0.5062180000000 1.0
C      1  0.4298490000000  0.5207050000000  0.5060320000000 1.0
C      1  0.5215480000000  0.5760860000000  0.4962870000000 1.0
C      1  0.4859970000000  0.4021740000000  0.5207260000000 1.0
C      1  0.5015770000000  0.5184590000000  0.4453280000000 1.0
C      1  0.4556910000000  0.5548620000000  0.5273290000000 1.0
C      1  0.5362540000000  0.4426330000000  0.4841930000000 1.0
C      1  0.5404970000000  0.4316070000000  0.4588460000000 1.0
C      1  0.4528720000000  0.5427660000000  0.4954460000000 1.0
C      1  0.5496790000000  0.5126350000000  0.5315850000000 1.0
C      1  0.5387620000000  0.5064540000000  0.4825880000000 1.0
C      1  0.4371220000000  0.4764990000000  0.4571890000000 1.0
C      1  0.4570880000000  0.4593920000000  0.4787950000000 1.0
C      1  0.4506010000000  0.5226720000000  0.4497810000000 1.0
C      1  0.4282790000000  0.5037900000000  0.4520600000000 1.0
C      1  0.5835080000000  0.5209540000000  0.4881720000000 1.0
C      1  0.5072060000000  0.4788660000000  0.4452920000000 1.0
C      1  0.5233820000000  0.4312090000000  0.5074270000000 1.0
C      1  0.5176410000000  0.4608930000000  0.4279920000000 1.0
C      1  0.5279980000000  0.4915230000000  0.5317050000000 1.0
C      1  0.4466070000000  0.5335740000000  0.5514290000000 1.0
C      1  0.5796250000000  0.5176840000000  0.4606610000000 1.0
C      1  0.5265780000000  0.5298160000000  0.4525420000000 1.0
C      1  0.4771170000000  0.3829400000000  0.5361540000000 1.0
C      1  0.4972430000000  0.5676340000000  0.4753600000000 1.0
C      1  0.4232120000000  0.5461150000000  0.5216430000000 1.0
C      1  0.5437660000000  0.5504230000000  0.5004040000000 1.0
C      1  0.5281080000000  0.5637250000000  0.5272390000000 1.0
C      1  0.4687200000000  0.4793470000000  0.4539550000000 1.0
C      1  0.5331010000000  0.4687560000000  0.5169260000000 1.0
END
