TITL C-2782235-7892-1068 -0.00656853965033174 125000 -1044.69776187845 0 0 180 (C1) n - 1
REM
REM in /home/nfs/bkarasulu/CARBON/AIRSS/Generating-Clusters/REBO/Higher-Symm/SD-CG/HFTN-CG
REM
REM
REM
REM
REM
REM ./C.cell (12c818d87b63d06a65506943cc24bca4)
REM
REM compiler GCC version 9.2.1 20190827 (Red Hat 9.2.1-1)
REM options -cpp -mtune=generic -march=x86-64 -g -O0 -fpre-include=/usr/include/finclude/math-vector-fortran.h
REM seed 454728989 -433871358 13569594 720927551 748978000 771484416 1928369119 -780930944 -814271426 -134896945 -795357769 299425500 334257431 -98809206 1523753868 -1484951041 174525049 119429867 111736426 1796522432 588252620 2086602937 1638741305 -377400577 986826118 1679611756 -728140380 1424561641 2023080848 -1831548820 2011998687 -622859687 -688272635
REM
CELL 1.54180   50.00000   50.00000   50.00000   90.00000   90.00000   90.00000
LATT -1
SFAC C  
C      1  0.4829790000000  0.4493320000000  0.4543650000000 1.0
C      1  0.5147160000000  0.4594340000000  0.4474650000000 1.0
C      1  0.4885760000000  0.6144990000000  0.4981530000000 1.0
C      1  0.5186450000000  0.6166170000000  0.5010570000000 1.0
C      1  0.4495830000000  0.4074830000000  0.5051790000000 1.0
C      1  0.5531300000000  0.4062880000000  0.5030900000000 1.0
C      1  0.5528750000000  0.4571440000000  0.5249250000000 1.0
C      1  0.4529430000000  0.4564090000000  0.5253770000000 1.0
C      1  0.4393120000000  0.4838400000000  0.5325200000000 1.0
C      1  0.5640590000000  0.4863360000000  0.5326040000000 1.0
C      1  0.4893680000000  0.4005370000000  0.5079260000000 1.0
C      1  0.5147160000000  0.4035320000000  0.5036490000000 1.0
C      1  0.4820750000000  0.5958020000000  0.4733620000000 1.0
C      1  0.5167100000000  0.5989420000000  0.4744460000000 1.0
C      1  0.5736970000000  0.5110260000000  0.5753550000000 1.0
C      1  0.4306460000000  0.5130440000000  0.5769930000000 1.0
C      1  0.5200340000000  0.4608710000000  0.5331390000000 1.0
C      1  0.4861360000000  0.4579320000000  0.5331180000000 1.0
C      1  0.5175190000000  0.4857300000000  0.4693580000000 1.0
C      1  0.4847610000000  0.4766120000000  0.4723460000000 1.0
C      1  0.5722720000000  0.5717650000000  0.5260370000000 1.0
C      1  0.4266480000000  0.5798350000000  0.5278440000000 1.0
C      1  0.5573340000000  0.4491680000000  0.4921240000000 1.0
C      1  0.4440310000000  0.4401380000000  0.4974440000000 1.0
C      1  0.4918740000000  0.4119470000000  0.4449470000000 1.0
C      1  0.5223680000000  0.4162910000000  0.4448270000000 1.0
C      1  0.5856660000000  0.5423180000000  0.5373130000000 1.0
C      1  0.4138020000000  0.5538310000000  0.5461010000000 1.0
C      1  0.4171230000000  0.4990280000000  0.5528710000000 1.0
C      1  0.5879650000000  0.4924600000000  0.5543020000000 1.0
C      1  0.4488130000000  0.4618880000000  0.5831700000000 1.0
C      1  0.5484750000000  0.4646800000000  0.5771990000000 1.0
C      1  0.5265480000000  0.4407710000000  0.5668500000000 1.0
C      1  0.4707450000000  0.4388970000000  0.5707210000000 1.0
C      1  0.5645940000000  0.5765610000000  0.4458750000000 1.0
C      1  0.4389340000000  0.5746120000000  0.4475010000000 1.0
C      1  0.4747900000000  0.4768890000000  0.4142920000000 1.0
C      1  0.5250200000000  0.4776610000000  0.4129730000000 1.0
C      1  0.5936780000000  0.5516900000000  0.4800510000000 1.0
C      1  0.4037860000000  0.5560390000000  0.4811800000000 1.0
C      1  0.4933950000000  0.5219310000000  0.4889320000000 1.0
C      1  0.5182310000000  0.5238820000000  0.4832670000000 1.0
C      1  0.5754140000000  0.4628380000000  0.5628330000000 1.0
C      1  0.4231910000000  0.4674310000000  0.5644760000000 1.0
C      1  0.4723250000000  0.5551450000000  0.5147050000000 1.0
C      1  0.5241790000000  0.5546040000000  0.5080290000000 1.0
C      1  0.4838790000000  0.4502320000000  0.4939430000000 1.0
C      1  0.5148810000000  0.4604610000000  0.4923060000000 1.0
C      1  0.5322590000000  0.4717180000000  0.6064060000000 1.0
C      1  0.4678680000000  0.4682220000000  0.6107050000000 1.0
C      1  0.4789700000000  0.5707470000000  0.4511940000000 1.0
C      1  0.5105780000000  0.5774830000000  0.4523120000000 1.0
C      1  0.5186530000000  0.5229150000000  0.4026210000000 1.0
C      1  0.4846600000000  0.5257190000000  0.4024250000000 1.0
C      1  0.5132990000000  0.5324930000000  0.5218580000000 1.0
C      1  0.4856720000000  0.5336060000000  0.5275580000000 1.0
C      1  0.4782090000000  0.5165020000000  0.6074960000000 1.0
C      1  0.5226920000000  0.5273870000000  0.6099740000000 1.0
C      1  0.4505160000000  0.5558110000000  0.4943610000000 1.0
C      1  0.5444010000000  0.5539990000000  0.4860990000000 1.0
C      1  0.4476470000000  0.4973630000000  0.4415220000000 1.0
C      1  0.5526830000000  0.4919500000000  0.4437570000000 1.0
C      1  0.5482080000000  0.4463450000000  0.4128930000000 1.0
C      1  0.4492670000000  0.4476600000000  0.4130500000000 1.0
C      1  0.5868730000000  0.4799460000000  0.4271340000000 1.0
C      1  0.4148210000000  0.4798120000000  0.4276720000000 1.0
C      1  0.4799660000000  0.5571070000000  0.4052990000000 1.0
C      1  0.5112370000000  0.5524590000000  0.4150200000000 1.0
C      1  0.4248290000000  0.5409450000000  0.5758420000000 1.0
C      1  0.5799960000000  0.5385330000000  0.5695380000000 1.0
C      1  0.6162020000000  0.4751280000000  0.4816560000000 1.0
C      1  0.3844750000000  0.4726130000000  0.4750900000000 1.0
C      1  0.5232130000000  0.4341700000000  0.5122350000000 1.0
C      1  0.4805600000000  0.4292640000000  0.5167520000000 1.0
C      1  0.4504900000000  0.4957620000000  0.5875800000000 1.0
C      1  0.5444110000000  0.4973660000000  0.5771680000000 1.0
C      1  0.5558010000000  0.4609410000000  0.4427740000000 1.0
C      1  0.4486830000000  0.4653770000000  0.4421500000000 1.0
C      1  0.5971530000000  0.5122560000000  0.5281130000000 1.0
C      1  0.4084510000000  0.5238230000000  0.5308180000000 1.0
C      1  0.4865650000000  0.4917170000000  0.4354120000000 1.0
C      1  0.5136630000000  0.4958120000000  0.4310570000000 1.0
C      1  0.4854300000000  0.5265310000000  0.5836090000000 1.0
C      1  0.5130080000000  0.5403970000000  0.5820350000000 1.0
C      1  0.5643530000000  0.4120380000000  0.4783410000000 1.0
C      1  0.4456520000000  0.4077710000000  0.4743870000000 1.0
C      1  0.5186180000000  0.5956870000000  0.5552090000000 1.0
C      1  0.4851000000000  0.5966590000000  0.5533830000000 1.0
C      1  0.4835470000000  0.4917120000000  0.5123300000000 1.0
C      1  0.5154530000000  0.4953520000000  0.5135760000000 1.0
C      1  0.5139750000000  0.4479320000000  0.4154170000000 1.0
C      1  0.4839610000000  0.4462450000000  0.4093300000000 1.0
C      1  0.5409590000000  0.4471840000000  0.4662070000000 1.0
C      1  0.4522690000000  0.4482500000000  0.4698640000000 1.0
C      1  0.4513490000000  0.5935930000000  0.5468240000000 1.0
C      1  0.5510180000000  0.5877780000000  0.5468560000000 1.0
C      1  0.5590150000000  0.4785700000000  0.4072520000000 1.0
C      1  0.4415740000000  0.4807640000000  0.4062850000000 1.0
C      1  0.4772160000000  0.4881030000000  0.5455400000000 1.0
C      1  0.5188350000000  0.4906500000000  0.5473480000000 1.0
C      1  0.5347140000000  0.5502280000000  0.5501540000000 1.0
C      1  0.4539720000000  0.5447160000000  0.5489440000000 1.0
C      1  0.5342560000000  0.5694790000000  0.4319850000000 1.0
C      1  0.4630300000000  0.5714700000000  0.4236640000000 1.0
C      1  0.4772880000000  0.5647800000000  0.5564890000000 1.0
C      1  0.5089270000000  0.5659450000000  0.5625080000000 1.0
C      1  0.6033870000000  0.4519940000000  0.4732420000000 1.0
C      1  0.4017870000000  0.4505110000000  0.4712450000000 1.0
C      1  0.5214100000000  0.4998530000000  0.6095280000000 1.0
C      1  0.4722900000000  0.4936630000000  0.6210230000000 1.0
C      1  0.4115880000000  0.5561560000000  0.4545430000000 1.0
C      1  0.5892090000000  0.5548950000000  0.4528190000000 1.0
C      1  0.5697890000000  0.4235630000000  0.4521990000000 1.0
C      1  0.4419690000000  0.4262530000000  0.4460220000000 1.0
C      1  0.4563750000000  0.5115650000000  0.4112300000000 1.0
C      1  0.5469220000000  0.5101010000000  0.4140660000000 1.0
C      1  0.4721960000000  0.6086760000000  0.5245740000000 1.0
C      1  0.5312970000000  0.6042860000000  0.5260280000000 1.0
C      1  0.5125740000000  0.4305260000000  0.4742770000000 1.0
C      1  0.4811360000000  0.4213580000000  0.4749190000000 1.0
C      1  0.5430050000000  0.4059910000000  0.5317450000000 1.0
C      1  0.4537640000000  0.4060860000000  0.5345340000000 1.0
C      1  0.5537740000000  0.5365200000000  0.5278420000000 1.0
C      1  0.4404110000000  0.5326670000000  0.5253650000000 1.0
C      1  0.5279680000000  0.5201080000000  0.5607150000000 1.0
C      1  0.4748090000000  0.5205730000000  0.5555060000000 1.0
C      1  0.4786960000000  0.4876740000000  0.5775200000000 1.0
C      1  0.5096750000000  0.4902000000000  0.5794710000000 1.0
C      1  0.4409030000000  0.4931040000000  0.4696770000000 1.0
C      1  0.5544030000000  0.5014310000000  0.4716470000000 1.0
C      1  0.5620080000000  0.5614180000000  0.5632720000000 1.0
C      1  0.4384580000000  0.5699210000000  0.5643780000000 1.0
C      1  0.4541390000000  0.4870480000000  0.4955470000000 1.0
C      1  0.5453300000000  0.4908900000000  0.4974180000000 1.0
C      1  0.3920370000000  0.4998980000000  0.4710720000000 1.0
C      1  0.6111730000000  0.5014670000000  0.4666410000000 1.0
C      1  0.5998610000000  0.5038790000000  0.4406810000000 1.0
C      1  0.4035830000000  0.5041870000000  0.4441880000000 1.0
C      1  0.5224050000000  0.5156980000000  0.4531010000000 1.0
C      1  0.4781530000000  0.5066900000000  0.4647640000000 1.0
C      1  0.5640620000000  0.4117920000000  0.5490520000000 1.0
C      1  0.4317820000000  0.4159980000000  0.5487840000000 1.0
C      1  0.6004580000000  0.5001220000000  0.4993020000000 1.0
C      1  0.3999980000000  0.5171240000000  0.4983970000000 1.0
C      1  0.5886410000000  0.4396670000000  0.4936990000000 1.0
C      1  0.4127020000000  0.4392360000000  0.4945680000000 1.0
C      1  0.5754510000000  0.4393400000000  0.5430420000000 1.0
C      1  0.4252560000000  0.4458340000000  0.5423720000000 1.0
C      1  0.4216280000000  0.5534730000000  0.5069260000000 1.0
C      1  0.5710790000000  0.5486350000000  0.5009240000000 1.0
C      1  0.4439620000000  0.5289430000000  0.4360100000000 1.0
C      1  0.5586620000000  0.5249850000000  0.4396050000000 1.0
C      1  0.5452740000000  0.5090900000000  0.5240140000000 1.0
C      1  0.4546930000000  0.5084040000000  0.5197030000000 1.0
C      1  0.4135940000000  0.5309240000000  0.4407100000000 1.0
C      1  0.5879940000000  0.5298590000000  0.4378040000000 1.0
C      1  0.5471650000000  0.5480090000000  0.4540600000000 1.0
C      1  0.4493980000000  0.5472580000000  0.4637960000000 1.0
C      1  0.5463420000000  0.5846190000000  0.4733850000000 1.0
C      1  0.4515370000000  0.5849820000000  0.4763590000000 1.0
C      1  0.5630000000000  0.5875780000000  0.4994210000000 1.0
C      1  0.4326890000000  0.5911590000000  0.4996650000000 1.0
C      1  0.5080030000000  0.5437100000000  0.4472660000000 1.0
C      1  0.4779500000000  0.5369530000000  0.4554420000000 1.0
C      1  0.4680850000000  0.4222900000000  0.4264140000000 1.0
C      1  0.5474890000000  0.4227130000000  0.4346760000000 1.0
C      1  0.5139080000000  0.4515570000000  0.5921430000000 1.0
C      1  0.4856280000000  0.4507000000000  0.5938940000000 1.0
C      1  0.5879680000000  0.4518340000000  0.4464720000000 1.0
C      1  0.4182310000000  0.4509130000000  0.4456480000000 1.0
C      1  0.5132390000000  0.5793980000000  0.5146720000000 1.0
C      1  0.4858390000000  0.5796190000000  0.5172950000000 1.0
C      1  0.5754170000000  0.4774120000000  0.4955280000000 1.0
C      1  0.4186180000000  0.4927330000000  0.4999590000000 1.0
C      1  0.5921850000000  0.4695190000000  0.5230390000000 1.0
C      1  0.4080580000000  0.4758460000000  0.5223940000000 1.0
C      1  0.4816250000000  0.4203490000000  0.5483620000000 1.0
C      1  0.5153600000000  0.4225250000000  0.5434350000000 1.0
C      1  0.4027020000000  0.4474210000000  0.5197450000000 1.0
C      1  0.5989090000000  0.4394400000000  0.5216020000000 1.0
END
