TITL C-2782228-2999-330 0.0638019750546766 125000 -215.727362971532 0 0 38 (C1) n - 1
REM
REM in /home/nfs/bkarasulu/CARBON/AIRSS/Generating-Clusters/REBO/Higher-Symm/SD-CG/HFTN-CG
REM
REM
REM
REM
REM
REM ./C.cell (12c818d87b63d06a65506943cc24bca4)
REM
REM compiler GCC version 9.2.1 20190827 (Red Hat 9.2.1-1)
REM options -cpp -mtune=generic -march=x86-64 -g -O0 -fpre-include=/usr/include/finclude/math-vector-fortran.h
REM seed 615838324 -80844578 -1053769729 763792572 -1740236168 1805596041 -918639635 -1351029167 -2049985693 2121865269 -1045221929 -367278954 -637384392 -1316103904 -2080880581 -1371375982 -1858860503 -779847711 -66533802 1303761753 -1753429616 720881165 -1903233854 506034951 454634735 -1477080937 -604517750 -504595847 148641315 -375235550 850346647 1770933389 813368513
REM
CELL 1.54180   50.00000   50.00000   50.00000   90.00000   90.00000   90.00000
LATT -1
SFAC C  
C      1  0.5080110000000  0.4163000000000  0.5255170000000 1.0
C      1  0.5541450000000  0.4090080000000  0.4464140000000 1.0
C      1  0.5190560000000  0.5270380000000  0.5395980000000 1.0
C      1  0.5097920000000  0.5041040000000  0.5199020000000 1.0
C      1  0.5384220000000  0.4999370000000  0.5356620000000 1.0
C      1  0.5428340000000  0.5557730000000  0.4855530000000 1.0
C      1  0.4992800000000  0.4398000000000  0.5390330000000 1.0
C      1  0.4765030000000  0.5890760000000  0.5431610000000 1.0
C      1  0.4268560000000  0.5970620000000  0.5333430000000 1.0
C      1  0.4261950000000  0.5691770000000  0.4914730000000 1.0
C      1  0.5353470000000  0.4756350000000  0.5542600000000 1.0
C      1  0.5709640000000  0.4342640000000  0.4427100000000 1.0
C      1  0.4974380000000  0.5347360000000  0.4695630000000 1.0
C      1  0.4729820000000  0.4581350000000  0.4982450000000 1.0
C      1  0.4954810000000  0.5726370000000  0.5306420000000 1.0
C      1  0.5179500000000  0.4549630000000  0.5538560000000 1.0
C      1  0.5602180000000  0.4988110000000  0.5138290000000 1.0
C      1  0.4165300000000  0.5848140000000  0.5113870000000 1.0
C      1  0.4777700000000  0.4528580000000  0.5256290000000 1.0
C      1  0.5444470000000  0.4807320000000  0.4665520000000 1.0
C      1  0.4253410000000  0.4586510000000  0.5005680000000 1.0
C      1  0.5159390000000  0.5544970000000  0.4849530000000 1.0
C      1  0.4487250000000  0.5580780000000  0.4816700000000 1.0
C      1  0.4512410000000  0.5983490000000  0.5451250000000 1.0
C      1  0.5138690000000  0.4339960000000  0.4775040000000 1.0
C      1  0.5158670000000  0.4843800000000  0.4661940000000 1.0
C      1  0.5348950000000  0.4313040000000  0.4591930000000 1.0
C      1  0.5036180000000  0.5090090000000  0.4620150000000 1.0
C      1  0.4481450000000  0.4609880000000  0.4857870000000 1.0
C      1  0.4998770000000  0.4608280000000  0.4809870000000 1.0
C      1  0.5534790000000  0.4571020000000  0.4541190000000 1.0
C      1  0.4950300000000  0.5698700000000  0.5022490000000 1.0
C      1  0.5102950000000  0.5525400000000  0.5438600000000 1.0
C      1  0.5591100000000  0.4929900000000  0.4874200000000 1.0
C      1  0.4762300000000  0.5541890000000  0.4820010000000 1.0
C      1  0.4470380000000  0.4660730000000  0.4590120000000 1.0
C      1  0.5110550000000  0.4152850000000  0.4983260000000 1.0
C      1  0.5000240000000  0.4870110000000  0.5026880000000 1.0
END
