TITL C-2782226-7400-159 -0.000959358839097129 125000 -613.187463590446 0 0 106 (C1) n - 1
REM
REM in /home/nfs/bkarasulu/CARBON/AIRSS/Generating-Clusters/REBO/Higher-Symm/SD-CG/HFTN-CG
REM
REM
REM
REM
REM
REM ./C.cell (12c818d87b63d06a65506943cc24bca4)
REM
REM compiler GCC version 9.2.1 20190827 (Red Hat 9.2.1-1)
REM options -cpp -mtune=generic -march=x86-64 -g -O0 -fpre-include=/usr/include/finclude/math-vector-fortran.h
REM seed -1428711325 -1369803320 -1070749364 1825114342 -1762186189 -728853510 -1276354086 -1220926543 -2019338275 1748872417 -1447222497 1815691403 -1223388220 -1707459547 -1641582452 1411799605 -890110704 1034879958 -1716536062 -1056619706 -972752907 1898701173 936606111 1790257107 -1437991594 -782075512 1895044092 -1664073106 -184848437 845863087 -975096035 -1694321112 337202934
REM
CELL 1.54180   50.00000   50.00000   50.00000   90.00000   90.00000   90.00000
LATT -1
SFAC C  
C      1  0.5174300000000  0.5362710000000  0.5285150000000 1.0
C      1  0.4754280000000  0.5507480000000  0.4935040000000 1.0
C      1  0.5225820000000  0.4567510000000  0.5351190000000 1.0
C      1  0.5098430000000  0.4952600000000  0.4253850000000 1.0
C      1  0.4872590000000  0.5155860000000  0.5833530000000 1.0
C      1  0.4681670000000  0.4110930000000  0.5452980000000 1.0
C      1  0.4639740000000  0.4691920000000  0.4108510000000 1.0
C      1  0.4882300000000  0.4921730000000  0.4453690000000 1.0
C      1  0.4797940000000  0.5277650000000  0.4617090000000 1.0
C      1  0.5333530000000  0.5016890000000  0.4570360000000 1.0
C      1  0.4611950000000  0.4268060000000  0.4421310000000 1.0
C      1  0.5397930000000  0.5009970000000  0.4960380000000 1.0
C      1  0.5638180000000  0.4813400000000  0.5208730000000 1.0
C      1  0.4365680000000  0.4454480000000  0.4532970000000 1.0
C      1  0.4650080000000  0.5621620000000  0.5300000000000 1.0
C      1  0.5368690000000  0.4752280000000  0.4468610000000 1.0
C      1  0.4132910000000  0.4944110000000  0.4929450000000 1.0
C      1  0.4300250000000  0.5460090000000  0.4647140000000 1.0
C      1  0.5106920000000  0.5507510000000  0.4721840000000 1.0
C      1  0.5826770000000  0.5584160000000  0.5078200000000 1.0
C      1  0.6108600000000  0.5295300000000  0.4744550000000 1.0
C      1  0.5068240000000  0.5749960000000  0.4952740000000 1.0
C      1  0.5691800000000  0.4554570000000  0.5137560000000 1.0
C      1  0.5669060000000  0.5361160000000  0.5261320000000 1.0
C      1  0.5135760000000  0.4584340000000  0.5738150000000 1.0
C      1  0.4588350000000  0.5278540000000  0.5104780000000 1.0
C      1  0.5274670000000  0.4276650000000  0.5084410000000 1.0
C      1  0.5533070000000  0.5712930000000  0.5129810000000 1.0
C      1  0.4742160000000  0.5401680000000  0.4313520000000 1.0
C      1  0.5872630000000  0.4670920000000  0.4689280000000 1.0
C      1  0.5315300000000  0.4697520000000  0.4860200000000 1.0
C      1  0.5463800000000  0.5646640000000  0.4580480000000 1.0
C      1  0.5419670000000  0.5302670000000  0.5092510000000 1.0
C      1  0.4617300000000  0.4411560000000  0.4968640000000 1.0
C      1  0.4285500000000  0.5192060000000  0.4468720000000 1.0
C      1  0.4397700000000  0.5206960000000  0.5640850000000 1.0
C      1  0.4878140000000  0.4527280000000  0.4120210000000 1.0
C      1  0.4870150000000  0.4682450000000  0.5642380000000 1.0
C      1  0.4886650000000  0.4900980000000  0.5467660000000 1.0
C      1  0.5200220000000  0.4296750000000  0.5565260000000 1.0
C      1  0.5403320000000  0.5070330000000  0.4183110000000 1.0
C      1  0.4630630000000  0.5394090000000  0.5509240000000 1.0
C      1  0.4814110000000  0.4907550000000  0.4765980000000 1.0
C      1  0.5097920000000  0.4939210000000  0.5284430000000 1.0
C      1  0.4597800000000  0.5559090000000  0.4648680000000 1.0
C      1  0.4275650000000  0.5213540000000  0.4867480000000 1.0
C      1  0.6075790000000  0.5380890000000  0.5140290000000 1.0
C      1  0.4617920000000  0.4876730000000  0.5172700000000 1.0
C      1  0.4890680000000  0.5377870000000  0.5208990000000 1.0
C      1  0.5632100000000  0.4746980000000  0.5695480000000 1.0
C      1  0.4429190000000  0.4678420000000  0.4969310000000 1.0
C      1  0.5566390000000  0.5370380000000  0.5580940000000 1.0
C      1  0.5065670000000  0.4985390000000  0.4979940000000 1.0
C      1  0.4589260000000  0.5129900000000  0.4819710000000 1.0
C      1  0.4983580000000  0.4152860000000  0.4766380000000 1.0
C      1  0.4626400000000  0.5859770000000  0.4806460000000 1.0
C      1  0.4881930000000  0.5798930000000  0.5380870000000 1.0
C      1  0.4512150000000  0.4240320000000  0.4722500000000 1.0
C      1  0.5314630000000  0.4874160000000  0.5719070000000 1.0
C      1  0.5101760000000  0.5176960000000  0.4710850000000 1.0
C      1  0.4239180000000  0.4889930000000  0.5458010000000 1.0
C      1  0.5723730000000  0.5057140000000  0.5007950000000 1.0
C      1  0.5394870000000  0.4847280000000  0.5389930000000 1.0
C      1  0.5815520000000  0.5339660000000  0.4839620000000 1.0
C      1  0.4214090000000  0.5527010000000  0.4970500000000 1.0
C      1  0.4873200000000  0.4080770000000  0.5247240000000 1.0
C      1  0.5160320000000  0.5126180000000  0.5764670000000 1.0
C      1  0.5451680000000  0.4517960000000  0.5609180000000 1.0
C      1  0.5556450000000  0.4308710000000  0.4603380000000 1.0
C      1  0.6025080000000  0.5134230000000  0.5110360000000 1.0
C      1  0.4114720000000  0.5196980000000  0.5494050000000 1.0
C      1  0.5848760000000  0.5236820000000  0.5522880000000 1.0
C      1  0.4826300000000  0.4665850000000  0.5003730000000 1.0
C      1  0.4605490000000  0.5036230000000  0.5830450000000 1.0
C      1  0.5069680000000  0.4317570000000  0.4550670000000 1.0
C      1  0.5248650000000  0.5707720000000  0.4406550000000 1.0
C      1  0.4605230000000  0.4578230000000  0.5664750000000 1.0
C      1  0.5222700000000  0.5680930000000  0.5209080000000 1.0
C      1  0.5638580000000  0.5406710000000  0.4590440000000 1.0
C      1  0.4883480000000  0.5424670000000  0.5687770000000 1.0
C      1  0.5087650000000  0.5644650000000  0.5551140000000 1.0
C      1  0.4179640000000  0.4945310000000  0.4591910000000 1.0
C      1  0.5112210000000  0.4568020000000  0.5053370000000 1.0
C      1  0.5144580000000  0.4141750000000  0.5303230000000 1.0
C      1  0.5396260000000  0.5538230000000  0.4878980000000 1.0
C      1  0.4312130000000  0.4689590000000  0.4679370000000 1.0
C      1  0.4571160000000  0.4306140000000  0.5606010000000 1.0
C      1  0.5536490000000  0.5199610000000  0.4431770000000 1.0
C      1  0.4344520000000  0.5279650000000  0.5254750000000 1.0
C      1  0.4056560000000  0.5415100000000  0.5239080000000 1.0
C      1  0.5628900000000  0.4682540000000  0.4764020000000 1.0
C      1  0.5418550000000  0.4739180000000  0.4160760000000 1.0
C      1  0.4879450000000  0.5936200000000  0.4881640000000 1.0
C      1  0.4427700000000  0.4810190000000  0.5671790000000 1.0
C      1  0.4638220000000  0.4915640000000  0.4286880000000 1.0
C      1  0.4223870000000  0.4811220000000  0.5189610000000 1.0
C      1  0.5556010000000  0.4323860000000  0.5075260000000 1.0
C      1  0.5115560000000  0.4680390000000  0.4080630000000 1.0
C      1  0.4516370000000  0.5178390000000  0.4295470000000 1.0
C      1  0.5328310000000  0.4473720000000  0.4603660000000 1.0
C      1  0.4876560000000  0.4344040000000  0.4342080000000 1.0
C      1  0.4979940000000  0.5568440000000  0.4414600000000 1.0
C      1  0.4803110000000  0.4160180000000  0.4983730000000 1.0
C      1  0.4627060000000  0.5060890000000  0.5433030000000 1.0
C      1  0.5266780000000  0.5357310000000  0.5597850000000 1.0
C      1  0.4469050000000  0.5683900000000  0.5042720000000 1.0
END
