TITL C-2782226-7400-935 -0.00146926746918646 125000 -555.291182603768 0 0 96 (C1) n - 1
REM
REM in /home/nfs/bkarasulu/CARBON/AIRSS/Generating-Clusters/REBO/Higher-Symm/SD-CG/HFTN-CG
REM
REM
REM
REM
REM
REM ./C.cell (12c818d87b63d06a65506943cc24bca4)
REM
REM compiler GCC version 9.2.1 20190827 (Red Hat 9.2.1-1)
REM options -cpp -mtune=generic -march=x86-64 -g -O0 -fpre-include=/usr/include/finclude/math-vector-fortran.h
REM seed -429348843 634093473 615958309 -393081708 88966201 2030467943 -1637488192 1264371347 15769329 182388664 -248763792 1101771820 -435606718 -1421533283 1208454449 1500611781 2055611483 1784509881 577693747 -1605372787 1423348793 -961135853 235054729 -105269075 -59269461 1172164216 -1308298663 -225234036 -291587214 617375350 -1908679120 2073688624 -1996499462
REM
CELL 1.54180   50.00000   50.00000   50.00000   90.00000   90.00000   90.00000
LATT -1
SFAC C  
C      1  0.4637330000000  0.4405100000000  0.4864170000000 1.0
C      1  0.4618300000000  0.5757170000000  0.5090420000000 1.0
C      1  0.4903930000000  0.5807680000000  0.4992190000000 1.0
C      1  0.4470460000000  0.5083910000000  0.5758240000000 1.0
C      1  0.5212040000000  0.4540070000000  0.5130420000000 1.0
C      1  0.5048120000000  0.4601520000000  0.5693530000000 1.0
C      1  0.4751300000000  0.4238750000000  0.4637060000000 1.0
C      1  0.5551410000000  0.5459540000000  0.4508000000000 1.0
C      1  0.4537870000000  0.4928260000000  0.4396860000000 1.0
C      1  0.4675570000000  0.5176430000000  0.5048600000000 1.0
C      1  0.5283740000000  0.5623380000000  0.5427790000000 1.0
C      1  0.5138220000000  0.5992860000000  0.4843240000000 1.0
C      1  0.4584360000000  0.5598660000000  0.5333150000000 1.0
C      1  0.4415980000000  0.4763950000000  0.5652230000000 1.0
C      1  0.5200280000000  0.5748440000000  0.5149290000000 1.0
C      1  0.4996490000000  0.4239800000000  0.5531540000000 1.0
C      1  0.4365110000000  0.4761700000000  0.4640370000000 1.0
C      1  0.5337130000000  0.4589390000000  0.5652690000000 1.0
C      1  0.5181790000000  0.4285430000000  0.5348070000000 1.0
C      1  0.5584080000000  0.5120040000000  0.4744960000000 1.0
C      1  0.4939100000000  0.5557650000000  0.4804030000000 1.0
C      1  0.4076870000000  0.5039920000000  0.5166120000000 1.0
C      1  0.4390230000000  0.5150360000000  0.4601720000000 1.0
C      1  0.5533260000000  0.5134890000000  0.4431200000000 1.0
C      1  0.4399470000000  0.5406610000000  0.4503010000000 1.0
C      1  0.4180260000000  0.4675660000000  0.4819850000000 1.0
C      1  0.5649890000000  0.4814980000000  0.4467660000000 1.0
C      1  0.4190680000000  0.5525360000000  0.4939210000000 1.0
C      1  0.4472380000000  0.5345090000000  0.5241040000000 1.0
C      1  0.4898660000000  0.5601840000000  0.4485610000000 1.0
C      1  0.5425940000000  0.4570770000000  0.4565450000000 1.0
C      1  0.5142700000000  0.4703630000000  0.4644810000000 1.0
C      1  0.5001650000000  0.5473930000000  0.5189540000000 1.0
C      1  0.5397700000000  0.5244800000000  0.5374180000000 1.0
C      1  0.5949110000000  0.4764230000000  0.5024920000000 1.0
C      1  0.5134330000000  0.5300760000000  0.5793660000000 1.0
C      1  0.5396880000000  0.5848390000000  0.4889390000000 1.0
C      1  0.5896560000000  0.4767670000000  0.4699400000000 1.0
C      1  0.5220980000000  0.4848970000000  0.5223530000000 1.0
C      1  0.5301650000000  0.5392910000000  0.4810910000000 1.0
C      1  0.5019860000000  0.5227790000000  0.4853650000000 1.0
C      1  0.5571480000000  0.5680650000000  0.4753180000000 1.0
C      1  0.5231130000000  0.5541300000000  0.4532920000000 1.0
C      1  0.4399280000000  0.4955680000000  0.5255310000000 1.0
C      1  0.5022100000000  0.5498850000000  0.5586190000000 1.0
C      1  0.4758130000000  0.4677940000000  0.4947960000000 1.0
C      1  0.5255940000000  0.5123260000000  0.4293330000000 1.0
C      1  0.4758810000000  0.4931350000000  0.5727600000000 1.0
C      1  0.5046630000000  0.5348140000000  0.4335090000000 1.0
C      1  0.5721520000000  0.4609440000000  0.5190370000000 1.0
C      1  0.4193690000000  0.5318780000000  0.5144120000000 1.0
C      1  0.4843530000000  0.4506560000000  0.4256250000000 1.0
C      1  0.4119540000000  0.4727360000000  0.5096160000000 1.0
C      1  0.4337130000000  0.4641170000000  0.5344880000000 1.0
C      1  0.4736170000000  0.4757210000000  0.4198080000000 1.0
C      1  0.4591190000000  0.5590090000000  0.4436390000000 1.0
C      1  0.4455040000000  0.5621640000000  0.4876110000000 1.0
C      1  0.5598590000000  0.4914280000000  0.4919640000000 1.0
C      1  0.5180260000000  0.4162770000000  0.4830240000000 1.0
C      1  0.5048790000000  0.4653220000000  0.4895220000000 1.0
C      1  0.4989350000000  0.5076160000000  0.5135990000000 1.0
C      1  0.4755170000000  0.4353370000000  0.5581950000000 1.0
C      1  0.4820190000000  0.5118300000000  0.4339620000000 1.0
C      1  0.4987290000000  0.4797060000000  0.5430250000000 1.0
C      1  0.4391520000000  0.5041810000000  0.4924630000000 1.0
C      1  0.4651610000000  0.4228080000000  0.5107200000000 1.0
C      1  0.5775800000000  0.5005500000000  0.5195620000000 1.0
C      1  0.5421650000000  0.4769810000000  0.4219480000000 1.0
C      1  0.4721660000000  0.4722130000000  0.5259290000000 1.0
C      1  0.4862240000000  0.5267540000000  0.5388220000000 1.0
C      1  0.5624250000000  0.4377160000000  0.5016920000000 1.0
C      1  0.5729380000000  0.5329270000000  0.5172220000000 1.0
C      1  0.4784260000000  0.5113130000000  0.4657960000000 1.0
C      1  0.4663380000000  0.5396910000000  0.4802300000000 1.0
C      1  0.5223420000000  0.4934000000000  0.4014100000000 1.0
C      1  0.5142250000000  0.4819730000000  0.4383490000000 1.0
C      1  0.5051860000000  0.4999980000000  0.5697410000000 1.0
C      1  0.5799470000000  0.4921460000000  0.5494140000000 1.0
C      1  0.5616480000000  0.4609280000000  0.4806200000000 1.0
C      1  0.5351220000000  0.4250880000000  0.5064270000000 1.0
C      1  0.4950130000000  0.4340280000000  0.4453420000000 1.0
C      1  0.5632280000000  0.5391370000000  0.4892300000000 1.0
C      1  0.5209010000000  0.4314960000000  0.4582910000000 1.0
C      1  0.4890960000000  0.4102350000000  0.4899830000000 1.0
C      1  0.4660570000000  0.5021650000000  0.5415380000000 1.0
C      1  0.4522970000000  0.5367320000000  0.5749190000000 1.0
C      1  0.5529980000000  0.4867020000000  0.5653180000000 1.0
C      1  0.5274670000000  0.5355020000000  0.5131890000000 1.0
C      1  0.4709120000000  0.4614380000000  0.5749420000000 1.0
C      1  0.4636090000000  0.4883380000000  0.4779410000000 1.0
C      1  0.5585770000000  0.5496640000000  0.5401260000000 1.0
C      1  0.4689150000000  0.5556830000000  0.5599310000000 1.0
C      1  0.4930200000000  0.4946620000000  0.4069190000000 1.0
C      1  0.4591670000000  0.4424120000000  0.5332650000000 1.0
C      1  0.5354240000000  0.5105580000000  0.5641540000000 1.0
C      1  0.5490090000000  0.4702930000000  0.5367100000000 1.0
END
