TITL C-2782233-7966-662 -0.00133325017452976 125000 -829.796920086144 0 0 146 (C1) n - 1
REM
REM in /home/nfs/bkarasulu/CARBON/AIRSS/Generating-Clusters/REBO/Higher-Symm/SD-CG/HFTN-CG
REM
REM
REM
REM
REM
REM ./C.cell (12c818d87b63d06a65506943cc24bca4)
REM
REM compiler GCC version 9.2.1 20190827 (Red Hat 9.2.1-1)
REM options -cpp -mtune=generic -march=x86-64 -g -O0 -fpre-include=/usr/include/finclude/math-vector-fortran.h
REM seed 1592294096 -2142821584 324178928 -1700265196 1413391222 -501830252 727758306 -1947462661 1294433496 642791167 -1093372546 -251401561 319524564 540241819 -475010428 970503599 -591664176 1370479641 1430502433 1488640985 215683775 20361776 -1579297561 437556772 339691830 -781237905 1439175081 -967165284 971374225 -1175296780 -1301381622 329333008 1394820760
REM
CELL 1.54180   50.00000   50.00000   50.00000   90.00000   90.00000   90.00000
LATT -1
SFAC C  
C      1  0.4536650000000  0.5471310000000  0.4828940000000 1.0
C      1  0.4467350000000  0.4569380000000  0.4748280000000 1.0
C      1  0.5464100000000  0.4500690000000  0.4758090000000 1.0
C      1  0.5483670000000  0.5443760000000  0.4734330000000 1.0
C      1  0.5445640000000  0.5502320000000  0.5268130000000 1.0
C      1  0.5443240000000  0.4588950000000  0.5236920000000 1.0
C      1  0.4500740000000  0.4550480000000  0.5242080000000 1.0
C      1  0.4604100000000  0.5447370000000  0.5223660000000 1.0
C      1  0.4327760000000  0.5561510000000  0.5502210000000 1.0
C      1  0.4358360000000  0.4267750000000  0.5339570000000 1.0
C      1  0.5705730000000  0.4406170000000  0.5336050000000 1.0
C      1  0.5613520000000  0.5776060000000  0.5364280000000 1.0
C      1  0.5750060000000  0.5616640000000  0.4646690000000 1.0
C      1  0.5602140000000  0.4240820000000  0.4639370000000 1.0
C      1  0.4239350000000  0.4363320000000  0.4633960000000 1.0
C      1  0.4398920000000  0.5700970000000  0.4633130000000 1.0
C      1  0.5266840000000  0.4286940000000  0.5193700000000 1.0
C      1  0.5783790000000  0.5307450000000  0.5188720000000 1.0
C      1  0.4632910000000  0.5782210000000  0.5170320000000 1.0
C      1  0.4180940000000  0.4669990000000  0.5218610000000 1.0
C      1  0.4695790000000  0.4318230000000  0.4805810000000 1.0
C      1  0.4180430000000  0.5306700000000  0.4759010000000 1.0
C      1  0.5305080000000  0.5737170000000  0.4792590000000 1.0
C      1  0.5726980000000  0.4721310000000  0.4804690000000 1.0
C      1  0.4804180000000  0.5325960000000  0.4410760000000 1.0
C      1  0.4622220000000  0.4798530000000  0.4389890000000 1.0
C      1  0.5205250000000  0.4690310000000  0.4410620000000 1.0
C      1  0.5373640000000  0.5194510000000  0.4331950000000 1.0
C      1  0.5209040000000  0.5340450000000  0.5603100000000 1.0
C      1  0.5436560000000  0.4912030000000  0.5811440000000 1.0
C      1  0.4825930000000  0.4583250000000  0.5742360000000 1.0
C      1  0.4863810000000  0.5122000000000  0.5652000000000 1.0
C      1  0.5139480000000  0.4348780000000  0.4444470000000 1.0
C      1  0.5694250000000  0.5158810000000  0.4430890000000 1.0
C      1  0.4853790000000  0.5673710000000  0.4400380000000 1.0
C      1  0.4281290000000  0.4816810000000  0.4410950000000 1.0
C      1  0.4833200000000  0.4289870000000  0.5573950000000 1.0
C      1  0.4214110000000  0.5101360000000  0.5624350000000 1.0
C      1  0.5130630000000  0.5668790000000  0.5561060000000 1.0
C      1  0.5738290000000  0.4852550000000  0.5557550000000 1.0
C      1  0.5366420000000  0.5207700000000  0.5360660000000 1.0
C      1  0.4830030000000  0.5392530000000  0.5452270000000 1.0
C      1  0.4603680000000  0.4760910000000  0.5462070000000 1.0
C      1  0.5184240000000  0.4661990000000  0.5430390000000 1.0
C      1  0.4698680000000  0.5232950000000  0.4677250000000 1.0
C      1  0.5213350000000  0.5295600000000  0.4589310000000 1.0
C      1  0.5336510000000  0.4774150000000  0.4671070000000 1.0
C      1  0.4857060000000  0.4804860000000  0.4588240000000 1.0
C      1  0.4171870000000  0.5454680000000  0.5274250000000 1.0
C      1  0.4543870000000  0.4015200000000  0.5242560000000 1.0
C      1  0.5981220000000  0.4559050000000  0.5236490000000 1.0
C      1  0.5373920000000  0.5964390000000  0.5237780000000 1.0
C      1  0.6006370000000  0.5437800000000  0.4735470000000 1.0
C      1  0.5408170000000  0.4023240000000  0.4750620000000 1.0
C      1  0.4003510000000  0.4552650000000  0.4735990000000 1.0
C      1  0.4554080000000  0.5982170000000  0.4692430000000 1.0
C      1  0.4304820000000  0.5354650000000  0.4461060000000 1.0
C      1  0.4617750000000  0.4286080000000  0.4474710000000 1.0
C      1  0.5704010000000  0.4636950000000  0.4470570000000 1.0
C      1  0.5380240000000  0.5713760000000  0.4458710000000 1.0
C      1  0.5680520000000  0.5407860000000  0.5501950000000 1.0
C      1  0.5367870000000  0.4320050000000  0.5521880000000 1.0
C      1  0.4248160000000  0.4599090000000  0.5544280000000 1.0
C      1  0.4554850000000  0.5742210000000  0.5482250000000 1.0
C      1  0.4864110000000  0.4307300000000  0.4279490000000 1.0
C      1  0.5702330000000  0.4870300000000  0.4270900000000 1.0
C      1  0.5147430000000  0.5697640000000  0.4254150000000 1.0
C      1  0.4343050000000  0.5105710000000  0.4299210000000 1.0
C      1  0.5139160000000  0.4318490000000  0.5721040000000 1.0
C      1  0.4260800000000  0.4823980000000  0.5742370000000 1.0
C      1  0.4810410000000  0.5634560000000  0.5670770000000 1.0
C      1  0.5658950000000  0.5134120000000  0.5702540000000 1.0
C      1  0.5818660000000  0.5577250000000  0.4983360000000 1.0
C      1  0.4412720000000  0.5827160000000  0.4956200000000 1.0
C      1  0.4175160000000  0.4443090000000  0.4989190000000 1.0
C      1  0.5536650000000  0.4194950000000  0.5002000000000 1.0
C      1  0.4240990000000  0.5533750000000  0.4985900000000 1.0
C      1  0.5566900000000  0.5795160000000  0.5017420000000 1.0
C      1  0.5776170000000  0.4437430000000  0.4998700000000 1.0
C      1  0.4427970000000  0.4223590000000  0.5000850000000 1.0
C      1  0.5188460000000  0.5183920000000  0.4065720000000 1.0
C      1  0.4874990000000  0.5152820000000  0.4126820000000 1.0
C      1  0.4813110000000  0.4836380000000  0.4114870000000 1.0
C      1  0.5144220000000  0.4856050000000  0.4129140000000 1.0
C      1  0.4848060000000  0.5144780000000  0.5984030000000 1.0
C      1  0.5167720000000  0.5192570000000  0.5901460000000 1.0
C      1  0.5114740000000  0.4856790000000  0.5913120000000 1.0
C      1  0.4781410000000  0.4816910000000  0.5972860000000 1.0
C      1  0.5626730000000  0.5496950000000  0.4364750000000 1.0
C      1  0.4518890000000  0.5595750000000  0.4348640000000 1.0
C      1  0.4374310000000  0.4492560000000  0.4355830000000 1.0
C      1  0.5476060000000  0.4402690000000  0.4371080000000 1.0
C      1  0.4368510000000  0.5362040000000  0.5709470000000 1.0
C      1  0.5464510000000  0.5640650000000  0.5639620000000 1.0
C      1  0.5585180000000  0.4571240000000  0.5607990000000 1.0
C      1  0.4504450000000  0.4385970000000  0.5613900000000 1.0
C      1  0.5961720000000  0.5167260000000  0.4643310000000 1.0
C      1  0.4831280000000  0.5931450000000  0.4623870000000 1.0
C      1  0.4047690000000  0.4819610000000  0.4643700000000 1.0
C      1  0.5144420000000  0.4085010000000  0.4661420000000 1.0
C      1  0.4085660000000  0.5178180000000  0.5321800000000 1.0
C      1  0.5112130000000  0.5877870000000  0.5317230000000 1.0
C      1  0.5966610000000  0.4835520000000  0.5321220000000 1.0
C      1  0.4814880000000  0.4043100000000  0.5338950000000 1.0
C      1  0.5239080000000  0.5577710000000  0.5085810000000 1.0
C      1  0.4475070000000  0.5205000000000  0.5201540000000 1.0
C      1  0.4758370000000  0.4478080000000  0.5100590000000 1.0
C      1  0.5564390000000  0.4818950000000  0.5092520000000 1.0
C      1  0.4834630000000  0.5531630000000  0.4900870000000 1.0
C      1  0.5564630000000  0.5219680000000  0.4941890000000 1.0
C      1  0.5195860000000  0.4452190000000  0.4900150000000 1.0
C      1  0.4420550000000  0.4828750000000  0.4784950000000 1.0
C      1  0.5017380000000  0.5550070000000  0.4664070000000 1.0
C      1  0.4428540000000  0.5089250000000  0.4730330000000 1.0
C      1  0.4963050000000  0.4503420000000  0.4696520000000 1.0
C      1  0.5552730000000  0.5007810000000  0.4701400000000 1.0
C      1  0.4984140000000  0.5509580000000  0.5122360000000 1.0
C      1  0.5612150000000  0.5024350000000  0.5312850000000 1.0
C      1  0.4974320000000  0.4441180000000  0.5305500000000 1.0
C      1  0.4442610000000  0.5025020000000  0.5406730000000 1.0
C      1  0.5168960000000  0.5110060000000  0.5176380000000 1.0
C      1  0.4867940000000  0.5152120000000  0.5254490000000 1.0
C      1  0.4746960000000  0.4863020000000  0.5205970000000 1.0
C      1  0.5068960000000  0.4813090000000  0.5192900000000 1.0
C      1  0.4864090000000  0.5130960000000  0.4919050000000 1.0
C      1  0.5191030000000  0.5172130000000  0.4877930000000 1.0
C      1  0.5139420000000  0.4847480000000  0.4876470000000 1.0
C      1  0.4799940000000  0.4801590000000  0.4901260000000 1.0
C      1  0.5359920000000  0.5468750000000  0.4146340000000 1.0
C      1  0.4573380000000  0.5305390000000  0.4172600000000 1.0
C      1  0.4660220000000  0.4539630000000  0.4172480000000 1.0
C      1  0.5438980000000  0.4686720000000  0.4177420000000 1.0
C      1  0.4661290000000  0.5360300000000  0.5810120000000 1.0
C      1  0.5455790000000  0.5355390000000  0.5827360000000 1.0
C      1  0.5305900000000  0.4596560000000  0.5802420000000 1.0
C      1  0.4514650000000  0.4648430000000  0.5837240000000 1.0
C      1  0.5017090000000  0.4061020000000  0.5135010000000 1.0
C      1  0.5984340000000  0.5040110000000  0.5122950000000 1.0
C      1  0.4913830000000  0.5902430000000  0.5115130000000 1.0
C      1  0.4079000000000  0.4960800000000  0.5131540000000 1.0
C      1  0.4935790000000  0.4081810000000  0.4857180000000 1.0
C      1  0.4054410000000  0.5020640000000  0.4849770000000 1.0
C      1  0.5015380000000  0.5914080000000  0.4843050000000 1.0
C      1  0.5966210000000  0.4960670000000  0.4844390000000 1.0
C      1  0.4922190000000  0.4835090000000  0.5563470000000 1.0
C      1  0.5029900000000  0.5025660000000  0.4535590000000 1.0
END
