TITL C-2782231-7322-934 0.00231987348863125 125000 -840.765023509954 0 0 147 (C1) n - 1
REM
REM in /home/nfs/bkarasulu/CARBON/AIRSS/Generating-Clusters/REBO/Higher-Symm/SD-CG/HFTN-CG
REM
REM
REM
REM
REM
REM ./C.cell (12c818d87b63d06a65506943cc24bca4)
REM
REM compiler GCC version 9.2.1 20190827 (Red Hat 9.2.1-1)
REM options -cpp -mtune=generic -march=x86-64 -g -O0 -fpre-include=/usr/include/finclude/math-vector-fortran.h
REM seed 1316307116 -1203910659 -1998158933 -2032283570 -1771163711 -195378856 -1892997217 -1156106719 428508092 -1041608069 644655028 60974488 -694915104 -635950235 -797412441 -786508114 1447479170 -1589479034 1887219733 2028104450 42260825 -1396364108 -943744494 -567024351 -2135527487 2055894355 33943655 -1861771401 -593143613 1309840113 -1101158230 1422625431 2044458287
REM
CELL 1.54180   50.00000   50.00000   50.00000   90.00000   90.00000   90.00000
LATT -1
SFAC C  
C      1  0.4345400000000  0.4428690000000  0.5267280000000 1.0
C      1  0.4637710000000  0.4381290000000  0.4445990000000 1.0
C      1  0.5394940000000  0.4421620000000  0.4407240000000 1.0
C      1  0.5718850000000  0.4323390000000  0.5121010000000 1.0
C      1  0.5088830000000  0.4434900000000  0.5679510000000 1.0
C      1  0.4907150000000  0.4481500000000  0.4171320000000 1.0
C      1  0.5740840000000  0.4407680000000  0.4604570000000 1.0
C      1  0.5601760000000  0.4577640000000  0.5535300000000 1.0
C      1  0.4557270000000  0.4473410000000  0.5765440000000 1.0
C      1  0.4201520000000  0.4554660000000  0.4775020000000 1.0
C      1  0.5244700000000  0.4077760000000  0.5102880000000 1.0
C      1  0.4956150000000  0.4108280000000  0.5265230000000 1.0
C      1  0.4703750000000  0.4068360000000  0.5040400000000 1.0
C      1  0.4886640000000  0.4085130000000  0.4750880000000 1.0
C      1  0.5204510000000  0.4071440000000  0.4819370000000 1.0
C      1  0.4833330000000  0.5495910000000  0.4047280000000 1.0
C      1  0.5842770000000  0.5457550000000  0.4568380000000 1.0
C      1  0.5656620000000  0.5484630000000  0.5678510000000 1.0
C      1  0.4586780000000  0.5451540000000  0.5834670000000 1.0
C      1  0.4087200000000  0.5480900000000  0.4884690000000 1.0
C      1  0.4536120000000  0.5367890000000  0.5387550000000 1.0
C      1  0.4465040000000  0.5405380000000  0.4711180000000 1.0
C      1  0.5057610000000  0.5457020000000  0.4373570000000 1.0
C      1  0.5631970000000  0.5369350000000  0.4939440000000 1.0
C      1  0.5299190000000  0.5500470000000  0.5500340000000 1.0
C      1  0.4543250000000  0.5882010000000  0.4784650000000 1.0
C      1  0.5074140000000  0.5754710000000  0.4493910000000 1.0
C      1  0.5501600000000  0.5848260000000  0.4932610000000 1.0
C      1  0.5237970000000  0.5816250000000  0.5488620000000 1.0
C      1  0.4632690000000  0.5881350000000  0.5387980000000 1.0
C      1  0.4345880000000  0.5087620000000  0.5112940000000 1.0
C      1  0.4655610000000  0.5134220000000  0.4334530000000 1.0
C      1  0.5442110000000  0.5146190000000  0.4519440000000 1.0
C      1  0.5597900000000  0.5089090000000  0.5344240000000 1.0
C      1  0.4865000000000  0.5197300000000  0.5701730000000 1.0
C      1  0.5710880000000  0.5202100000000  0.5648110000000 1.0
C      1  0.4607180000000  0.5155250000000  0.5906920000000 1.0
C      1  0.4074580000000  0.5200300000000  0.4938310000000 1.0
C      1  0.4827350000000  0.5207270000000  0.4077250000000 1.0
C      1  0.5779970000000  0.5169330000000  0.4528570000000 1.0
C      1  0.5507130000000  0.5809010000000  0.5274410000000 1.0
C      1  0.4907860000000  0.5826740000000  0.5583740000000 1.0
C      1  0.4433700000000  0.5853100000000  0.5107640000000 1.0
C      1  0.4738340000000  0.5817630000000  0.4508530000000 1.0
C      1  0.5393280000000  0.5799750000000  0.4612720000000 1.0
C      1  0.4302720000000  0.5145670000000  0.4616290000000 1.0
C      1  0.5153450000000  0.5151620000000  0.4329560000000 1.0
C      1  0.5804910000000  0.5102420000000  0.4920000000000 1.0
C      1  0.5179670000000  0.5268470000000  0.5590630000000 1.0
C      1  0.4429410000000  0.5117430000000  0.5558130000000 1.0
C      1  0.5988060000000  0.4738530000000  0.4906400000000 1.0
C      1  0.5359510000000  0.4800600000000  0.5905100000000 1.0
C      1  0.4218200000000  0.4778980000000  0.5615230000000 1.0
C      1  0.4123440000000  0.4770170000000  0.4557070000000 1.0
C      1  0.5216420000000  0.4822420000000  0.4029660000000 1.0
C      1  0.5676320000000  0.4165990000000  0.4821590000000 1.0
C      1  0.5333490000000  0.4286480000000  0.5493830000000 1.0
C      1  0.4546710000000  0.4214330000000  0.5440270000000 1.0
C      1  0.4297480000000  0.4170080000000  0.4819840000000 1.0
C      1  0.5123360000000  0.4219120000000  0.4372870000000 1.0
C      1  0.4214410000000  0.4690760000000  0.5092880000000 1.0
C      1  0.4667840000000  0.4682330000000  0.4289680000000 1.0
C      1  0.5611680000000  0.4676770000000  0.4484470000000 1.0
C      1  0.5790120000000  0.4584370000000  0.5317270000000 1.0
C      1  0.4845850000000  0.4652650000000  0.5783260000000 1.0
C      1  0.4116440000000  0.4879170000000  0.5361530000000 1.0
C      1  0.4390590000000  0.4838300000000  0.4381140000000 1.0
C      1  0.5433930000000  0.4842700000000  0.4267320000000 1.0
C      1  0.5925170000000  0.4813020000000  0.5181410000000 1.0
C      1  0.5067930000000  0.4898320000000  0.5867260000000 1.0
C      1  0.4732420000000  0.5418180000000  0.4492100000000 1.0
C      1  0.5467920000000  0.5415760000000  0.4695220000000 1.0
C      1  0.5522470000000  0.5408410000000  0.5260090000000 1.0
C      1  0.4808920000000  0.5447940000000  0.5502760000000 1.0
C      1  0.4442340000000  0.5406460000000  0.5053030000000 1.0
C      1  0.4330240000000  0.5156960000000  0.4278980000000 1.0
C      1  0.5426230000000  0.5151640000000  0.4125120000000 1.0
C      1  0.5955390000000  0.5123220000000  0.5215560000000 1.0
C      1  0.5116980000000  0.5193720000000  0.6009410000000 1.0
C      1  0.4052550000000  0.5153180000000  0.5373500000000 1.0
C      1  0.4890450000000  0.5588370000000  0.5800470000000 1.0
C      1  0.4206680000000  0.5637530000000  0.5134820000000 1.0
C      1  0.4613860000000  0.5642190000000  0.4263290000000 1.0
C      1  0.5561870000000  0.5596360000000  0.4433320000000 1.0
C      1  0.5748570000000  0.5626500000000  0.5383370000000 1.0
C      1  0.4341200000000  0.4982280000000  0.5841720000000 1.0
C      1  0.3994210000000  0.5022670000000  0.4695060000000 1.0
C      1  0.5020800000000  0.5021140000000  0.3975670000000 1.0
C      1  0.5981480000000  0.4963400000000  0.4671820000000 1.0
C      1  0.5568240000000  0.5010130000000  0.5846970000000 1.0
C      1  0.5207460000000  0.4537560000000  0.4146620000000 1.0
C      1  0.5907330000000  0.4466790000000  0.4874860000000 1.0
C      1  0.5393550000000  0.4554010000000  0.5774320000000 1.0
C      1  0.4351310000000  0.4528070000000  0.5587700000000 1.0
C      1  0.4405560000000  0.4343520000000  0.4600060000000 1.0
C      1  0.5434850000000  0.5542930000000  0.5872620000000 1.0
C      1  0.4352680000000  0.5525960000000  0.5703470000000 1.0
C      1  0.4110210000000  0.5561180000000  0.4620630000000 1.0
C      1  0.5097390000000  0.5592280000000  0.4002770000000 1.0
C      1  0.5972600000000  0.5527240000000  0.4809260000000 1.0
C      1  0.5018610000000  0.5015000000000  0.4692400000000 1.0
C      1  0.5254790000000  0.4998900000000  0.4938450000000 1.0
C      1  0.5137410000000  0.5025390000000  0.5245810000000 1.0
C      1  0.4823110000000  0.5028130000000  0.5187200000000 1.0
C      1  0.4741220000000  0.5031460000000  0.4879470000000 1.0
C      1  0.4933560000000  0.5345400000000  0.4734510000000 1.0
C      1  0.5221630000000  0.5324110000000  0.4837650000000 1.0
C      1  0.5221440000000  0.5334970000000  0.5146360000000 1.0
C      1  0.4921110000000  0.5357220000000  0.5241370000000 1.0
C      1  0.4752880000000  0.5360820000000  0.4984800000000 1.0
C      1  0.4864620000000  0.4207260000000  0.4479610000000 1.0
C      1  0.5408240000000  0.4188990000000  0.4657770000000 1.0
C      1  0.5442550000000  0.4206090000000  0.5255670000000 1.0
C      1  0.4847520000000  0.4271920000000  0.5503720000000 1.0
C      1  0.4424630000000  0.4175180000000  0.5063160000000 1.0
C      1  0.4814540000000  0.4673040000000  0.4720630000000 1.0
C      1  0.5222290000000  0.4589770000000  0.4725130000000 1.0
C      1  0.5340810000000  0.4624600000000  0.5104540000000 1.0
C      1  0.5023610000000  0.4657300000000  0.5341910000000 1.0
C      1  0.4682090000000  0.4652040000000  0.5099570000000 1.0
C      1  0.5514910000000  0.4527820000000  0.4839280000000 1.0
C      1  0.5337900000000  0.4734250000000  0.5424640000000 1.0
C      1  0.4722090000000  0.4570290000000  0.5414740000000 1.0
C      1  0.4518130000000  0.4641760000000  0.4840030000000 1.0
C      1  0.5000500000000  0.4582220000000  0.4483650000000 1.0
C      1  0.5235760000000  0.5731320000000  0.5100620000000 1.0
C      1  0.4988800000000  0.5749610000000  0.5273620000000 1.0
C      1  0.4743730000000  0.5743550000000  0.5098460000000 1.0
C      1  0.4839410000000  0.5725630000000  0.4812670000000 1.0
C      1  0.5144850000000  0.5715960000000  0.4815970000000 1.0
C      1  0.4988150000000  0.4926490000000  0.5535410000000 1.0
C      1  0.4554630000000  0.4900930000000  0.5269380000000 1.0
C      1  0.4640280000000  0.4932280000000  0.4595130000000 1.0
C      1  0.5271800000000  0.4860320000000  0.4567670000000 1.0
C      1  0.5518920000000  0.4903870000000  0.5108170000000 1.0
C      1  0.4340540000000  0.4915110000000  0.4855750000000 1.0
C      1  0.4943160000000  0.4883860000000  0.4341840000000 1.0
C      1  0.5623050000000  0.4845290000000  0.4784410000000 1.0
C      1  0.5369860000000  0.5018680000000  0.5570160000000 1.0
C      1  0.4613190000000  0.4829460000000  0.5597150000000 1.0
C      1  0.5351050000000  0.5471990000000  0.4197440000000 1.0
C      1  0.5899630000000  0.5449500000000  0.5134180000000 1.0
C      1  0.5153620000000  0.5462750000000  0.5937860000000 1.0
C      1  0.4207790000000  0.5439070000000  0.5407500000000 1.0
C      1  0.4349070000000  0.5475240000000  0.4394960000000 1.0
C      1  0.4934680000000  0.4303940000000  0.4997080000000 1.0
C      1  0.5012370000000  0.4610510000000  0.4999750000000 1.0
END
