TITL C-2782230-7391-527 1.15456718389409e-05 125000 -692.957403920418 0 0 118 (C1) n - 1
REM
REM in /home/nfs/bkarasulu/CARBON/AIRSS/Generating-Clusters/REBO/Higher-Symm/SD-CG/HFTN-CG
REM
REM
REM
REM
REM
REM ./C.cell (12c818d87b63d06a65506943cc24bca4)
REM
REM compiler GCC version 9.2.1 20190827 (Red Hat 9.2.1-1)
REM options -cpp -mtune=generic -march=x86-64 -g -O0 -fpre-include=/usr/include/finclude/math-vector-fortran.h
REM seed -1416745676 543247267 -1841323763 1694296955 535119105 2092065433 379892851 971187757 1963863655 1389636719 1659416963 1112029840 -1739027124 -955387687 545613121 -517115800 -152885935 -429637344 1434506045 -1568732786 -628586006 -797559498 1865348472 -1968417068 -1767793709 -2052249227 -210944562 -656246133 891729115 1645618048 -327741963 -567499788 1022700614
REM
CELL 1.54180   50.00000   50.00000   50.00000   90.00000   90.00000   90.00000
LATT -1
SFAC C  
C      1  0.5691370000000  0.4406060000000  0.4982920000000 1.0
C      1  0.5704900000000  0.5592690000000  0.4909820000000 1.0
C      1  0.5154240000000  0.4115000000000  0.5375750000000 1.0
C      1  0.5222840000000  0.5837260000000  0.5337750000000 1.0
C      1  0.5701970000000  0.5601430000000  0.5247740000000 1.0
C      1  0.5660250000000  0.4298070000000  0.5273610000000 1.0
C      1  0.4598400000000  0.4757790000000  0.5827870000000 1.0
C      1  0.4478070000000  0.5272050000000  0.5990650000000 1.0
C      1  0.5517110000000  0.4417060000000  0.5491100000000 1.0
C      1  0.5571630000000  0.5546270000000  0.5500570000000 1.0
C      1  0.5563270000000  0.4870890000000  0.4330360000000 1.0
C      1  0.5559670000000  0.5191670000000  0.4328270000000 1.0
C      1  0.5117360000000  0.4884290000000  0.4539200000000 1.0
C      1  0.5113710000000  0.5187430000000  0.4599780000000 1.0
C      1  0.4764470000000  0.5777730000000  0.5481290000000 1.0
C      1  0.4686510000000  0.4237870000000  0.5461500000000 1.0
C      1  0.4135000000000  0.5464290000000  0.5001660000000 1.0
C      1  0.4176380000000  0.4567400000000  0.4987530000000 1.0
C      1  0.4872630000000  0.5231710000000  0.4789720000000 1.0
C      1  0.4910040000000  0.4752400000000  0.4731200000000 1.0
C      1  0.5409130000000  0.5118790000000  0.5730080000000 1.0
C      1  0.5431810000000  0.4815950000000  0.5749340000000 1.0
C      1  0.4749680000000  0.4838780000000  0.5312700000000 1.0
C      1  0.4731570000000  0.5174200000000  0.5379190000000 1.0
C      1  0.5482990000000  0.5824980000000  0.4797960000000 1.0
C      1  0.5471910000000  0.4242680000000  0.4791540000000 1.0
C      1  0.5135530000000  0.4837290000000  0.5576650000000 1.0
C      1  0.5120320000000  0.5178330000000  0.5570280000000 1.0
C      1  0.4831840000000  0.5544730000000  0.5161930000000 1.0
C      1  0.4865480000000  0.4449300000000  0.5173840000000 1.0
C      1  0.6038560000000  0.5114040000000  0.4943670000000 1.0
C      1  0.6019910000000  0.4860530000000  0.4934910000000 1.0
C      1  0.4194490000000  0.5305900000000  0.5570170000000 1.0
C      1  0.4213290000000  0.4733060000000  0.5538490000000 1.0
C      1  0.4007920000000  0.5168570000000  0.5408030000000 1.0
C      1  0.4037950000000  0.4873590000000  0.5365480000000 1.0
C      1  0.5747630000000  0.4725620000000  0.5018550000000 1.0
C      1  0.5789170000000  0.5282560000000  0.5023840000000 1.0
C      1  0.5170800000000  0.5716750000000  0.5046620000000 1.0
C      1  0.5259660000000  0.4260680000000  0.5128120000000 1.0
C      1  0.5789460000000  0.4775910000000  0.4556460000000 1.0
C      1  0.5800420000000  0.5107260000000  0.4547220000000 1.0
C      1  0.5605640000000  0.4675770000000  0.5567810000000 1.0
C      1  0.5628480000000  0.5274500000000  0.5623330000000 1.0
C      1  0.5051330000000  0.4853470000000  0.4217690000000 1.0
C      1  0.5069050000000  0.5181330000000  0.4276260000000 1.0
C      1  0.4679310000000  0.4572010000000  0.5504890000000 1.0
C      1  0.4664470000000  0.5466560000000  0.5512790000000 1.0
C      1  0.5052150000000  0.4409060000000  0.4584810000000 1.0
C      1  0.5011250000000  0.5652400000000  0.4623520000000 1.0
C      1  0.4739370000000  0.4357940000000  0.4457210000000 1.0
C      1  0.4714630000000  0.5627020000000  0.4449250000000 1.0
C      1  0.4336990000000  0.4419290000000  0.5174630000000 1.0
C      1  0.4316640000000  0.5606490000000  0.5184700000000 1.0
C      1  0.4933770000000  0.5902550000000  0.5308630000000 1.0
C      1  0.4869010000000  0.4074520000000  0.5312260000000 1.0
C      1  0.5525440000000  0.4870830000000  0.4840400000000 1.0
C      1  0.5547190000000  0.5184340000000  0.4846010000000 1.0
C      1  0.4591510000000  0.4278620000000  0.5058270000000 1.0
C      1  0.4576130000000  0.5737530000000  0.5039230000000 1.0
C      1  0.4557300000000  0.5352530000000  0.4376370000000 1.0
C      1  0.4559180000000  0.4598920000000  0.4340380000000 1.0
C      1  0.4873740000000  0.5900020000000  0.4989250000000 1.0
C      1  0.4872370000000  0.4089710000000  0.5000710000000 1.0
C      1  0.4820020000000  0.5521050000000  0.4819840000000 1.0
C      1  0.4856040000000  0.4462350000000  0.4832380000000 1.0
C      1  0.5317950000000  0.5339840000000  0.4208550000000 1.0
C      1  0.5323990000000  0.4695100000000  0.4204680000000 1.0
C      1  0.5009950000000  0.4575700000000  0.5463020000000 1.0
C      1  0.5001340000000  0.5458040000000  0.5448430000000 1.0
C      1  0.4519960000000  0.5121590000000  0.5151450000000 1.0
C      1  0.4555510000000  0.4840680000000  0.5039160000000 1.0
C      1  0.4377320000000  0.4848130000000  0.4788170000000 1.0
C      1  0.4305500000000  0.5121820000000  0.4909570000000 1.0
C      1  0.4309350000000  0.5158430000000  0.5790400000000 1.0
C      1  0.4345130000000  0.4874470000000  0.5746730000000 1.0
C      1  0.4763720000000  0.4888230000000  0.6009710000000 1.0
C      1  0.4700870000000  0.5144530000000  0.6094200000000 1.0
C      1  0.5683180000000  0.5179480000000  0.5305540000000 1.0
C      1  0.5693340000000  0.4844460000000  0.5307380000000 1.0
C      1  0.4301420000000  0.5391640000000  0.4718270000000 1.0
C      1  0.4309400000000  0.4543360000000  0.4693040000000 1.0
C      1  0.4686020000000  0.5127560000000  0.4577850000000 1.0
C      1  0.4721650000000  0.4836930000000  0.4505310000000 1.0
C      1  0.4953060000000  0.4813410000000  0.5041050000000 1.0
C      1  0.4914690000000  0.5129290000000  0.5095020000000 1.0
C      1  0.5347690000000  0.4804540000000  0.5093680000000 1.0
C      1  0.5308680000000  0.5139520000000  0.5038940000000 1.0
C      1  0.5392220000000  0.4768930000000  0.4595540000000 1.0
C      1  0.5404640000000  0.5300290000000  0.4610320000000 1.0
C      1  0.4519160000000  0.5606760000000  0.4727730000000 1.0
C      1  0.4550640000000  0.4354790000000  0.4728440000000 1.0
C      1  0.5350250000000  0.5256920000000  0.5340410000000 1.0
C      1  0.5373110000000  0.4937870000000  0.5375800000000 1.0
C      1  0.5785340000000  0.5417640000000  0.4626830000000 1.0
C      1  0.5735980000000  0.4509900000000  0.4660690000000 1.0
C      1  0.4304180000000  0.5147420000000  0.4480140000000 1.0
C      1  0.4324730000000  0.4807470000000  0.4471910000000 1.0
C      1  0.4759640000000  0.5126240000000  0.4234030000000 1.0
C      1  0.4739920000000  0.4801760000000  0.4159390000000 1.0
C      1  0.5550320000000  0.4301990000000  0.4462590000000 1.0
C      1  0.5565430000000  0.5652210000000  0.4513490000000 1.0
C      1  0.5120130000000  0.5400940000000  0.5052820000000 1.0
C      1  0.5175340000000  0.4561710000000  0.5100290000000 1.0
C      1  0.5311300000000  0.5617770000000  0.4287400000000 1.0
C      1  0.5314770000000  0.4407040000000  0.4240320000000 1.0
C      1  0.5327500000000  0.4483280000000  0.4631220000000 1.0
C      1  0.5281720000000  0.5589110000000  0.4684450000000 1.0
C      1  0.5293010000000  0.5621340000000  0.5512010000000 1.0
C      1  0.5236230000000  0.4362260000000  0.5513880000000 1.0
C      1  0.5011270000000  0.5718760000000  0.4305490000000 1.0
C      1  0.5022650000000  0.4292440000000  0.4278120000000 1.0
C      1  0.4023800000000  0.5151630000000  0.5079860000000 1.0
C      1  0.4051990000000  0.4807550000000  0.5070870000000 1.0
C      1  0.4374060000000  0.4530500000000  0.5427330000000 1.0
C      1  0.4363790000000  0.5493470000000  0.5441020000000 1.0
C      1  0.5168940000000  0.5956240000000  0.4824500000000 1.0
C      1  0.5167890000000  0.4111270000000  0.4879030000000 1.0
END
