TITL C-2782239-8622-563 0.000907175957074683 125000 -1004.5368286278 0 0 175 (C1) n - 1
REM
REM in /home/nfs/bkarasulu/CARBON/AIRSS/Generating-Clusters/REBO/Higher-Symm/SD-CG/HFTN-CG
REM
REM
REM
REM
REM
REM ./C.cell (12c818d87b63d06a65506943cc24bca4)
REM
REM compiler GCC version 9.2.1 20190827 (Red Hat 9.2.1-1)
REM options -cpp -mtune=generic -march=x86-64 -g -O0 -fpre-include=/usr/include/finclude/math-vector-fortran.h
REM seed -2091819050 -1319193810 130984820 1213701021 -1150839113 139095313 -2012586848 2135266884 -824112807 1975460310 1882070041 -1143127503 -1889791866 -1531724103 -59878566 -1625283083 599533897 -1158960549 -141848231 551375730 -1715320272 -611097600 -51984969 -223486066 -1037834587 -546958362 1250052709 1830149805 -1817928157 -114085142 1450547917 -1877209533 -1512060532
REM
CELL 1.54180   50.00000   50.00000   50.00000   90.00000   90.00000   90.00000
LATT -1
SFAC C  
C      1  0.4856250000000  0.5844890000000  0.4731710000000 1.0
C      1  0.4844950000000  0.5863360000000  0.5221530000000 1.0
C      1  0.5319230000000  0.5932900000000  0.5008750000000 1.0
C      1  0.4874440000000  0.4015830000000  0.5267960000000 1.0
C      1  0.4918440000000  0.4145380000000  0.4725820000000 1.0
C      1  0.5307610000000  0.4072270000000  0.4977530000000 1.0
C      1  0.5186620000000  0.3951450000000  0.5258080000000 1.0
C      1  0.5180650000000  0.4003000000000  0.4729270000000 1.0
C      1  0.4777480000000  0.4125820000000  0.4983750000000 1.0
C      1  0.5132890000000  0.5812430000000  0.4770990000000 1.0
C      1  0.5148310000000  0.5986880000000  0.5260560000000 1.0
C      1  0.4662130000000  0.5885860000000  0.4978560000000 1.0
C      1  0.4618200000000  0.4066040000000  0.5473860000000 1.0
C      1  0.5563920000000  0.3945000000000  0.5126270000000 1.0
C      1  0.4914810000000  0.4021210000000  0.4427730000000 1.0
C      1  0.4584350000000  0.5977490000000  0.4597410000000 1.0
C      1  0.5627750000000  0.5891060000000  0.4870480000000 1.0
C      1  0.4845940000000  0.5991870000000  0.5519520000000 1.0
C      1  0.5401160000000  0.5898190000000  0.4619130000000 1.0
C      1  0.4375770000000  0.5967700000000  0.4866610000000 1.0
C      1  0.5181450000000  0.5965620000000  0.5585260000000 1.0
C      1  0.5466450000000  0.3980020000000  0.5450600000000 1.0
C      1  0.4496080000000  0.4093920000000  0.5155780000000 1.0
C      1  0.5258070000000  0.3975090000000  0.4440230000000 1.0
C      1  0.4459430000000  0.4968710000000  0.4881780000000 1.0
C      1  0.5121270000000  0.4856910000000  0.5439810000000 1.0
C      1  0.5223200000000  0.4901860000000  0.4762310000000 1.0
C      1  0.4730560000000  0.4977430000000  0.5067300000000 1.0
C      1  0.5141600000000  0.5170160000000  0.4742820000000 1.0
C      1  0.5296150000000  0.5086180000000  0.5315170000000 1.0
C      1  0.5420260000000  0.4996340000000  0.5095410000000 1.0
C      1  0.4839730000000  0.5249060000000  0.4711480000000 1.0
C      1  0.4816740000000  0.5205500000000  0.5251150000000 1.0
C      1  0.5538880000000  0.4868670000000  0.4866620000000 1.0
C      1  0.4844140000000  0.4950880000000  0.5447380000000 1.0
C      1  0.4691390000000  0.5012870000000  0.4674190000000 1.0
C      1  0.5536200000000  0.4093460000000  0.4570610000000 1.0
C      1  0.4414940000000  0.4084530000000  0.4831660000000 1.0
C      1  0.5197310000000  0.4095320000000  0.5624570000000 1.0
C      1  0.5472890000000  0.5849480000000  0.5447880000000 1.0
C      1  0.4324740000000  0.5886340000000  0.5188070000000 1.0
C      1  0.5143960000000  0.6003970000000  0.4421510000000 1.0
C      1  0.4522750000000  0.5914540000000  0.5445730000000 1.0
C      1  0.5648290000000  0.5814120000000  0.5196200000000 1.0
C      1  0.4822450000000  0.5952720000000  0.4355710000000 1.0
C      1  0.4597440000000  0.3989830000000  0.4560040000000 1.0
C      1  0.5678320000000  0.4027080000000  0.4840160000000 1.0
C      1  0.4903110000000  0.4140240000000  0.5644310000000 1.0
C      1  0.4188160000000  0.5296520000000  0.5335810000000 1.0
C      1  0.5632750000000  0.5251130000000  0.5602330000000 1.0
C      1  0.5174150000000  0.5252300000000  0.4100480000000 1.0
C      1  0.4208980000000  0.4708730000000  0.4713010000000 1.0
C      1  0.5676330000000  0.4733230000000  0.4419230000000 1.0
C      1  0.5130760000000  0.4684480000000  0.5864290000000 1.0
C      1  0.5853010000000  0.4660440000000  0.4706710000000 1.0
C      1  0.4385440000000  0.4795280000000  0.4433460000000 1.0
C      1  0.4793370000000  0.4731350000000  0.5885340000000 1.0
C      1  0.5746900000000  0.5242910000000  0.5304600000000 1.0
C      1  0.4278150000000  0.5332440000000  0.5654790000000 1.0
C      1  0.4852290000000  0.5350940000000  0.4087410000000 1.0
C      1  0.5169270000000  0.4756700000000  0.4019960000000 1.0
C      1  0.4002520000000  0.4743140000000  0.5371030000000 1.0
C      1  0.5746080000000  0.4726210000000  0.5650420000000 1.0
C      1  0.5149120000000  0.5228750000000  0.6004730000000 1.0
C      1  0.4024450000000  0.5222230000000  0.4517300000000 1.0
C      1  0.5705170000000  0.5293710000000  0.4242800000000 1.0
C      1  0.4810220000000  0.5270180000000  0.6032210000000 1.0
C      1  0.5894820000000  0.5217960000000  0.4518220000000 1.0
C      1  0.4217750000000  0.5266970000000  0.4237090000000 1.0
C      1  0.4824910000000  0.4772260000000  0.4059770000000 1.0
C      1  0.5961080000000  0.4715650000000  0.5379030000000 1.0
C      1  0.4192150000000  0.4777010000000  0.5659210000000 1.0
C      1  0.5840900000000  0.5693650000000  0.4749820000000 1.0
C      1  0.4396020000000  0.5703530000000  0.4410850000000 1.0
C      1  0.4874260000000  0.5622150000000  0.5733410000000 1.0
C      1  0.5755600000000  0.4373970000000  0.5292100000000 1.0
C      1  0.4409070000000  0.4280590000000  0.5561900000000 1.0
C      1  0.4873050000000  0.4259820000000  0.4226880000000 1.0
C      1  0.4324710000000  0.4416670000000  0.5262820000000 1.0
C      1  0.5667600000000  0.4199210000000  0.5565050000000 1.0
C      1  0.5142390000000  0.4455040000000  0.4280730000000 1.0
C      1  0.4235410000000  0.5650720000000  0.4706650000000 1.0
C      1  0.5492350000000  0.5648520000000  0.4450250000000 1.0
C      1  0.5186430000000  0.5728770000000  0.5787890000000 1.0
C      1  0.4475800000000  0.5384770000000  0.4520540000000 1.0
C      1  0.4834470000000  0.5302010000000  0.5636120000000 1.0
C      1  0.5610680000000  0.5256680000000  0.4808000000000 1.0
C      1  0.4557690000000  0.4827390000000  0.5504940000000 1.0
C      1  0.4827860000000  0.4834820000000  0.4453350000000 1.0
C      1  0.5612090000000  0.4662510000000  0.5201030000000 1.0
C      1  0.5419120000000  0.4722040000000  0.5423230000000 1.0
C      1  0.5104670000000  0.4749890000000  0.4412400000000 1.0
C      1  0.4385740000000  0.4757480000000  0.5276550000000 1.0
C      1  0.5455310000000  0.5321800000000  0.4548000000000 1.0
C      1  0.5146360000000  0.5225030000000  0.5589680000000 1.0
C      1  0.4334320000000  0.5341080000000  0.4817070000000 1.0
C      1  0.4178760000000  0.5047370000000  0.4748880000000 1.0
C      1  0.5236880000000  0.4974110000000  0.5803220000000 1.0
C      1  0.5524670000000  0.5035020000000  0.4372320000000 1.0
C      1  0.4156900000000  0.5007520000000  0.5238960000000 1.0
C      1  0.5237380000000  0.4993520000000  0.4242850000000 1.0
C      1  0.5513910000000  0.4967620000000  0.5639390000000 1.0
C      1  0.5797670000000  0.4954570000000  0.5216330000000 1.0
C      1  0.4733940000000  0.5056310000000  0.4210070000000 1.0
C      1  0.4398490000000  0.5044450000000  0.5699090000000 1.0
C      1  0.5796390000000  0.4992020000000  0.4732800000000 1.0
C      1  0.4706520000000  0.5036590000000  0.5811470000000 1.0
C      1  0.4454670000000  0.5085960000000  0.4363910000000 1.0
C      1  0.4337080000000  0.5631210000000  0.5492740000000 1.0
C      1  0.5867010000000  0.5555690000000  0.5231210000000 1.0
C      1  0.4868920000000  0.5690290000000  0.4137980000000 1.0
C      1  0.4447290000000  0.4242620000000  0.4471950000000 1.0
C      1  0.5809460000000  0.4321110000000  0.4752340000000 1.0
C      1  0.4853410000000  0.4397050000000  0.5845870000000 1.0
C      1  0.5652740000000  0.4393550000000  0.4474740000000 1.0
C      1  0.4273070000000  0.4372830000000  0.4715310000000 1.0
C      1  0.5172700000000  0.4346030000000  0.5852460000000 1.0
C      1  0.5671950000000  0.5577240000000  0.5510270000000 1.0
C      1  0.4135880000000  0.5612170000000  0.5215830000000 1.0
C      1  0.5150780000000  0.5825650000000  0.4173610000000 1.0
C      1  0.4551890000000  0.4428870000000  0.5787110000000 1.0
C      1  0.5897670000000  0.4431610000000  0.5029400000000 1.0
C      1  0.4590090000000  0.4376690000000  0.4279340000000 1.0
C      1  0.4571120000000  0.5620280000000  0.4173930000000 1.0
C      1  0.5973300000000  0.5522830000000  0.4939290000000 1.0
C      1  0.4568200000000  0.5595430000000  0.5724940000000 1.0
C      1  0.5380100000000  0.5670320000000  0.4170400000000 1.0
C      1  0.4023160000000  0.5561280000000  0.4932900000000 1.0
C      1  0.5439940000000  0.5571870000000  0.5739780000000 1.0
C      1  0.5487590000000  0.4312950000000  0.5786250000000 1.0
C      1  0.4157810000000  0.4443110000000  0.5002920000000 1.0
C      1  0.5443020000000  0.4454300000000  0.4255650000000 1.0
C      1  0.4802830000000  0.5463340000000  0.4459160000000 1.0
C      1  0.4575510000000  0.5343730000000  0.5416750000000 1.0
C      1  0.5547020000000  0.5373170000000  0.5085420000000 1.0
C      1  0.4816310000000  0.4610170000000  0.5506630000000 1.0
C      1  0.4664000000000  0.4674800000000  0.4706340000000 1.0
C      1  0.5523460000000  0.4554640000000  0.4897940000000 1.0
C      1  0.5146190000000  0.4527720000000  0.5475540000000 1.0
C      1  0.5358860000000  0.4629970000000  0.4603900000000 1.0
C      1  0.4486490000000  0.4668710000000  0.4997970000000 1.0
C      1  0.5128060000000  0.5386610000000  0.4473800000000 1.0
C      1  0.5343260000000  0.5400040000000  0.5370040000000 1.0
C      1  0.4422350000000  0.5356270000000  0.5110740000000 1.0
C      1  0.5434430000000  0.5311810000000  0.5869640000000 1.0
C      1  0.5422530000000  0.5402710000000  0.4087120000000 1.0
C      1  0.3894020000000  0.5336960000000  0.4809770000000 1.0
C      1  0.5494930000000  0.4719380000000  0.4121260000000 1.0
C      1  0.5463000000000  0.4612260000000  0.5804250000000 1.0
C      1  0.4071870000000  0.4752280000000  0.5029530000000 1.0
C      1  0.4557210000000  0.4646910000000  0.4231850000000 1.0
C      1  0.4450420000000  0.4687920000000  0.5862320000000 1.0
C      1  0.5963610000000  0.4736420000000  0.5027440000000 1.0
C      1  0.4508490000000  0.5367010000000  0.5908280000000 1.0
C      1  0.4504180000000  0.5353020000000  0.4074610000000 1.0
C      1  0.6050540000000  0.5288660000000  0.4812100000000 1.0
C      1  0.5296180000000  0.4379350000000  0.5018150000000 1.0
C      1  0.4875110000000  0.4448690000000  0.4770140000000 1.0
C      1  0.4828650000000  0.4359330000000  0.5302620000000 1.0
C      1  0.5353230000000  0.5593980000000  0.5021370000000 1.0
C      1  0.4888980000000  0.5527180000000  0.5261190000000 1.0
C      1  0.4734260000000  0.5550610000000  0.4775740000000 1.0
C      1  0.4640870000000  0.5559150000000  0.5067510000000 1.0
C      1  0.5173480000000  0.5648170000000  0.5279600000000 1.0
C      1  0.5186790000000  0.5501610000000  0.4780570000000 1.0
C      1  0.4673890000000  0.4437150000000  0.5027930000000 1.0
C      1  0.5130850000000  0.4579360000000  0.4837090000000 1.0
C      1  0.5160360000000  0.4290560000000  0.5277750000000 1.0
C      1  0.5906980000000  0.4441980000000  0.5574870000000 1.0
C      1  0.4977190000000  0.4477480000000  0.3991640000000 1.0
C      1  0.4134570000000  0.4476380000000  0.5529650000000 1.0
C      1  0.5788190000000  0.5531870000000  0.4478640000000 1.0
C      1  0.4112920000000  0.5527280000000  0.4414050000000 1.0
C      1  0.5022810000000  0.5535980000000  0.6015930000000 1.0
C      1  0.4892820000000  0.4767970000000  0.5069360000000 1.0
END
