TITL C-2782240-8521-863 6.44276727750698e-08 125000 -34.9556750130336 0 0 7 (D3h) n - 1
REM
REM in /home/nfs/bkarasulu/CARBON/AIRSS/Generating-Clusters/REBO/Higher-Symm/SD-CG/HFTN-CG
REM
REM
REM
REM
REM
REM ./C.cell (12c818d87b63d06a65506943cc24bca4)
REM
REM compiler GCC version 9.2.1 20190827 (Red Hat 9.2.1-1)
REM options -cpp -mtune=generic -march=x86-64 -g -O0 -fpre-include=/usr/include/finclude/math-vector-fortran.h
REM seed -2037015849 -1988599751 -1478546516 1042399416 -516303566 159680860 -1367524769 395270929 -63263319 -1172911879 343815738 -367301663 569952667 -1401056152 -250334862 2089175990 -1883098330 -1811281107 19086068 -302770955 -189620365 -305187772 1353234050 862774878 -1309510433 508717595 2091258304 690764314 -2091179624 -622550154 -1451320563 1347512704 1778125490
REM
CELL 1.54180   50.00000   50.00000   50.00000   90.00000   90.00000   90.00000
LATT -1
SFAC C  
C      1  0.4429790000000  0.5002420000000  0.4946570000000 1.0
C      1  0.5225590000000  0.5499330000000  0.4945580000000 1.0
C      1  0.5258030000000  0.4561690000000  0.4945410000000 1.0
C      1  0.4691700000000  0.5011480000000  0.4946230000000 1.0
C      1  0.5102480000000  0.5267980000000  0.4945710000000 1.0
C      1  0.5119220000000  0.4783990000000  0.4945630000000 1.0
C      1  0.4971130000000  0.5021150000000  0.4945860000000 1.0
END
