TITL C-2782230-7391-1143 0.00369216510013454 125000 -499.852512548911 0 0 90 (C1) n - 1
REM
REM in /home/nfs/bkarasulu/CARBON/AIRSS/Generating-Clusters/REBO/Higher-Symm/SD-CG/HFTN-CG
REM
REM
REM
REM
REM
REM ./C.cell (12c818d87b63d06a65506943cc24bca4)
REM
REM compiler GCC version 9.2.1 20190827 (Red Hat 9.2.1-1)
REM options -cpp -mtune=generic -march=x86-64 -g -O0 -fpre-include=/usr/include/finclude/math-vector-fortran.h
REM seed -746497377 579286912 684504284 -323544893 1601196532 1694435712 895373340 3224425 -513234077 -413425383 -1288635385 -633211009 -907484538 -416149641 -124438201 -2098472229 1382436957 -777015791 -268601052 -1447460136 -1815126408 680083733 188599320 -1867501549 1780806742 1397908165 1767346192 -1535092566 -1252932736 1622021870 1947954186 308470743 -2059703897
REM
CELL 1.54180   50.00000   50.00000   50.00000   90.00000   90.00000   90.00000
LATT -1
SFAC C  
C      1  0.5008180000000  0.5338280000000  0.5674050000000 1.0
C      1  0.5002180000000  0.4678720000000  0.5692160000000 1.0
C      1  0.5007630000000  0.4240340000000  0.5182410000000 1.0
C      1  0.5016860000000  0.4365140000000  0.4520600000000 1.0
C      1  0.5037490000000  0.4975920000000  0.4222260000000 1.0
C      1  0.4990150000000  0.5595500000000  0.4487760000000 1.0
C      1  0.5028640000000  0.5716830000000  0.5159680000000 1.0
C      1  0.5694350000000  0.4710690000000  0.5231250000000 1.0
C      1  0.5675660000000  0.4655380000000  0.4923970000000 1.0
C      1  0.5664480000000  0.4850650000000  0.4680330000000 1.0
C      1  0.5664720000000  0.5159190000000  0.4664080000000 1.0
C      1  0.5686060000000  0.5371860000000  0.4881400000000 1.0
C      1  0.5687420000000  0.5276610000000  0.5211340000000 1.0
C      1  0.5710120000000  0.4982600000000  0.5387740000000 1.0
C      1  0.4774350000000  0.5659080000000  0.4853300000000 1.0
C      1  0.4834480000000  0.5554040000000  0.5467250000000 1.0
C      1  0.4797170000000  0.5000300000000  0.5669660000000 1.0
C      1  0.4786190000000  0.4465520000000  0.5433730000000 1.0
C      1  0.4789120000000  0.4316630000000  0.4858220000000 1.0
C      1  0.4789690000000  0.4698070000000  0.4380370000000 1.0
C      1  0.4816680000000  0.5335550000000  0.4341280000000 1.0
C      1  0.4145870000000  0.5152850000000  0.5293040000000 1.0
C      1  0.4140830000000  0.4859890000000  0.5301740000000 1.0
C      1  0.4145920000000  0.4672760000000  0.5080160000000 1.0
C      1  0.4151350000000  0.4728300000000  0.4795430000000 1.0
C      1  0.4152140000000  0.4987920000000  0.4649570000000 1.0
C      1  0.4142550000000  0.5249150000000  0.4790150000000 1.0
C      1  0.4133440000000  0.5349580000000  0.5075840000000 1.0
C      1  0.4495180000000  0.5380730000000  0.4919610000000 1.0
C      1  0.4553760000000  0.5299780000000  0.5245350000000 1.0
C      1  0.4496960000000  0.5001740000000  0.5406510000000 1.0
C      1  0.4500770000000  0.4691750000000  0.5261750000000 1.0
C      1  0.4509390000000  0.4611680000000  0.4928970000000 1.0
C      1  0.4512770000000  0.4822150000000  0.4658590000000 1.0
C      1  0.4568480000000  0.5159220000000  0.4667980000000 1.0
C      1  0.5495850000000  0.5589550000000  0.4844430000000 1.0
C      1  0.5487630000000  0.5481310000000  0.5367070000000 1.0
C      1  0.5505350000000  0.4983540000000  0.5599610000000 1.0
C      1  0.5509840000000  0.4521570000000  0.5376490000000 1.0
C      1  0.5514190000000  0.4405300000000  0.4868600000000 1.0
C      1  0.5510160000000  0.4730220000000  0.4453380000000 1.0
C      1  0.5466810000000  0.5259690000000  0.4413090000000 1.0
C      1  0.5185760000000  0.5352460000000  0.4917330000000 1.0
C      1  0.5161340000000  0.5294750000000  0.5252600000000 1.0
C      1  0.5168810000000  0.4997720000000  0.5391240000000 1.0
C      1  0.5191850000000  0.4703810000000  0.5238820000000 1.0
C      1  0.5204160000000  0.4632910000000  0.4929320000000 1.0
C      1  0.5203290000000  0.4828020000000  0.4682080000000 1.0
C      1  0.5190530000000  0.5147850000000  0.4670610000000 1.0
C      1  0.4355020000000  0.5605300000000  0.5130540000000 1.0
C      1  0.4356070000000  0.5286530000000  0.5525030000000 1.0
C      1  0.4338540000000  0.4743100000000  0.5556770000000 1.0
C      1  0.4351060000000  0.4407180000000  0.5150270000000 1.0
C      1  0.4366090000000  0.4515360000000  0.4635490000000 1.0
C      1  0.4375170000000  0.4981850000000  0.4390510000000 1.0
C      1  0.4361440000000  0.5427480000000  0.4610450000000 1.0
C      1  0.5335810000000  0.4700570000000  0.5610330000000 1.0
C      1  0.5339240000000  0.4332130000000  0.5154080000000 1.0
C      1  0.5344420000000  0.4457770000000  0.4579270000000 1.0
C      1  0.5369100000000  0.4946760000000  0.4303930000000 1.0
C      1  0.5324400000000  0.5537360000000  0.4554620000000 1.0
C      1  0.5361300000000  0.5660520000000  0.5097160000000 1.0
C      1  0.5343180000000  0.5282860000000  0.5607740000000 1.0
C      1  0.4875540000000  0.4628890000000  0.5154220000000 1.0
C      1  0.4887760000000  0.4632590000000  0.4826520000000 1.0
C      1  0.4887010000000  0.4896380000000  0.4626690000000 1.0
C      1  0.4868470000000  0.5216200000000  0.4717170000000 1.0
C      1  0.4876670000000  0.5378410000000  0.4993120000000 1.0
C      1  0.4845870000000  0.5202570000000  0.5281130000000 1.0
C      1  0.4857400000000  0.4880910000000  0.5357010000000 1.0
C      1  0.5132630000000  0.5034720000000  0.5727650000000 1.0
C      1  0.5124190000000  0.4468370000000  0.5464180000000 1.0
C      1  0.5125480000000  0.4315950000000  0.4882280000000 1.0
C      1  0.5120500000000  0.4654670000000  0.4411130000000 1.0
C      1  0.5129390000000  0.5250040000000  0.4363810000000 1.0
C      1  0.5103570000000  0.5644520000000  0.4792350000000 1.0
C      1  0.5170720000000  0.5590240000000  0.5428270000000 1.0
C      1  0.4669430000000  0.4288120000000  0.5167460000000 1.0
C      1  0.4682130000000  0.4425590000000  0.4553700000000 1.0
C      1  0.4701860000000  0.5017300000000  0.4294720000000 1.0
C      1  0.4658180000000  0.5545870000000  0.4557040000000 1.0
C      1  0.4687500000000  0.5671870000000  0.5183120000000 1.0
C      1  0.4671110000000  0.5301910000000  0.5627300000000 1.0
C      1  0.4662840000000  0.4687820000000  0.5645380000000 1.0
C      1  0.5299750000000  0.5001900000000  0.5020130000000 1.0
C      1  0.5007940000000  0.4972440000000  0.4999580000000 1.0
C      1  0.5563630000000  0.5024810000000  0.5024950000000 1.0
C      1  0.4725980000000  0.4960120000000  0.4988020000000 1.0
C      1  0.5865740000000  0.4998810000000  0.4990720000000 1.0
C      1  0.4455980000000  0.4995450000000  0.5011400000000 1.0
END
