TITL C-2782232-2968-859 0.000956475461304553 125000 -488.87714557326 0 0 89 (C1) n - 1
REM
REM in /home/nfs/bkarasulu/CARBON/AIRSS/Generating-Clusters/REBO/Higher-Symm/SD-CG/HFTN-CG
REM
REM
REM
REM
REM
REM ./C.cell (12c818d87b63d06a65506943cc24bca4)
REM
REM compiler GCC version 9.2.1 20190827 (Red Hat 9.2.1-1)
REM options -cpp -mtune=generic -march=x86-64 -g -O0 -fpre-include=/usr/include/finclude/math-vector-fortran.h
REM seed -291630744 1553070698 -1210920173 176856478 1234243112 -44842842 -157942512 -603414428 -1461166815 1191701877 1330250561 1834639796 -1668567192 -618789506 871501487 -26498648 -1099266769 1794854856 351870685 -815573643 -1041827690 -2045713343 571002210 1333350387 -696460906 -1181365532 -922042869 1254831659 344504810 1579982785 -1839794887 867205996 -2126377259
REM
CELL 1.54180   50.00000   50.00000   50.00000   90.00000   90.00000   90.00000
LATT -1
SFAC C  
C      1  0.5417830000000  0.5776150000000  0.5054570000000 1.0
C      1  0.4986440000000  0.5351670000000  0.5809390000000 1.0
C      1  0.5777810000000  0.4986350000000  0.5347370000000 1.0
C      1  0.4655730000000  0.4312090000000  0.4953770000000 1.0
C      1  0.4654590000000  0.5726500000000  0.5004940000000 1.0
C      1  0.5468610000000  0.4240670000000  0.4995050000000 1.0
C      1  0.5031660000000  0.4698010000000  0.5707780000000 1.0
C      1  0.5028950000000  0.5331580000000  0.4294340000000 1.0
C      1  0.5001840000000  0.4603640000000  0.4198490000000 1.0
C      1  0.4188720000000  0.5040800000000  0.5352300000000 1.0
C      1  0.4203330000000  0.5051620000000  0.4551740000000 1.0
C      1  0.5695370000000  0.5096490000000  0.4670500000000 1.0
C      1  0.4761190000000  0.5355030000000  0.5102750000000 1.0
C      1  0.5023820000000  0.4803030000000  0.5322160000000 1.0
C      1  0.5221120000000  0.4758770000000  0.4739570000000 1.0
C      1  0.5294350000000  0.4641980000000  0.5026050000000 1.0
C      1  0.5323290000000  0.5251290000000  0.5024010000000 1.0
C      1  0.4816730000000  0.4687820000000  0.5024040000000 1.0
C      1  0.4909440000000  0.5220990000000  0.5444640000000 1.0
C      1  0.4947720000000  0.4726170000000  0.4570080000000 1.0
C      1  0.5011380000000  0.5115840000000  0.4630390000000 1.0
C      1  0.4701400000000  0.5038060000000  0.4714800000000 1.0
C      1  0.4562880000000  0.5140180000000  0.5262470000000 1.0
C      1  0.5393330000000  0.5024080000000  0.5248680000000 1.0
C      1  0.5645000000000  0.5272140000000  0.4933470000000 1.0
C      1  0.4875240000000  0.5638130000000  0.5246710000000 1.0
C      1  0.5257900000000  0.4912270000000  0.5547560000000 1.0
C      1  0.4546250000000  0.4838230000000  0.4915240000000 1.0
C      1  0.4284100000000  0.5262810000000  0.5115210000000 1.0
C      1  0.5596820000000  0.4777140000000  0.5126340000000 1.0
C      1  0.5106050000000  0.4494230000000  0.5218890000000 1.0
C      1  0.5122850000000  0.5352890000000  0.4818950000000 1.0
C      1  0.4939010000000  0.4465980000000  0.4796760000000 1.0
C      1  0.4747630000000  0.5128690000000  0.5710440000000 1.0
C      1  0.4788420000000  0.4849990000000  0.4312210000000 1.0
C      1  0.5207130000000  0.5053680000000  0.4376490000000 1.0
C      1  0.5164840000000  0.4470650000000  0.4468100000000 1.0
C      1  0.4488920000000  0.5204600000000  0.4529370000000 1.0
C      1  0.4549330000000  0.4541940000000  0.5181180000000 1.0
C      1  0.4831080000000  0.5399600000000  0.4550790000000 1.0
C      1  0.4815130000000  0.4576760000000  0.5477670000000 1.0
C      1  0.5117330000000  0.5467330000000  0.5514190000000 1.0
C      1  0.5482380000000  0.4849960000000  0.4581700000000 1.0
C      1  0.5549770000000  0.5181850000000  0.5510680000000 1.0
C      1  0.4473060000000  0.4926160000000  0.5503880000000 1.0
C      1  0.5461330000000  0.5490820000000  0.5211470000000 1.0
C      1  0.5544890000000  0.4522130000000  0.4823340000000 1.0
C      1  0.4561440000000  0.5441400000000  0.4842920000000 1.0
C      1  0.5186500000000  0.5662820000000  0.5278100000000 1.0
C      1  0.5275750000000  0.5224160000000  0.5682490000000 1.0
C      1  0.5727820000000  0.5294300000000  0.5242020000000 1.0
C      1  0.4820900000000  0.4350660000000  0.5238380000000 1.0
C      1  0.4871620000000  0.5588140000000  0.4798290000000 1.0
C      1  0.5257000000000  0.4353390000000  0.4752610000000 1.0
C      1  0.4715050000000  0.4820270000000  0.5682660000000 1.0
C      1  0.4747120000000  0.5146600000000  0.4333160000000 1.0
C      1  0.5271890000000  0.4759200000000  0.4338390000000 1.0
C      1  0.4372370000000  0.4794690000000  0.5206630000000 1.0
C      1  0.4298140000000  0.5261530000000  0.4803790000000 1.0
C      1  0.5722350000000  0.4797620000000  0.4810420000000 1.0
C      1  0.5704410000000  0.5492490000000  0.4723440000000 1.0
C      1  0.4731930000000  0.5730000000000  0.5515200000000 1.0
C      1  0.5528280000000  0.4750420000000  0.5675400000000 1.0
C      1  0.4355720000000  0.4637380000000  0.4757450000000 1.0
C      1  0.4234730000000  0.5551770000000  0.5246030000000 1.0
C      1  0.5746720000000  0.4487980000000  0.5223910000000 1.0
C      1  0.5262860000000  0.4340750000000  0.5426550000000 1.0
C      1  0.5213720000000  0.5618470000000  0.4634490000000 1.0
C      1  0.4738590000000  0.4317250000000  0.4563340000000 1.0
C      1  0.4465520000000  0.5271410000000  0.5748850000000 1.0
C      1  0.4499030000000  0.4725210000000  0.4249430000000 1.0
C      1  0.5422700000000  0.5281420000000  0.4287530000000 1.0
C      1  0.5702810000000  0.5311270000000  0.4434520000000 1.0
C      1  0.4491590000000  0.5747530000000  0.5273360000000 1.0
C      1  0.5291790000000  0.4516030000000  0.5694000000000 1.0
C      1  0.4257670000000  0.4761120000000  0.4480910000000 1.0
C      1  0.4246980000000  0.5332020000000  0.5507060000000 1.0
C      1  0.5784510000000  0.4701850000000  0.5471400000000 1.0
C      1  0.5543520000000  0.4248640000000  0.5306110000000 1.0
C      1  0.5480340000000  0.5738570000000  0.4760580000000 1.0
C      1  0.4444200000000  0.4322920000000  0.4717460000000 1.0
C      1  0.4699560000000  0.5518990000000  0.5770710000000 1.0
C      1  0.4712940000000  0.4460580000000  0.4274690000000 1.0
C      1  0.5251970000000  0.5565130000000  0.4312310000000 1.0
C      1  0.5558460000000  0.5622250000000  0.4444310000000 1.0
C      1  0.5610030000000  0.4430090000000  0.5589650000000 1.0
C      1  0.4424850000000  0.5614400000000  0.5584610000000 1.0
C      1  0.4396430000000  0.4450960000000  0.4412420000000 1.0
C      1  0.4872860000000  0.5036370000000  0.5168980000000 1.0
END
