TITL C-2782237-5345-1447 0.00488853488518219 125000 -511.765045825758 0 0 91 (C1) n - 1
REM
REM in /home/nfs/bkarasulu/CARBON/AIRSS/Generating-Clusters/REBO/Higher-Symm/SD-CG/HFTN-CG
REM
REM
REM
REM
REM
REM ./C.cell (12c818d87b63d06a65506943cc24bca4)
REM
REM compiler GCC version 9.2.1 20190827 (Red Hat 9.2.1-1)
REM options -cpp -mtune=generic -march=x86-64 -g -O0 -fpre-include=/usr/include/finclude/math-vector-fortran.h
REM seed 891444217 336676875 1224874796 534317698 -175089157 41574387 -328596526 1425778604 1919802462 1665124732 464663453 -127173151 -674071065 659296677 1563073897 -1522303784 -885711618 -464400240 -1948348898 -99586285 -583072756 207446140 1370391173 2121272363 1290844849 2147094185 905871120 1378085529 -1027277573 52026786 1395865493 -573630947 252093877
REM
CELL 1.54180   50.00000   50.00000   50.00000   90.00000   90.00000   90.00000
LATT -1
SFAC C  
C      1  0.5405050000000  0.5206440000000  0.4405550000000 1.0
C      1  0.4638110000000  0.5251890000000  0.4409830000000 1.0
C      1  0.4986600000000  0.4562210000000  0.4374550000000 1.0
C      1  0.4749500000000  0.5522590000000  0.4558260000000 1.0
C      1  0.4792470000000  0.4550990000000  0.4638890000000 1.0
C      1  0.5503750000000  0.5037200000000  0.4660160000000 1.0
C      1  0.4945860000000  0.5201500000000  0.3976130000000 1.0
C      1  0.4887280000000  0.4884990000000  0.3959130000000 1.0
C      1  0.5190090000000  0.4992400000000  0.3964480000000 1.0
C      1  0.5382190000000  0.4822710000000  0.5303950000000 1.0
C      1  0.4939980000000  0.5394120000000  0.5296880000000 1.0
C      1  0.4684300000000  0.4761840000000  0.5332380000000 1.0
C      1  0.5163890000000  0.4900650000000  0.4486970000000 1.0
C      1  0.5018330000000  0.5185700000000  0.4500360000000 1.0
C      1  0.4842070000000  0.4916370000000  0.4484350000000 1.0
C      1  0.5380600000000  0.4276610000000  0.4748380000000 1.0
C      1  0.5495670000000  0.5841760000000  0.4990280000000 1.0
C      1  0.3975240000000  0.4909030000000  0.5052400000000 1.0
C      1  0.5244010000000  0.4556160000000  0.5205570000000 1.0
C      1  0.5231300000000  0.5426340000000  0.5175240000000 1.0
C      1  0.4473360000000  0.4963750000000  0.5202020000000 1.0
C      1  0.4552940000000  0.4756520000000  0.4709640000000 1.0
C      1  0.5460420000000  0.4721830000000  0.4730300000000 1.0
C      1  0.5030770000000  0.5557170000000  0.4671910000000 1.0
C      1  0.4621230000000  0.4332550000000  0.5036830000000 1.0
C      1  0.5768330000000  0.5014990000000  0.5022580000000 1.0
C      1  0.4575870000000  0.5612790000000  0.4985560000000 1.0
C      1  0.4271020000000  0.5131720000000  0.5502270000000 1.0
C      1  0.5260460000000  0.4360140000000  0.5478040000000 1.0
C      1  0.5460760000000  0.5576500000000  0.5466060000000 1.0
C      1  0.4336850000000  0.4576590000000  0.4901680000000 1.0
C      1  0.5738960000000  0.4635410000000  0.4905360000000 1.0
C      1  0.5022730000000  0.5776230000000  0.4929820000000 1.0
C      1  0.4925020000000  0.4345580000000  0.5087710000000 1.0
C      1  0.5597990000000  0.5263970000000  0.5066790000000 1.0
C      1  0.4470190000000  0.5339140000000  0.5065060000000 1.0
C      1  0.4830740000000  0.5678550000000  0.5141940000000 1.0
C      1  0.4456320000000  0.4535630000000  0.5213100000000 1.0
C      1  0.5703150000000  0.4772450000000  0.5209380000000 1.0
C      1  0.5343960000000  0.4928380000000  0.4217020000000 1.0
C      1  0.4919310000000  0.5350580000000  0.4239940000000 1.0
C      1  0.4764600000000  0.4765160000000  0.4210610000000 1.0
C      1  0.4224860000000  0.4936470000000  0.5127360000000 1.0
C      1  0.5329350000000  0.4417460000000  0.4954980000000 1.0
C      1  0.5363940000000  0.5634780000000  0.5082420000000 1.0
C      1  0.5176210000000  0.5093920000000  0.6015360000000 1.0
C      1  0.4860750000000  0.5156070000000  0.6010920000000 1.0
C      1  0.4965640000000  0.4850730000000  0.6023860000000 1.0
C      1  0.5179820000000  0.4633930000000  0.4654220000000 1.0
C      1  0.5228370000000  0.5321660000000  0.4683700000000 1.0
C      1  0.4635200000000  0.5050720000000  0.4686570000000 1.0
C      1  0.4985380000000  0.4629090000000  0.4909280000000 1.0
C      1  0.5300170000000  0.5120750000000  0.4929480000000 1.0
C      1  0.4728980000000  0.5139290000000  0.4956320000000 1.0
C      1  0.4777320000000  0.5710110000000  0.5465750000000 1.0
C      1  0.4490080000000  0.4482350000000  0.5532010000000 1.0
C      1  0.5712800000000  0.4849340000000  0.5519260000000 1.0
C      1  0.4574340000000  0.5491250000000  0.5555080000000 1.0
C      1  0.4789010000000  0.4413380000000  0.5600670000000 1.0
C      1  0.5623060000000  0.5142490000000  0.5571010000000 1.0
C      1  0.5224400000000  0.5468880000000  0.4312600000000 1.0
C      1  0.4502180000000  0.4968160000000  0.4287000000000 1.0
C      1  0.5311310000000  0.4596870000000  0.4278520000000 1.0
C      1  0.5664920000000  0.4511680000000  0.4594570000000 1.0
C      1  0.5192140000000  0.5852800000000  0.4660810000000 1.0
C      1  0.4249340000000  0.4719790000000  0.4603690000000 1.0
C      1  0.4410140000000  0.5355810000000  0.5370070000000 1.0
C      1  0.4963160000000  0.4344080000000  0.5393850000000 1.0
C      1  0.5596410000000  0.5334440000000  0.5367200000000 1.0
C      1  0.4597050000000  0.5068640000000  0.5573740000000 1.0
C      1  0.5133530000000  0.4662050000000  0.5572710000000 1.0
C      1  0.5247710000000  0.5334830000000  0.5562470000000 1.0
C      1  0.5804300000000  0.4922040000000  0.4727200000000 1.0
C      1  0.4568970000000  0.5659300000000  0.4715560000000 1.0
C      1  0.4547970000000  0.4360210000000  0.4737950000000 1.0
C      1  0.4259730000000  0.4858280000000  0.4363690000000 1.0
C      1  0.5538500000000  0.4456530000000  0.4353570000000 1.0
C      1  0.5273740000000  0.5722010000000  0.4401110000000 1.0
C      1  0.4964340000000  0.5465150000000  0.5616890000000 1.0
C      1  0.4626790000000  0.4769060000000  0.5658420000000 1.0
C      1  0.5395460000000  0.4827150000000  0.5644170000000 1.0
C      1  0.5267100000000  0.5119670000000  0.5299610000000 1.0
C      1  0.4745410000000  0.5154040000000  0.5286680000000 1.0
C      1  0.4986790000000  0.4766150000000  0.5283140000000 1.0
C      1  0.5684500000000  0.5478100000000  0.4902330000000 1.0
C      1  0.4234170000000  0.5276340000000  0.4917300000000 1.0
C      1  0.5059200000000  0.4123220000000  0.4969680000000 1.0
C      1  0.4901720000000  0.4668670000000  0.5798030000000 1.0
C      1  0.5354610000000  0.5118960000000  0.5780540000000 1.0
C      1  0.4738650000000  0.5286260000000  0.5773760000000 1.0
C      1  0.5011750000000  0.4954980000000  0.5011220000000 1.0
END
