TITL C-2782226-7400-1482 0.328591008816322 125000 -810.549946186987 0 0 139 (C1) n - 1
REM
REM in /home/nfs/bkarasulu/CARBON/AIRSS/Generating-Clusters/REBO/Higher-Symm/SD-CG/HFTN-CG
REM
REM
REM
REM
REM
REM ./C.cell (12c818d87b63d06a65506943cc24bca4)
REM
REM compiler GCC version 9.2.1 20190827 (Red Hat 9.2.1-1)
REM options -cpp -mtune=generic -march=x86-64 -g -O0 -fpre-include=/usr/include/finclude/math-vector-fortran.h
REM seed -1829861691 -338361283 -320908151 -1843892455 -311333820 -845037943 -1773668728 723647545 -1384112628 -2138300462 -1680716342 538430518 1989987377 -936927442 42079435 -1905784874 154883494 -77835621 517644609 -396232205 830288679 -308126571 -845236649 1351006254 1301383723 -1376451576 397245223 -1722554167 -924105358 -1932485293 1764137228 -181846543 -1655993305
REM
CELL 1.54180   50.00000   50.00000   50.00000   90.00000   90.00000   90.00000
LATT -1
SFAC C  
C      1  0.5926010000000  0.5125460000000  0.5142770000000 1.0
C      1  0.5981830000000  0.4795520000000  0.5137340000000 1.0
C      1  0.4080970000000  0.5354120000000  0.5419070000000 1.0
C      1  0.4092150000000  0.4638570000000  0.5485090000000 1.0
C      1  0.5876060000000  0.5260400000000  0.4430240000000 1.0
C      1  0.5849420000000  0.4717090000000  0.4437980000000 1.0
C      1  0.4535300000000  0.4168040000000  0.5441650000000 1.0
C      1  0.4749360000000  0.5773970000000  0.5342170000000 1.0
C      1  0.4705900000000  0.4176180000000  0.5696400000000 1.0
C      1  0.4730730000000  0.5603640000000  0.5562630000000 1.0
C      1  0.5177280000000  0.4820360000000  0.4872750000000 1.0
C      1  0.5231950000000  0.5143660000000  0.4928330000000 1.0
C      1  0.4742660000000  0.5704180000000  0.4459200000000 1.0
C      1  0.4726330000000  0.4302270000000  0.4429360000000 1.0
C      1  0.4227470000000  0.5125720000000  0.5092590000000 1.0
C      1  0.4276180000000  0.4850430000000  0.5176670000000 1.0
C      1  0.5151600000000  0.4519670000000  0.4289090000000 1.0
C      1  0.5179440000000  0.5566690000000  0.4270590000000 1.0
C      1  0.5449830000000  0.4885670000000  0.4207930000000 1.0
C      1  0.5440250000000  0.5161660000000  0.4204070000000 1.0
C      1  0.3903280000000  0.5169530000000  0.5051650000000 1.0
C      1  0.3943040000000  0.4849430000000  0.5127930000000 1.0
C      1  0.4715960000000  0.5553870000000  0.4680670000000 1.0
C      1  0.4713410000000  0.4397560000000  0.4681190000000 1.0
C      1  0.5477850000000  0.4598740000000  0.5007790000000 1.0
C      1  0.5382540000000  0.5484890000000  0.5072260000000 1.0
C      1  0.5362350000000  0.5555630000000  0.5581760000000 1.0
C      1  0.5380730000000  0.4426120000000  0.5545090000000 1.0
C      1  0.4188680000000  0.5138280000000  0.4773750000000 1.0
C      1  0.4124700000000  0.4829700000000  0.4808250000000 1.0
C      1  0.4933470000000  0.5398320000000  0.4833620000000 1.0
C      1  0.4977520000000  0.4475510000000  0.4840540000000 1.0
C      1  0.4413790000000  0.4138150000000  0.4923760000000 1.0
C      1  0.4454910000000  0.5829750000000  0.4804500000000 1.0
C      1  0.4727850000000  0.4498680000000  0.5067430000000 1.0
C      1  0.4676510000000  0.5399050000000  0.5056390000000 1.0
C      1  0.4345750000000  0.4192780000000  0.5227990000000 1.0
C      1  0.4572590000000  0.5778510000000  0.5119690000000 1.0
C      1  0.5269100000000  0.5695510000000  0.5315130000000 1.0
C      1  0.5306320000000  0.4152720000000  0.5430530000000 1.0
C      1  0.4864030000000  0.5586390000000  0.4237730000000 1.0
C      1  0.4842950000000  0.4469610000000  0.4240430000000 1.0
C      1  0.4024700000000  0.4550770000000  0.4933890000000 1.0
C      1  0.4039120000000  0.5420000000000  0.4862960000000 1.0
C      1  0.5508090000000  0.5964720000000  0.4831950000000 1.0
C      1  0.5450970000000  0.4120680000000  0.4918770000000 1.0
C      1  0.4944470000000  0.5038780000000  0.6252460000000 1.0
C      1  0.4911570000000  0.4767200000000  0.6241720000000 1.0
C      1  0.5022020000000  0.4795120000000  0.5944990000000 1.0
C      1  0.5044860000000  0.5157940000000  0.5996210000000 1.0
C      1  0.4963470000000  0.4887720000000  0.4042250000000 1.0
C      1  0.4978210000000  0.5186190000000  0.4019390000000 1.0
C      1  0.4782940000000  0.4363880000000  0.5352010000000 1.0
C      1  0.5007100000000  0.5898500000000  0.5332430000000 1.0
C      1  0.5215730000000  0.5528450000000  0.4801330000000 1.0
C      1  0.5273750000000  0.4461100000000  0.4785070000000 1.0
C      1  0.5211160000000  0.5423180000000  0.5858150000000 1.0
C      1  0.5175980000000  0.4524500000000  0.5799920000000 1.0
C      1  0.5677160000000  0.4862730000000  0.5806830000000 1.0
C      1  0.5704630000000  0.5157740000000  0.5846800000000 1.0
C      1  0.5321850000000  0.4846600000000  0.5182880000000 1.0
C      1  0.5337770000000  0.5184930000000  0.5228060000000 1.0
C      1  0.5547490000000  0.5807260000000  0.4558580000000 1.0
C      1  0.5545090000000  0.4216760000000  0.4424850000000 1.0
C      1  0.5251380000000  0.4733500000000  0.4062250000000 1.0
C      1  0.5226650000000  0.5303380000000  0.4094740000000 1.0
C      1  0.5386700000000  0.5134920000000  0.5798210000000 1.0
C      1  0.5370920000000  0.4803230000000  0.5766030000000 1.0
C      1  0.4412860000000  0.4829660000000  0.4631440000000 1.0
C      1  0.4432350000000  0.5166240000000  0.4572770000000 1.0
C      1  0.5386720000000  0.5569900000000  0.4529550000000 1.0
C      1  0.5378870000000  0.4463040000000  0.4493670000000 1.0
C      1  0.5263350000000  0.5250620000000  0.5505220000000 1.0
C      1  0.5259950000000  0.4725200000000  0.5455260000000 1.0
C      1  0.5202270000000  0.4108600000000  0.5150970000000 1.0
C      1  0.5265530000000  0.5863010000000  0.5032430000000 1.0
C      1  0.4746060000000  0.5939820000000  0.4782370000000 1.0
C      1  0.4702110000000  0.4071060000000  0.4911660000000 1.0
C      1  0.5625680000000  0.4334860000000  0.4924670000000 1.0
C      1  0.5618590000000  0.5657760000000  0.4928650000000 1.0
C      1  0.4127660000000  0.4573960000000  0.4503460000000 1.0
C      1  0.4112400000000  0.5381700000000  0.4467180000000 1.0
C      1  0.4908240000000  0.5497780000000  0.5815110000000 1.0
C      1  0.4870830000000  0.4393210000000  0.5739320000000 1.0
C      1  0.5692170000000  0.4839540000000  0.4990790000000 1.0
C      1  0.5628180000000  0.5160790000000  0.4981580000000 1.0
C      1  0.5472580000000  0.4889850000000  0.4734470000000 1.0
C      1  0.5460710000000  0.5220540000000  0.4707970000000 1.0
C      1  0.4947050000000  0.6173960000000  0.4764910000000 1.0
C      1  0.4908830000000  0.3975070000000  0.4728610000000 1.0
C      1  0.4103070000000  0.4500040000000  0.5249960000000 1.0
C      1  0.4099680000000  0.5490070000000  0.5187110000000 1.0
C      1  0.4726240000000  0.5281080000000  0.5633350000000 1.0
C      1  0.4780900000000  0.4634910000000  0.5537020000000 1.0
C      1  0.4202550000000  0.5640530000000  0.4673100000000 1.0
C      1  0.4208830000000  0.4347280000000  0.4747210000000 1.0
C      1  0.4272560000000  0.4846690000000  0.5568420000000 1.0
C      1  0.4224950000000  0.5150930000000  0.5544310000000 1.0
C      1  0.4998390000000  0.5787080000000  0.4847150000000 1.0
C      1  0.4884700000000  0.4141180000000  0.5140800000000 1.0
C      1  0.4566810000000  0.4802850000000  0.5418800000000 1.0
C      1  0.4539750000000  0.5128890000000  0.5478210000000 1.0
C      1  0.4660650000000  0.5117450000000  0.5191600000000 1.0
C      1  0.4644720000000  0.4815510000000  0.5084820000000 1.0
C      1  0.5035350000000  0.4828290000000  0.4377060000000 1.0
C      1  0.5089230000000  0.5310500000000  0.4476020000000 1.0
C      1  0.4079920000000  0.4834060000000  0.4411210000000 1.0
C      1  0.4079250000000  0.5114430000000  0.4391020000000 1.0
C      1  0.4762210000000  0.5331630000000  0.4141470000000 1.0
C      1  0.4718550000000  0.4718110000000  0.4164030000000 1.0
C      1  0.5007560000000  0.5133920000000  0.5672310000000 1.0
C      1  0.5003750000000  0.4827290000000  0.5609010000000 1.0
C      1  0.5171540000000  0.3996710000000  0.4829040000000 1.0
C      1  0.5207910000000  0.6127510000000  0.4833410000000 1.0
C      1  0.5993650000000  0.5286470000000  0.4886480000000 1.0
C      1  0.6024270000000  0.4653640000000  0.4869000000000 1.0
C      1  0.5335420000000  0.3940330000000  0.5588030000000 1.0
C      1  0.5049570000000  0.6170490000000  0.5304920000000 1.0
C      1  0.4549310000000  0.4876110000000  0.4326840000000 1.0
C      1  0.4575360000000  0.5177990000000  0.4285760000000 1.0
C      1  0.5540940000000  0.4739430000000  0.4465160000000 1.0
C      1  0.5569480000000  0.5309080000000  0.4435060000000 1.0
C      1  0.4896590000000  0.5092530000000  0.4946040000000 1.0
C      1  0.4860410000000  0.4789580000000  0.4832830000000 1.0
C      1  0.5981240000000  0.4869950000000  0.5443110000000 1.0
C      1  0.5962150000000  0.5177270000000  0.5457950000000 1.0
C      1  0.6005560000000  0.5127390000000  0.4649470000000 1.0
C      1  0.6007250000000  0.4832140000000  0.4645360000000 1.0
C      1  0.5695700000000  0.4467550000000  0.5558870000000 1.0
C      1  0.5677570000000  0.5563050000000  0.5608010000000 1.0
C      1  0.4451260000000  0.5435520000000  0.4730390000000 1.0
C      1  0.4470880000000  0.4548940000000  0.4760200000000 1.0
C      1  0.4394110000000  0.4504680000000  0.5076420000000 1.0
C      1  0.4378370000000  0.5524100000000  0.5044680000000 1.0
C      1  0.5830650000000  0.5325380000000  0.5656290000000 1.0
C      1  0.5829580000000  0.4712290000000  0.5623010000000 1.0
C      1  0.5896390000000  0.4395810000000  0.4855630000000 1.0
C      1  0.5855410000000  0.5535220000000  0.4878650000000 1.0
C      1  0.5055710000000  0.5049370000000  0.4524490000000 1.0
END
