TITL C-2782227-3064-813 -0.000293680277667903 125000 -1068.01211867224 0 0 184 (C1) n - 1
REM
REM in /home/nfs/bkarasulu/CARBON/AIRSS/Generating-Clusters/REBO/Higher-Symm/SD-CG/HFTN-CG
REM
REM
REM
REM
REM
REM ./C.cell (12c818d87b63d06a65506943cc24bca4)
REM
REM compiler GCC version 9.2.1 20190827 (Red Hat 9.2.1-1)
REM options -cpp -mtune=generic -march=x86-64 -g -O0 -fpre-include=/usr/include/finclude/math-vector-fortran.h
REM seed 726529373 -1362775275 1859306762 718314335 1451862297 1463685284 80459950 2140759727 -640412796 -1426077547 -333926828 -743369955 94077219 1909502343 -1751895289 978304627 -1274569834 -334589833 672269515 1061412851 1638256976 -1358344679 389834554 -1912253051 -1930059952 -797405255 442530316 -1935806007 -1032740542 974497080 108700255 -1510869800 438958705
REM
CELL 1.54180   50.00000   50.00000   50.00000   90.00000   90.00000   90.00000
LATT -1
SFAC C  
C      1  0.5854970000000  0.4372150000000  0.4752190000000 1.0
C      1  0.4018500000000  0.4563800000000  0.4776510000000 1.0
C      1  0.5170660000000  0.6027490000000  0.4750270000000 1.0
C      1  0.4984350000000  0.4577180000000  0.4238380000000 1.0
C      1  0.4592060000000  0.5222230000000  0.4295000000000 1.0
C      1  0.5363790000000  0.5244590000000  0.4296020000000 1.0
C      1  0.5360550000000  0.4137830000000  0.4918540000000 1.0
C      1  0.4022860000000  0.5124150000000  0.4936820000000 1.0
C      1  0.5628940000000  0.5738310000000  0.4919090000000 1.0
C      1  0.4113500000000  0.5234440000000  0.5559100000000 1.0
C      1  0.5663080000000  0.5670990000000  0.5570590000000 1.0
C      1  0.5266130000000  0.4127360000000  0.5574180000000 1.0
C      1  0.4835760000000  0.3828520000000  0.4859330000000 1.0
C      1  0.4099240000000  0.5731040000000  0.4835800000000 1.0
C      1  0.6061840000000  0.5255790000000  0.4924350000000 1.0
C      1  0.5441560000000  0.4491200000000  0.5084090000000 1.0
C      1  0.4307560000000  0.4898190000000  0.5103080000000 1.0
C      1  0.5309210000000  0.5556880000000  0.5074700000000 1.0
C      1  0.4739670000000  0.6156600000000  0.4960310000000 1.0
C      1  0.6218360000000  0.4655200000000  0.4985580000000 1.0
C      1  0.4126220000000  0.4146810000000  0.5031180000000 1.0
C      1  0.5986920000000  0.4748390000000  0.4782480000000 1.0
C      1  0.4258640000000  0.4104380000000  0.4771310000000 1.0
C      1  0.4571600000000  0.6056480000000  0.4719370000000 1.0
C      1  0.4077770000000  0.4913060000000  0.4272140000000 1.0
C      1  0.5444290000000  0.5838360000000  0.4376000000000 1.0
C      1  0.5470600000000  0.4254280000000  0.4219450000000 1.0
C      1  0.6108160000000  0.5118030000000  0.4692800000000 1.0
C      1  0.4600080000000  0.4015520000000  0.4879260000000 1.0
C      1  0.4343630000000  0.5855600000000  0.4874360000000 1.0
C      1  0.5637340000000  0.5207480000000  0.4902440000000 1.0
C      1  0.4815700000000  0.4338470000000  0.4783560000000 1.0
C      1  0.4479550000000  0.5416380000000  0.4874970000000 1.0
C      1  0.4898060000000  0.4766410000000  0.3993050000000 1.0
C      1  0.4803340000000  0.5245540000000  0.4051690000000 1.0
C      1  0.5261430000000  0.5093050000000  0.4024080000000 1.0
C      1  0.5076890000000  0.4773520000000  0.6131650000000 1.0
C      1  0.4714790000000  0.5090080000000  0.6110220000000 1.0
C      1  0.5144100000000  0.5216790000000  0.6132480000000 1.0
C      1  0.4750780000000  0.5951820000000  0.5154530000000 1.0
C      1  0.6039710000000  0.4812910000000  0.5184720000000 1.0
C      1  0.4317920000000  0.4255610000000  0.5217120000000 1.0
C      1  0.5048180000000  0.4037250000000  0.5417290000000 1.0
C      1  0.4164350000000  0.5439670000000  0.5369600000000 1.0
C      1  0.5755290000000  0.5418540000000  0.5458490000000 1.0
C      1  0.4882550000000  0.6042840000000  0.4567720000000 1.0
C      1  0.5920610000000  0.4562620000000  0.4507310000000 1.0
C      1  0.4178290000000  0.4364630000000  0.4567230000000 1.0
C      1  0.5278060000000  0.5198630000000  0.5520590000000 1.0
C      1  0.4985280000000  0.4563170000000  0.5546190000000 1.0
C      1  0.4627010000000  0.5238380000000  0.5542940000000 1.0
C      1  0.5435090000000  0.4885080000000  0.5019040000000 1.0
C      1  0.4754360000000  0.4666430000000  0.5003500000000 1.0
C      1  0.4861770000000  0.5346970000000  0.4953060000000 1.0
C      1  0.4807770000000  0.5546540000000  0.5971260000000 1.0
C      1  0.5517370000000  0.4988310000000  0.5957170000000 1.0
C      1  0.4657430000000  0.4577630000000  0.6004630000000 1.0
C      1  0.5550740000000  0.5234730000000  0.5411770000000 1.0
C      1  0.4852560000000  0.4301900000000  0.5366640000000 1.0
C      1  0.4498050000000  0.5475070000000  0.5332000000000 1.0
C      1  0.4877790000000  0.5303140000000  0.5745010000000 1.0
C      1  0.5274570000000  0.4980210000000  0.5732270000000 1.0
C      1  0.4803420000000  0.4758220000000  0.5757310000000 1.0
C      1  0.5432680000000  0.4524800000000  0.4519800000000 1.0
C      1  0.4349680000000  0.4844700000000  0.4551240000000 1.0
C      1  0.5191390000000  0.5571810000000  0.4521810000000 1.0
C      1  0.5014070000000  0.4683400000000  0.4816330000000 1.0
C      1  0.4707500000000  0.5091720000000  0.4830990000000 1.0
C      1  0.5321910000000  0.5130410000000  0.4849700000000 1.0
C      1  0.5677120000000  0.4498120000000  0.4291620000000 1.0
C      1  0.4228900000000  0.4620130000000  0.4347730000000 1.0
C      1  0.5115530000000  0.5867370000000  0.4389110000000 1.0
C      1  0.4374420000000  0.4963350000000  0.5894550000000 1.0
C      1  0.5283790000000  0.5583970000000  0.5863740000000 1.0
C      1  0.5391200000000  0.4517800000000  0.5862160000000 1.0
C      1  0.5556720000000  0.5645190000000  0.5835700000000 1.0
C      1  0.5179950000000  0.4349450000000  0.5734540000000 1.0
C      1  0.4340960000000  0.5212350000000  0.5732390000000 1.0
C      1  0.4073140000000  0.4749070000000  0.5632920000000 1.0
C      1  0.5262630000000  0.5938740000000  0.5559870000000 1.0
C      1  0.5703640000000  0.4337380000000  0.5616380000000 1.0
C      1  0.4555260000000  0.4898640000000  0.5616200000000 1.0
C      1  0.5146030000000  0.5457450000000  0.5616560000000 1.0
C      1  0.5309580000000  0.4697290000000  0.5591970000000 1.0
C      1  0.5531700000000  0.4160840000000  0.5473020000000 1.0
C      1  0.3996470000000  0.4982620000000  0.5487220000000 1.0
C      1  0.5501850000000  0.5859540000000  0.5419600000000 1.0
C      1  0.5051390000000  0.4250210000000  0.4887990000000 1.0
C      1  0.4266570000000  0.5322290000000  0.5002420000000 1.0
C      1  0.5618220000000  0.5453720000000  0.5084710000000 1.0
C      1  0.5558420000000  0.4187660000000  0.5173720000000 1.0
C      1  0.3977870000000  0.4932070000000  0.5188690000000 1.0
C      1  0.5482720000000  0.5910840000000  0.5142290000000 1.0
C      1  0.4246200000000  0.4536150000000  0.5676880000000 1.0
C      1  0.4995060000000  0.5900220000000  0.5618450000000 1.0
C      1  0.5793250000000  0.4594140000000  0.5668530000000 1.0
C      1  0.4250970000000  0.4528360000000  0.5267560000000 1.0
C      1  0.5012610000000  0.5878410000000  0.5217040000000 1.0
C      1  0.5808470000000  0.4622750000000  0.5230270000000 1.0
C      1  0.5637790000000  0.4979050000000  0.5275850000000 1.0
C      1  0.4650590000000  0.4531370000000  0.5273800000000 1.0
C      1  0.4804860000000  0.5521940000000  0.5220280000000 1.0
C      1  0.4501600000000  0.5773500000000  0.5157820000000 1.0
C      1  0.6058720000000  0.5117130000000  0.5178850000000 1.0
C      1  0.4600850000000  0.4143340000000  0.5186470000000 1.0
C      1  0.5023070000000  0.4795680000000  0.5302800000000 1.0
C      1  0.4783460000000  0.5037750000000  0.5317320000000 1.0
C      1  0.5099670000000  0.5120320000000  0.5291980000000 1.0
C      1  0.5102130000000  0.5608900000000  0.6068100000000 1.0
C      1  0.5511370000000  0.4675150000000  0.6047490000000 1.0
C      1  0.4445150000000  0.4795950000000  0.6096410000000 1.0
C      1  0.4730490000000  0.5608300000000  0.4817280000000 1.0
C      1  0.5753890000000  0.4895150000000  0.4921590000000 1.0
C      1  0.4560600000000  0.4420210000000  0.4903000000000 1.0
C      1  0.5171130000000  0.4109730000000  0.4135140000000 1.0
C      1  0.4075540000000  0.5252750000000  0.4221070000000 1.0
C      1  0.5708140000000  0.5618530000000  0.4374810000000 1.0
C      1  0.6006480000000  0.5299650000000  0.5395580000000 1.0
C      1  0.4802060000000  0.3911500000000  0.5316740000000 1.0
C      1  0.4184240000000  0.5700160000000  0.5237220000000 1.0
C      1  0.5886400000000  0.5659490000000  0.4620640000000 1.0
C      1  0.5147860000000  0.3833720000000  0.4165710000000 1.0
C      1  0.3838410000000  0.5388090000000  0.4278380000000 1.0
C      1  0.5224140000000  0.5992140000000  0.5066540000000 1.0
C      1  0.5814870000000  0.4348520000000  0.5088440000000 1.0
C      1  0.4006520000000  0.4635150000000  0.5111160000000 1.0
C      1  0.5316920000000  0.5729740000000  0.4780120000000 1.0
C      1  0.5536570000000  0.4384820000000  0.4775150000000 1.0
C      1  0.4166580000000  0.4849450000000  0.4797130000000 1.0
C      1  0.5871620000000  0.4956510000000  0.4544710000000 1.0
C      1  0.4519590000000  0.4160450000000  0.4585540000000 1.0
C      1  0.4593110000000  0.5773070000000  0.4573130000000 1.0
C      1  0.5188550000000  0.4830410000000  0.4007830000000 1.0
C      1  0.4707690000000  0.4960620000000  0.4019360000000 1.0
C      1  0.5066870000000  0.5317830000000  0.4039790000000 1.0
C      1  0.5821340000000  0.5089500000000  0.4171940000000 1.0
C      1  0.4608550000000  0.4281700000000  0.4112340000000 1.0
C      1  0.4566230000000  0.5637250000000  0.4199170000000 1.0
C      1  0.4756340000000  0.5729180000000  0.5484500000000 1.0
C      1  0.5824690000000  0.4884320000000  0.5520090000000 1.0
C      1  0.4507700000000  0.4396790000000  0.5539050000000 1.0
C      1  0.4848490000000  0.4647070000000  0.4531520000000 1.0
C      1  0.4722760000000  0.5284100000000  0.4583110000000 1.0
C      1  0.5297290000000  0.5049810000000  0.4547380000000 1.0
C      1  0.4920280000000  0.4578680000000  0.6171610000000 1.0
C      1  0.4649940000000  0.5332980000000  0.6138380000000 1.0
C      1  0.5395410000000  0.5190370000000  0.6151480000000 1.0
C      1  0.4977000000000  0.5399710000000  0.4574860000000 1.0
C      1  0.5226110000000  0.4757010000000  0.4587090000000 1.0
C      1  0.4655540000000  0.4876620000000  0.4606900000000 1.0
C      1  0.4983990000000  0.6258880000000  0.4888020000000 1.0
C      1  0.6119760000000  0.4370730000000  0.4954530000000 1.0
C      1  0.3910740000000  0.4337390000000  0.4998290000000 1.0
C      1  0.4477130000000  0.4918720000000  0.4252960000000 1.0
C      1  0.5228360000000  0.5540690000000  0.4189360000000 1.0
C      1  0.5304800000000  0.4617660000000  0.4223070000000 1.0
C      1  0.5190360000000  0.4695720000000  0.5070920000000 1.0
C      1  0.4622730000000  0.4940230000000  0.5074840000000 1.0
C      1  0.5145440000000  0.5284490000000  0.5036180000000 1.0
C      1  0.5104600000000  0.5597820000000  0.5343770000000 1.0
C      1  0.5499150000000  0.4683970000000  0.5357740000000 1.0
C      1  0.4445050000000  0.4758780000000  0.5382670000000 1.0
C      1  0.4480730000000  0.4385840000000  0.5851480000000 1.0
C      1  0.4743090000000  0.5783270000000  0.5794420000000 1.0
C      1  0.5779540000000  0.4877680000000  0.5831720000000 1.0
C      1  0.5893200000000  0.5514560000000  0.4906770000000 1.0
C      1  0.5084360000000  0.3940920000000  0.4890140000000 1.0
C      1  0.4008340000000  0.5465380000000  0.4907650000000 1.0
C      1  0.5673130000000  0.5316890000000  0.4314110000000 1.0
C      1  0.4915820000000  0.4269870000000  0.4176170000000 1.0
C      1  0.4330580000000  0.5412650000000  0.4261980000000 1.0
C      1  0.5637760000000  0.5814760000000  0.4112020000000 1.0
C      1  0.5380400000000  0.4232510000000  0.3901370000000 1.0
C      1  0.4079720000000  0.5033130000000  0.3964260000000 1.0
C      1  0.4456610000000  0.5490840000000  0.4554500000000 1.0
C      1  0.5619410000000  0.5136240000000  0.4583290000000 1.0
C      1  0.4784360000000  0.4321960000000  0.4468530000000 1.0
C      1  0.4327760000000  0.4876580000000  0.3964230000000 1.0
C      1  0.5383560000000  0.5725830000000  0.3998030000000 1.0
C      1  0.5420600000000  0.4522500000000  0.3929720000000 1.0
C      1  0.4414380000000  0.4335940000000  0.4318640000000 1.0
C      1  0.4785540000000  0.5824070000000  0.4317680000000 1.0
C      1  0.5845400000000  0.4793040000000  0.4264860000000 1.0
C      1  0.4980220000000  0.5013990000000  0.5904490000000 1.0
END
