TITL C-2782231-7322-585 -0.0222376516780576 125000 -652.597507720149 0 0 112 (C1) n - 1
REM
REM in /home/nfs/bkarasulu/CARBON/AIRSS/Generating-Clusters/REBO/Higher-Symm/SD-CG/HFTN-CG
REM
REM
REM
REM
REM
REM ./C.cell (12c818d87b63d06a65506943cc24bca4)
REM
REM compiler GCC version 9.2.1 20190827 (Red Hat 9.2.1-1)
REM options -cpp -mtune=generic -march=x86-64 -g -O0 -fpre-include=/usr/include/finclude/math-vector-fortran.h
REM seed -891703648 1404822473 137848744 1178509460 1723284325 -1369649091 671264608 447439088 -1725256372 -2139429033 -1430470921 1079931573 953983913 -688218808 1849584942 719221723 383979186 -198763664 -103580511 -2037911612 -1171998334 -945244090 -1773801310 -1980741780 -673758548 -1004900799 873442068 209809161 -1959897996 -32864278 -1875723655 -249735971 -589288593
REM
CELL 1.54180   50.00000   50.00000   50.00000   90.00000   90.00000   90.00000
LATT -1
SFAC C  
C      1  0.4624620000000  0.5198050000000  0.4167410000000 1.0
C      1  0.4945040000000  0.4241990000000  0.5395670000000 1.0
C      1  0.4244210000000  0.4335680000000  0.5371810000000 1.0
C      1  0.4415380000000  0.4653270000000  0.5681190000000 1.0
C      1  0.4486090000000  0.4257330000000  0.5248370000000 1.0
C      1  0.5383430000000  0.5354690000000  0.5646350000000 1.0
C      1  0.5505320000000  0.4497990000000  0.4200940000000 1.0
C      1  0.4715320000000  0.5345690000000  0.4609420000000 1.0
C      1  0.4999260000000  0.5649850000000  0.4448950000000 1.0
C      1  0.4717050000000  0.5030970000000  0.4676240000000 1.0
C      1  0.4682610000000  0.4482690000000  0.5214120000000 1.0
C      1  0.4938720000000  0.5231710000000  0.4062000000000 1.0
C      1  0.5734890000000  0.5111190000000  0.5095970000000 1.0
C      1  0.4992890000000  0.5253070000000  0.4493080000000 1.0
C      1  0.5019330000000  0.4781000000000  0.5857240000000 1.0
C      1  0.4082910000000  0.4812030000000  0.5299160000000 1.0
C      1  0.5204300000000  0.5216090000000  0.5224650000000 1.0
C      1  0.5113630000000  0.5613000000000  0.4830400000000 1.0
C      1  0.5261520000000  0.4643210000000  0.5792300000000 1.0
C      1  0.4600540000000  0.5216870000000  0.5739390000000 1.0
C      1  0.5507300000000  0.5423650000000  0.5382310000000 1.0
C      1  0.4296070000000  0.4529010000000  0.5010890000000 1.0
C      1  0.5452810000000  0.4804120000000  0.5646290000000 1.0
C      1  0.4782990000000  0.4677370000000  0.4984900000000 1.0
C      1  0.5181350000000  0.4649380000000  0.5074300000000 1.0
C      1  0.5567680000000  0.5029710000000  0.5955340000000 1.0
C      1  0.4760070000000  0.4915290000000  0.4212770000000 1.0
C      1  0.5625380000000  0.5731810000000  0.5451930000000 1.0
C      1  0.5670990000000  0.4813900000000  0.4677270000000 1.0
C      1  0.4434800000000  0.5537830000000  0.5030830000000 1.0
C      1  0.4222190000000  0.4594180000000  0.5493340000000 1.0
C      1  0.4654210000000  0.4465220000000  0.4516180000000 1.0
C      1  0.4725090000000  0.5468100000000  0.4908340000000 1.0
C      1  0.4883600000000  0.5816100000000  0.4724160000000 1.0
C      1  0.4432240000000  0.4902600000000  0.4605990000000 1.0
C      1  0.4665790000000  0.5658900000000  0.4548290000000 1.0
C      1  0.5460500000000  0.4368340000000  0.4475300000000 1.0
C      1  0.5271130000000  0.4959710000000  0.4362090000000 1.0
C      1  0.5698040000000  0.4430580000000  0.4035010000000 1.0
C      1  0.5561060000000  0.4749250000000  0.5391560000000 1.0
C      1  0.4593930000000  0.5812050000000  0.5424090000000 1.0
C      1  0.5313770000000  0.4849840000000  0.4852470000000 1.0
C      1  0.5050020000000  0.4914840000000  0.4032810000000 1.0
C      1  0.4565410000000  0.6040770000000  0.5565370000000 1.0
C      1  0.4752740000000  0.5078080000000  0.4986470000000 1.0
C      1  0.5717240000000  0.5658580000000  0.5139980000000 1.0
C      1  0.4643680000000  0.4614150000000  0.4217360000000 1.0
C      1  0.4137950000000  0.5085170000000  0.5099610000000 1.0
C      1  0.5664500000000  0.5715630000000  0.4842940000000 1.0
C      1  0.5298890000000  0.4711870000000  0.4148840000000 1.0
C      1  0.5118160000000  0.5828900000000  0.5166190000000 1.0
C      1  0.5080130000000  0.5337130000000  0.4767910000000 1.0
C      1  0.4293910000000  0.5298340000000  0.4588650000000 1.0
C      1  0.5252370000000  0.5604000000000  0.5738470000000 1.0
C      1  0.4938220000000  0.3935690000000  0.5138700000000 1.0
C      1  0.5149010000000  0.4306780000000  0.4542890000000 1.0
C      1  0.4959430000000  0.4537640000000  0.4447150000000 1.0
C      1  0.4632070000000  0.5553740000000  0.5529420000000 1.0
C      1  0.4978640000000  0.4595500000000  0.4134800000000 1.0
C      1  0.5208070000000  0.4181580000000  0.5316460000000 1.0
C      1  0.4729820000000  0.4696640000000  0.5709410000000 1.0
C      1  0.5305030000000  0.4614930000000  0.4632620000000 1.0
C      1  0.5084150000000  0.5055180000000  0.5899920000000 1.0
C      1  0.4565980000000  0.4669540000000  0.4753000000000 1.0
C      1  0.5177720000000  0.5123020000000  0.4918240000000 1.0
C      1  0.4765950000000  0.5004690000000  0.5645850000000 1.0
C      1  0.5322350000000  0.4368970000000  0.5764550000000 1.0
C      1  0.4753940000000  0.5419300000000  0.5885360000000 1.0
C      1  0.4388400000000  0.5544900000000  0.4710440000000 1.0
C      1  0.4612650000000  0.5790260000000  0.5142220000000 1.0
C      1  0.4981830000000  0.4132290000000  0.4712320000000 1.0
C      1  0.5395170000000  0.5251390000000  0.4390730000000 1.0
C      1  0.5415220000000  0.4513350000000  0.5252190000000 1.0
C      1  0.5470520000000  0.5355550000000  0.4709550000000 1.0
C      1  0.4722610000000  0.4077700000000  0.5289440000000 1.0
C      1  0.5437130000000  0.5392340000000  0.5047890000000 1.0
C      1  0.5353580000000  0.5696180000000  0.5176060000000 1.0
C      1  0.4861830000000  0.4540100000000  0.5478580000000 1.0
C      1  0.5434960000000  0.5818220000000  0.5658940000000 1.0
C      1  0.4953390000000  0.4769750000000  0.5266590000000 1.0
C      1  0.4352960000000  0.5287050000000  0.5221780000000 1.0
C      1  0.5798020000000  0.5605460000000  0.4603910000000 1.0
C      1  0.5407790000000  0.4287610000000  0.5509080000000 1.0
C      1  0.5738890000000  0.4578310000000  0.4830120000000 1.0
C      1  0.4527620000000  0.5014710000000  0.5144470000000 1.0
C      1  0.4397210000000  0.4776410000000  0.5183710000000 1.0
C      1  0.5122850000000  0.5402650000000  0.4249160000000 1.0
C      1  0.5564270000000  0.4354210000000  0.4786230000000 1.0
C      1  0.5334770000000  0.5624050000000  0.4500480000000 1.0
C      1  0.5625280000000  0.5507970000000  0.4386180000000 1.0
C      1  0.4701630000000  0.4194640000000  0.4702310000000 1.0
C      1  0.5567030000000  0.5075930000000  0.4841530000000 1.0
C      1  0.5389660000000  0.5739900000000  0.4782910000000 1.0
C      1  0.4902580000000  0.5325390000000  0.5124200000000 1.0
C      1  0.4970560000000  0.5053300000000  0.5406810000000 1.0
C      1  0.4864450000000  0.5851190000000  0.5031290000000 1.0
C      1  0.4415910000000  0.5343800000000  0.5518840000000 1.0
C      1  0.5823600000000  0.5364400000000  0.5146760000000 1.0
C      1  0.4194910000000  0.5037740000000  0.4766850000000 1.0
C      1  0.4491550000000  0.4361520000000  0.4862440000000 1.0
C      1  0.5772240000000  0.4855060000000  0.5230880000000 1.0
C      1  0.5013140000000  0.4598160000000  0.4779630000000 1.0
C      1  0.5884280000000  0.4647420000000  0.5065110000000 1.0
C      1  0.4963800000000  0.4943090000000  0.4459740000000 1.0
C      1  0.4072640000000  0.4780950000000  0.4955120000000 1.0
C      1  0.4973670000000  0.5539290000000  0.5730350000000 1.0
C      1  0.4403800000000  0.5254600000000  0.4328880000000 1.0
C      1  0.4901230000000  0.5388630000000  0.5444310000000 1.0
C      1  0.5364720000000  0.4261960000000  0.5022790000000 1.0
C      1  0.4400900000000  0.4793420000000  0.4334180000000 1.0
C      1  0.5106420000000  0.4062880000000  0.4949910000000 1.0
C      1  0.5350890000000  0.5142320000000  0.5833830000000 1.0
END
