TITL C-2782227-3064-1305 -0.00175016040343393 125000 -239.74298838881 0 0 44 (C1) n - 1
REM
REM in /home/nfs/bkarasulu/CARBON/AIRSS/Generating-Clusters/REBO/Higher-Symm/SD-CG/HFTN-CG
REM
REM
REM
REM
REM
REM ./C.cell (12c818d87b63d06a65506943cc24bca4)
REM
REM compiler GCC version 9.2.1 20190827 (Red Hat 9.2.1-1)
REM options -cpp -mtune=generic -march=x86-64 -g -O0 -fpre-include=/usr/include/finclude/math-vector-fortran.h
REM seed 1484290471 -1289775615 857581394 64619531 -832677577 480540169 898663755 -804146185 1343000709 40870590 200102705 711489522 -1620505681 -39482037 1537437285 -735547085 240126805 -2117667996 -802647625 854013626 -1617079586 -689257129 -2094581127 -174742842 -916814199 336416628 1041736179 -1130084893 242197915 -1603400256 1748426084 -1704241491 882810920
REM
CELL 1.54180   50.00000   50.00000   50.00000   90.00000   90.00000   90.00000
LATT -1
SFAC C  
C      1  0.5485720000000  0.4856080000000  0.5537250000000 1.0
C      1  0.5481370000000  0.4530550000000  0.4626530000000 1.0
C      1  0.5417070000000  0.5468090000000  0.4832500000000 1.0
C      1  0.5395440000000  0.5269580000000  0.4568890000000 1.0
C      1  0.5445410000000  0.5183670000000  0.5476340000000 1.0
C      1  0.5445310000000  0.4381150000000  0.4927070000000 1.0
C      1  0.5280370000000  0.4794710000000  0.4702760000000 1.0
C      1  0.5271160000000  0.5591790000000  0.5102420000000 1.0
C      1  0.5325580000000  0.4753990000000  0.5253890000000 1.0
C      1  0.5106150000000  0.5604450000000  0.4814080000000 1.0
C      1  0.5158010000000  0.4805640000000  0.5533300000000 1.0
C      1  0.5141610000000  0.4500720000000  0.4613320000000 1.0
C      1  0.4417990000000  0.5162720000000  0.4628170000000 1.0
C      1  0.4453050000000  0.5159240000000  0.5392550000000 1.0
C      1  0.4400870000000  0.4641580000000  0.4898270000000 1.0
C      1  0.5105850000000  0.5497990000000  0.5312310000000 1.0
C      1  0.5216100000000  0.4696250000000  0.5008340000000 1.0
C      1  0.5183960000000  0.5016940000000  0.4541980000000 1.0
C      1  0.4950430000000  0.5063470000000  0.5466600000000 1.0
C      1  0.4884810000000  0.4537460000000  0.4841240000000 1.0
C      1  0.4862850000000  0.5405030000000  0.4680620000000 1.0
C      1  0.4684880000000  0.4693940000000  0.5013260000000 1.0
C      1  0.4712360000000  0.5134640000000  0.4711430000000 1.0
C      1  0.4732910000000  0.5173890000000  0.5263620000000 1.0
C      1  0.4816560000000  0.5467890000000  0.5222520000000 1.0
C      1  0.4691150000000  0.4608620000000  0.5299200000000 1.0
C      1  0.4872450000000  0.4963850000000  0.4510670000000 1.0
C      1  0.4844060000000  0.4760050000000  0.5552960000000 1.0
C      1  0.4851570000000  0.4629010000000  0.4525680000000 1.0
C      1  0.4791570000000  0.5608850000000  0.4920960000000 1.0
C      1  0.4615970000000  0.4513200000000  0.5594680000000 1.0
C      1  0.4727320000000  0.4789580000000  0.4277390000000 1.0
C      1  0.4597740000000  0.5719090000000  0.5151240000000 1.0
C      1  0.4173460000000  0.5186050000000  0.4559010000000 1.0
C      1  0.4221530000000  0.5147120000000  0.5499210000000 1.0
C      1  0.4167700000000  0.4598610000000  0.4803860000000 1.0
C      1  0.5630770000000  0.5009500000000  0.5272770000000 1.0
C      1  0.5603040000000  0.4681780000000  0.4908360000000 1.0
C      1  0.5569820000000  0.5166030000000  0.4834460000000 1.0
C      1  0.5084430000000  0.5331770000000  0.4471710000000 1.0
C      1  0.5183340000000  0.5277780000000  0.5465000000000 1.0
C      1  0.5144330000000  0.4387380000000  0.4995030000000 1.0
C      1  0.4731930000000  0.5007820000000  0.4996170000000 1.0
C      1  0.5633540000000  0.4950490000000  0.4997720000000 1.0
END
