TITL C-2782227-3064-1088 -0.00320469610617965 125000 -652.208956961633 0 0 120 (C1) n - 1
REM
REM in /home/nfs/bkarasulu/CARBON/AIRSS/Generating-Clusters/REBO/Higher-Symm/SD-CG/HFTN-CG
REM
REM
REM
REM
REM
REM ./C.cell (12c818d87b63d06a65506943cc24bca4)
REM
REM compiler GCC version 9.2.1 20190827 (Red Hat 9.2.1-1)
REM options -cpp -mtune=generic -march=x86-64 -g -O0 -fpre-include=/usr/include/finclude/math-vector-fortran.h
REM seed -977591947 -1500186005 -670233838 1679906182 177387184 -792876889 -196024376 -516247561 2125546543 2126341794 1966615062 1457291465 -2122631405 259757294 942468523 -1644512358 -1786948581 1834308661 -1318019058 354128298 -673255344 2022592015 127253426 -85699268 454229398 -1533456874 -2077160937 -140046405 1739647013 -1223905444 1494585932 1581890989 251698339
REM
CELL 1.54180   50.00000   50.00000   50.00000   90.00000   90.00000   90.00000
LATT -1
SFAC C  
C      1  0.4369170000000  0.4493670000000  0.5737920000000 1.0
C      1  0.4101150000000  0.4559350000000  0.4322340000000 1.0
C      1  0.5603450000000  0.4499540000000  0.4240380000000 1.0
C      1  0.5890650000000  0.4643470000000  0.5699800000000 1.0
C      1  0.5077850000000  0.5452710000000  0.4253890000000 1.0
C      1  0.5820170000000  0.5465550000000  0.5033510000000 1.0
C      1  0.4890080000000  0.5442890000000  0.5754370000000 1.0
C      1  0.4202460000000  0.5443240000000  0.4935580000000 1.0
C      1  0.3764140000000  0.5183400000000  0.5506780000000 1.0
C      1  0.4491110000000  0.5226270000000  0.3804560000000 1.0
C      1  0.6222210000000  0.5199530000000  0.4427350000000 1.0
C      1  0.5378850000000  0.5276550000000  0.6294050000000 1.0
C      1  0.4621580000000  0.4685170000000  0.5641500000000 1.0
C      1  0.4256710000000  0.4709790000000  0.4574870000000 1.0
C      1  0.5360610000000  0.4699050000000  0.4347500000000 1.0
C      1  0.5728170000000  0.4719450000000  0.5426520000000 1.0
C      1  0.5447680000000  0.5028440000000  0.4341430000000 1.0
C      1  0.5736300000000  0.5023810000000  0.5385620000000 1.0
C      1  0.4539120000000  0.5015490000000  0.5636290000000 1.0
C      1  0.4301730000000  0.5047390000000  0.4551330000000 1.0
C      1  0.4689310000000  0.5270090000000  0.4352490000000 1.0
C      1  0.5699700000000  0.5260900000000  0.4674800000000 1.0
C      1  0.5299650000000  0.5236030000000  0.5695950000000 1.0
C      1  0.4291120000000  0.5260320000000  0.5283730000000 1.0
C      1  0.5081950000000  0.4550990000000  0.4341830000000 1.0
C      1  0.5613130000000  0.4544800000000  0.5160290000000 1.0
C      1  0.4898660000000  0.4529880000000  0.5639850000000 1.0
C      1  0.4382360000000  0.4552010000000  0.4834390000000 1.0
C      1  0.5573800000000  0.5037650000000  0.5901640000000 1.0
C      1  0.4224210000000  0.4945560000000  0.5518540000000 1.0
C      1  0.4444260000000  0.4973140000000  0.4246120000000 1.0
C      1  0.5768580000000  0.4951160000000  0.4435380000000 1.0
C      1  0.5465390000000  0.5779350000000  0.5394310000000 1.0
C      1  0.4645720000000  0.5804280000000  0.5367680000000 1.0
C      1  0.4561960000000  0.5806250000000  0.4655080000000 1.0
C      1  0.5376770000000  0.5812630000000  0.4630190000000 1.0
C      1  0.4424000000000  0.5565980000000  0.5354140000000 1.0
C      1  0.4576310000000  0.5584030000000  0.4423910000000 1.0
C      1  0.5601590000000  0.5579760000000  0.4606240000000 1.0
C      1  0.5489120000000  0.5494460000000  0.5580370000000 1.0
C      1  0.4833220000000  0.5407050000000  0.5064120000000 1.0
C      1  0.4928600000000  0.5434780000000  0.4761380000000 1.0
C      1  0.5210300000000  0.5428640000000  0.4944190000000 1.0
C      1  0.5109020000000  0.5438220000000  0.5257250000000 1.0
C      1  0.4723360000000  0.5179050000000  0.5867070000000 1.0
C      1  0.4081050000000  0.5195970000000  0.4748680000000 1.0
C      1  0.5234550000000  0.5187800000000  0.4129470000000 1.0
C      1  0.5909630000000  0.5189890000000  0.5182400000000 1.0
C      1  0.4170750000000  0.4666290000000  0.5540580000000 1.0
C      1  0.4356580000000  0.4716410000000  0.4166700000000 1.0
C      1  0.5815880000000  0.4671480000000  0.4420660000000 1.0
C      1  0.5693130000000  0.4783110000000  0.5924870000000 1.0
C      1  0.4460100000000  0.5620890000000  0.4923080000000 1.0
C      1  0.5103550000000  0.5655130000000  0.4502420000000 1.0
C      1  0.5574180000000  0.5639620000000  0.5098110000000 1.0
C      1  0.4910750000000  0.5643860000000  0.5511350000000 1.0
C      1  0.5039970000000  0.4089530000000  0.4733380000000 1.0
C      1  0.5189960000000  0.4069500000000  0.5022020000000 1.0
C      1  0.4947710000000  0.4080360000000  0.5235990000000 1.0
C      1  0.4799120000000  0.4069630000000  0.4947190000000 1.0
C      1  0.4950750000000  0.4476420000000  0.5184000000000 1.0
C      1  0.4754300000000  0.4465050000000  0.4946920000000 1.0
C      1  0.5044320000000  0.4483710000000  0.4797980000000 1.0
C      1  0.5242990000000  0.4463650000000  0.5035140000000 1.0
C      1  0.5098960000000  0.5065870000000  0.5527550000000 1.0
C      1  0.4416400000000  0.5083500000000  0.5081950000000 1.0
C      1  0.4898840000000  0.5088530000000  0.4477060000000 1.0
C      1  0.5587040000000  0.5083060000000  0.4877470000000 1.0
C      1  0.4409070000000  0.5327340000000  0.5590940000000 1.0
C      1  0.4354320000000  0.5337800000000  0.4380130000000 1.0
C      1  0.5586070000000  0.5340580000000  0.4364750000000 1.0
C      1  0.5633280000000  0.5188500000000  0.5626090000000 1.0
C      1  0.4934800000000  0.5245150000000  0.4042530000000 1.0
C      1  0.6029770000000  0.5252710000000  0.4893870000000 1.0
C      1  0.5014160000000  0.5241080000000  0.5971790000000 1.0
C      1  0.3974850000000  0.5232630000000  0.5047320000000 1.0
C      1  0.4522960000000  0.5119800000000  0.4777450000000 1.0
C      1  0.5206780000000  0.5128350000000  0.4559750000000 1.0
C      1  0.5516570000000  0.5119610000000  0.5186460000000 1.0
C      1  0.4794410000000  0.5116200000000  0.5437790000000 1.0
C      1  0.5177540000000  0.5107760000000  0.5209220000000 1.0
C      1  0.4735040000000  0.5100540000000  0.5115920000000 1.0
C      1  0.4855190000000  0.5108780000000  0.4799380000000 1.0
C      1  0.5263220000000  0.5107030000000  0.4878980000000 1.0
C      1  0.4622810000000  0.4675180000000  0.5296210000000 1.0
C      1  0.4577860000000  0.4673330000000  0.4496980000000 1.0
C      1  0.5372300000000  0.4685600000000  0.4692290000000 1.0
C      1  0.5411270000000  0.4646740000000  0.5502790000000 1.0
C      1  0.5468630000000  0.4248080000000  0.5078540000000 1.0
C      1  0.4920560000000  0.4304230000000  0.5443470000000 1.0
C      1  0.4525370000000  0.4253410000000  0.4897800000000 1.0
C      1  0.5063030000000  0.4319560000000  0.4531860000000 1.0
C      1  0.3996410000000  0.5143790000000  0.5361640000000 1.0
C      1  0.4620600000000  0.5168620000000  0.4042420000000 1.0
C      1  0.5997130000000  0.5155770000000  0.4582490000000 1.0
C      1  0.5316850000000  0.5192740000000  0.6035350000000 1.0
C      1  0.4769610000000  0.5773900000000  0.4918950000000 1.0
C      1  0.5095220000000  0.5790840000000  0.4821840000000 1.0
C      1  0.5263510000000  0.5784600000000  0.5118290000000 1.0
C      1  0.4945360000000  0.5796410000000  0.5204190000000 1.0
C      1  0.5503070000000  0.4279970000000  0.5840930000000 1.0
C      1  0.4350910000000  0.4238640000000  0.5231980000000 1.0
C      1  0.4492990000000  0.4170030000000  0.4329860000000 1.0
C      1  0.5648120000000  0.4252450000000  0.4747650000000 1.0
C      1  0.4398120000000  0.4461240000000  0.5399420000000 1.0
C      1  0.4417100000000  0.4429740000000  0.4338780000000 1.0
C      1  0.5593650000000  0.4475290000000  0.4580710000000 1.0
C      1  0.5575840000000  0.4526030000000  0.5741480000000 1.0
C      1  0.5475690000000  0.4780270000000  0.4964680000000 1.0
C      1  0.5129900000000  0.4754770000000  0.5599190000000 1.0
C      1  0.4518980000000  0.4776570000000  0.5030780000000 1.0
C      1  0.4855770000000  0.4780170000000  0.4392950000000 1.0
C      1  0.5055120000000  0.4776810000000  0.4669930000000 1.0
C      1  0.5262930000000  0.4721360000000  0.5225190000000 1.0
C      1  0.4939010000000  0.4765190000000  0.5319700000000 1.0
C      1  0.4732620000000  0.4731290000000  0.4768920000000 1.0
C      1  0.5306260000000  0.5422320000000  0.4637240000000 1.0
C      1  0.5432060000000  0.5406080000000  0.5273680000000 1.0
C      1  0.4724100000000  0.5415850000000  0.5361120000000 1.0
C      1  0.4617410000000  0.5418230000000  0.4716800000000 1.0
END
