TITL C-2782238-9940-711 0.000495243792344885 125000 -122.145590342084 0 0 28 (D2h) n - 1
REM
REM in /home/nfs/bkarasulu/CARBON/AIRSS/Generating-Clusters/REBO/Higher-Symm/SD-CG/HFTN-CG
REM
REM
REM
REM
REM
REM ./C.cell (12c818d87b63d06a65506943cc24bca4)
REM
REM compiler GCC version 9.2.1 20190827 (Red Hat 9.2.1-1)
REM options -cpp -mtune=generic -march=x86-64 -g -O0 -fpre-include=/usr/include/finclude/math-vector-fortran.h
REM seed 339661348 1364058479 -381204121 -831283985 -1136467428 -1025985243 -1240068219 787195867 1160068869 590788957 879375358 -1575378346 -1032408930 -711356795 -1615562428 -1143577998 1622348382 1503982876 -1175100533 -178835572 -1443986085 482581643 -1254174767 -450966350 -1247524986 -1600161749 1510685544 98740618 953977789 372532956 -1725394784 2088284027 -1289367773
REM
CELL 1.54180   50.00000   50.00000   50.00000   90.00000   90.00000   90.00000
LATT -1
SFAC C  
C      1  0.5376460000000  0.4464790000000  0.5421450000000 1.0
C      1  0.4425940000000  0.4607240000000  0.5426440000000 1.0
C      1  0.4627780000000  0.5532090000000  0.5429080000000 1.0
C      1  0.5578290000000  0.5389640000000  0.5423580000000 1.0
C      1  0.5372220000000  0.4467910000000  0.4569130000000 1.0
C      1  0.4421710000000  0.4610360000000  0.4574630000000 1.0
C      1  0.4623540000000  0.5535210000000  0.4576750000000 1.0
C      1  0.5574060000000  0.5392760000000  0.4571760000000 1.0
C      1  0.4909370000000  0.5643670000000  0.5428090000000 1.0
C      1  0.5689860000000  0.5108060000000  0.5421990000000 1.0
C      1  0.5094870000000  0.4353210000000  0.5422440000000 1.0
C      1  0.4314370000000  0.4888830000000  0.5428030000000 1.0
C      1  0.4905130000000  0.5646790000000  0.4575760000000 1.0
C      1  0.5685630000000  0.5111170000000  0.4570170000000 1.0
C      1  0.5090630000000  0.4356330000000  0.4570120000000 1.0
C      1  0.4310140000000  0.4891940000000  0.4576210000000 1.0
C      1  0.4822930000000  0.5448330000000  0.5163150000000 1.0
C      1  0.5491650000000  0.5193900000000  0.5159010000000 1.0
C      1  0.5178670000000  0.4550490000000  0.5158100000000 1.0
C      1  0.4509960000000  0.4804920000000  0.5162470000000 1.0
C      1  0.4821330000000  0.5449510000000  0.4840110000000 1.0
C      1  0.5490040000000  0.5195080000000  0.4835740000000 1.0
C      1  0.5177070000000  0.4551670000000  0.4835050000000 1.0
C      1  0.4508350000000  0.4806100000000  0.4839190000000 1.0
C      1  0.4926660000000  0.5185110000000  0.5000140000000 1.0
C      1  0.5228790000000  0.5090660000000  0.4998300000000 1.0
C      1  0.5073340000000  0.4814890000000  0.4998060000000 1.0
C      1  0.4771210000000  0.4909340000000  0.4999910000000 1.0
END
