TITL C-2782238-9940-639 -2.68128418441135e-07 125000 -45.181836879921 0 0 8 (D8h) n - 1
REM
REM in /home/nfs/bkarasulu/CARBON/AIRSS/Generating-Clusters/REBO/Higher-Symm/SD-CG/HFTN-CG
REM
REM
REM
REM
REM
REM ./C.cell (12c818d87b63d06a65506943cc24bca4)
REM
REM compiler GCC version 9.2.1 20190827 (Red Hat 9.2.1-1)
REM options -cpp -mtune=generic -march=x86-64 -g -O0 -fpre-include=/usr/include/finclude/math-vector-fortran.h
REM seed 469926047 -1503563973 -879990026 -1496035696 1786394058 -24724477 1086083381 618040734 -1141169380 -1727301145 -207843028 157905870 -652645863 1238861967 1019234362 -1326915907 -852883460 216657614 1532381323 -1888191070 1632961794 -2138599424 -415020591 113765191 493523655 1198509945 -212538843 -1915263542 -426707015 -2142283792 -710928455 -1210758139 188357166
REM
CELL 1.54180   50.00000   50.00000   50.00000   90.00000   90.00000   90.00000
LATT -1
SFAC C  
C      1  0.5000000000000  0.4670720000000  0.4863610000000 1.0
C      1  0.5000000000000  0.5329280000000  0.5136390000000 1.0
C      1  0.5000000000000  0.4670720000000  0.5136390000000 1.0
C      1  0.5000000000000  0.5329280000000  0.4863610000000 1.0
C      1  0.5000000000000  0.5136390000000  0.5329280000000 1.0
C      1  0.5000000000000  0.4863610000000  0.4670720000000 1.0
C      1  0.5000000000000  0.5136390000000  0.4670720000000 1.0
C      1  0.5000000000000  0.4863610000000  0.5329280000000 1.0
END
