TITL C-2782231-7322-446 -0.0055812451263484 125000 -630.468070271839 0 0 107 (C1) n - 1
REM
REM in /home/nfs/bkarasulu/CARBON/AIRSS/Generating-Clusters/REBO/Higher-Symm/SD-CG/HFTN-CG
REM
REM
REM
REM
REM
REM ./C.cell (12c818d87b63d06a65506943cc24bca4)
REM
REM compiler GCC version 9.2.1 20190827 (Red Hat 9.2.1-1)
REM options -cpp -mtune=generic -march=x86-64 -g -O0 -fpre-include=/usr/include/finclude/math-vector-fortran.h
REM seed 2112515535 1655927212 -1301022749 450912014 1793797770 -535711831 -609909199 -1194688458 -605271577 -1919793303 482048364 -1214984201 467928255 517264784 -1880282278 -909616719 -617698769 1572346492 -104318123 177154692 -515542407 1966975159 906489824 -663354268 194510262 560228719 -399362332 1483564765 -207922424 1006395721 1925236811 -829027094 -193782635
REM
CELL 1.54180   50.00000   50.00000   50.00000   90.00000   90.00000   90.00000
LATT -1
SFAC C  
C      1  0.5686540000000  0.5589590000000  0.4717020000000 1.0
C      1  0.5829520000000  0.5237550000000  0.4374920000000 1.0
C      1  0.5795520000000  0.4701920000000  0.4468190000000 1.0
C      1  0.5826200000000  0.4457610000000  0.4963120000000 1.0
C      1  0.5708290000000  0.4674930000000  0.5448180000000 1.0
C      1  0.5650760000000  0.5172540000000  0.5559980000000 1.0
C      1  0.5657190000000  0.5599130000000  0.5235150000000 1.0
C      1  0.4007060000000  0.4773710000000  0.4843680000000 1.0
C      1  0.3968860000000  0.4728180000000  0.5129260000000 1.0
C      1  0.3988330000000  0.4928520000000  0.5339890000000 1.0
C      1  0.4043790000000  0.5209370000000  0.5298150000000 1.0
C      1  0.4063530000000  0.5367920000000  0.5055410000000 1.0
C      1  0.4049200000000  0.5286460000000  0.4777130000000 1.0
C      1  0.4027990000000  0.5013010000000  0.4682650000000 1.0
C      1  0.5156180000000  0.4256450000000  0.4672210000000 1.0
C      1  0.5139610000000  0.4255880000000  0.5307550000000 1.0
C      1  0.5210980000000  0.4792230000000  0.5683300000000 1.0
C      1  0.5174080000000  0.5416310000000  0.5535250000000 1.0
C      1  0.5208230000000  0.5697330000000  0.4977430000000 1.0
C      1  0.5327790000000  0.5380810000000  0.4402370000000 1.0
C      1  0.5175960000000  0.4766210000000  0.4312090000000 1.0
C      1  0.4671950000000  0.4628250000000  0.4435990000000 1.0
C      1  0.4552940000000  0.4348310000000  0.5003720000000 1.0
C      1  0.4561730000000  0.4554700000000  0.5485130000000 1.0
C      1  0.4695530000000  0.5037220000000  0.5674080000000 1.0
C      1  0.4722350000000  0.5546080000000  0.5376640000000 1.0
C      1  0.4743000000000  0.5615270000000  0.4791730000000 1.0
C      1  0.4663030000000  0.5200280000000  0.4404710000000 1.0
C      1  0.5739840000000  0.4402790000000  0.5242330000000 1.0
C      1  0.5542650000000  0.4855100000000  0.5638580000000 1.0
C      1  0.5574700000000  0.5460930000000  0.5536890000000 1.0
C      1  0.5528610000000  0.5720130000000  0.4989550000000 1.0
C      1  0.5620040000000  0.5491760000000  0.4438130000000 1.0
C      1  0.5674740000000  0.4987290000000  0.4331220000000 1.0
C      1  0.5806460000000  0.4438660000000  0.4622940000000 1.0
C      1  0.4301770000000  0.5547260000000  0.5084460000000 1.0
C      1  0.4274880000000  0.5419240000000  0.4629610000000 1.0
C      1  0.4239020000000  0.4969510000000  0.4474470000000 1.0
C      1  0.4210200000000  0.4577370000000  0.4740740000000 1.0
C      1  0.4135600000000  0.4492070000000  0.5210400000000 1.0
C      1  0.4179230000000  0.4829280000000  0.5548730000000 1.0
C      1  0.4275500000000  0.5283880000000  0.5473330000000 1.0
C      1  0.5267590000000  0.5512540000000  0.5236400000000 1.0
C      1  0.5277210000000  0.5511780000000  0.4712380000000 1.0
C      1  0.5293420000000  0.5070360000000  0.4414950000000 1.0
C      1  0.5263710000000  0.4521520000000  0.4531490000000 1.0
C      1  0.5233790000000  0.4265740000000  0.4989470000000 1.0
C      1  0.5258550000000  0.4495850000000  0.5517960000000 1.0
C      1  0.5248170000000  0.5116390000000  0.5575660000000 1.0
C      1  0.5633160000000  0.5772480000000  0.5527630000000 1.0
C      1  0.5687760000000  0.5921550000000  0.4792410000000 1.0
C      1  0.5833410000000  0.5525870000000  0.4194750000000 1.0
C      1  0.5505750000000  0.4733290000000  0.4290620000000 1.0
C      1  0.5931700000000  0.4191210000000  0.4778190000000 1.0
C      1  0.5759950000000  0.4355010000000  0.5554220000000 1.0
C      1  0.5693220000000  0.5029590000000  0.5865890000000 1.0
C      1  0.4360000000000  0.4705320000000  0.4519520000000 1.0
C      1  0.4275730000000  0.4396540000000  0.4966090000000 1.0
C      1  0.4270110000000  0.4558050000000  0.5472780000000 1.0
C      1  0.4369730000000  0.5044940000000  0.5612600000000 1.0
C      1  0.4412600000000  0.5503540000000  0.5349050000000 1.0
C      1  0.4427930000000  0.5575460000000  0.4823770000000 1.0
C      1  0.4375400000000  0.5228560000000  0.4426180000000 1.0
C      1  0.5874890000000  0.4762540000000  0.4969870000000 1.0
C      1  0.5831460000000  0.4866520000000  0.5224730000000 1.0
C      1  0.5807410000000  0.5132120000000  0.5294790000000 1.0
C      1  0.5820930000000  0.5356240000000  0.5129880000000 1.0
C      1  0.5851510000000  0.5362580000000  0.4852140000000 1.0
C      1  0.5912040000000  0.5160690000000  0.4667810000000 1.0
C      1  0.5894280000000  0.4887330000000  0.4720350000000 1.0
C      1  0.5476960000000  0.4942870000000  0.4673130000000 1.0
C      1  0.5501480000000  0.4638910000000  0.4729390000000 1.0
C      1  0.5424640000000  0.4534840000000  0.5007650000000 1.0
C      1  0.5357400000000  0.4698860000000  0.5260340000000 1.0
C      1  0.5401110000000  0.5005270000000  0.5297350000000 1.0
C      1  0.5436170000000  0.5250110000000  0.5115390000000 1.0
C      1  0.5455880000000  0.5236610000000  0.4804350000000 1.0
C      1  0.4904050000000  0.5476290000000  0.5608280000000 1.0
C      1  0.4917600000000  0.5774960000000  0.4981890000000 1.0
C      1  0.5057190000000  0.5547900000000  0.4380390000000 1.0
C      1  0.4874290000000  0.4789280000000  0.4255270000000 1.0
C      1  0.4919530000000  0.4171500000000  0.4568670000000 1.0
C      1  0.4892010000000  0.4144720000000  0.5335440000000 1.0
C      1  0.4884640000000  0.4792310000000  0.5745500000000 1.0
C      1  0.5114430000000  0.5269360000000  0.4880450000000 1.0
C      1  0.5137090000000  0.5016730000000  0.4707290000000 1.0
C      1  0.5153940000000  0.4719780000000  0.4781000000000 1.0
C      1  0.5064380000000  0.4554080000000  0.5030210000000 1.0
C      1  0.5029460000000  0.4640970000000  0.5327270000000 1.0
C      1  0.5056060000000  0.4947330000000  0.5350900000000 1.0
C      1  0.5087510000000  0.5228690000000  0.5193760000000 1.0
C      1  0.4690080000000  0.5269640000000  0.5184170000000 1.0
C      1  0.4717730000000  0.5309530000000  0.4895540000000 1.0
C      1  0.4754810000000  0.5125710000000  0.4670190000000 1.0
C      1  0.4706720000000  0.4790270000000  0.4699780000000 1.0
C      1  0.4689410000000  0.4615830000000  0.4991210000000 1.0
C      1  0.4649330000000  0.4743480000000  0.5282830000000 1.0
C      1  0.4664620000000  0.5026940000000  0.5343720000000 1.0
C      1  0.4743360000000  0.4555240000000  0.5706650000000 1.0
C      1  0.4791900000000  0.5304240000000  0.5788130000000 1.0
C      1  0.4808460000000  0.5803380000000  0.5234070000000 1.0
C      1  0.4860910000000  0.5621330000000  0.4508610000000 1.0
C      1  0.4781290000000  0.5043480000000  0.4196380000000 1.0
C      1  0.4728790000000  0.4325940000000  0.4453100000000 1.0
C      1  0.4670320000000  0.4162090000000  0.5177340000000 1.0
C      1  0.4879250000000  0.4964150000000  0.5012870000000 1.0
C      1  0.4564680000000  0.4947710000000  0.4963160000000 1.0
END
