TITL C-2782239-8622-157 0.00448958500807627 125000 -425.57866844013 0 0 72 (C1) n - 1
REM
REM in /home/nfs/bkarasulu/CARBON/AIRSS/Generating-Clusters/REBO/Higher-Symm/SD-CG/HFTN-CG
REM
REM
REM
REM
REM
REM ./C.cell (12c818d87b63d06a65506943cc24bca4)
REM
REM compiler GCC version 9.2.1 20190827 (Red Hat 9.2.1-1)
REM options -cpp -mtune=generic -march=x86-64 -g -O0 -fpre-include=/usr/include/finclude/math-vector-fortran.h
REM seed 1527521449 317780228 -1495122462 759410235 -1601968219 -39149682 5645860 -851135398 1603505244 -179108591 -1975550569 -575606134 1406696599 -967383968 769921469 -588539020 296781026 1579348698 907133212 849531926 1667245739 -1340040397 1221633705 1584201243 1353365165 1670985904 1841574158 598157768 1374220015 -1226862917 1917540536 1211378826 1818902665
REM
CELL 1.54180   50.00000   50.00000   50.00000   90.00000   90.00000   90.00000
LATT -1
SFAC C  
C      1  0.4198200000000  0.4762930000000  0.4782000000000 1.0
C      1  0.4199800000000  0.5076230000000  0.4684730000000 1.0
C      1  0.4196050000000  0.5316770000000  0.4907720000000 1.0
C      1  0.4193120000000  0.5237930000000  0.5225940000000 1.0
C      1  0.4181990000000  0.4924120000000  0.5322110000000 1.0
C      1  0.4186200000000  0.4682470000000  0.5100210000000 1.0
C      1  0.5219510000000  0.5506010000000  0.4352600000000 1.0
C      1  0.5217220000000  0.5821260000000  0.5115720000000 1.0
C      1  0.5219470000000  0.5302120000000  0.5781440000000 1.0
C      1  0.5187800000000  0.4483730000000  0.5505380000000 1.0
C      1  0.5212480000000  0.4189620000000  0.4905730000000 1.0
C      1  0.5228070000000  0.4690020000000  0.4244390000000 1.0
C      1  0.4345790000000  0.4487710000000  0.4887070000000 1.0
C      1  0.4358070000000  0.4848670000000  0.4506340000000 1.0
C      1  0.4349250000000  0.5362750000000  0.4619500000000 1.0
C      1  0.4349000000000  0.5511300000000  0.5125610000000 1.0
C      1  0.4360620000000  0.5141950000000  0.5492830000000 1.0
C      1  0.4303570000000  0.4628920000000  0.5404640000000 1.0
C      1  0.4585010000000  0.4803490000000  0.4385480000000 1.0
C      1  0.4576520000000  0.5445490000000  0.4520520000000 1.0
C      1  0.4577840000000  0.5635190000000  0.5150630000000 1.0
C      1  0.4593650000000  0.5179680000000  0.5602990000000 1.0
C      1  0.4519520000000  0.4540800000000  0.5525160000000 1.0
C      1  0.4567140000000  0.4354240000000  0.4851260000000 1.0
C      1  0.5027100000000  0.4706060000000  0.5655430000000 1.0
C      1  0.4985050000000  0.4201610000000  0.5116250000000 1.0
C      1  0.5021010000000  0.4511220000000  0.4395330000000 1.0
C      1  0.5012080000000  0.5285230000000  0.4274260000000 1.0
C      1  0.5008420000000  0.5775200000000  0.4886790000000 1.0
C      1  0.5020410000000  0.5482790000000  0.5614990000000 1.0
C      1  0.5745760000000  0.5191990000000  0.5223760000000 1.0
C      1  0.5758420000000  0.4911810000000  0.5264390000000 1.0
C      1  0.5730380000000  0.4738540000000  0.5040640000000 1.0
C      1  0.5728590000000  0.4838450000000  0.4776930000000 1.0
C      1  0.5731050000000  0.5120130000000  0.4736160000000 1.0
C      1  0.5734340000000  0.5295560000000  0.4960140000000 1.0
C      1  0.4942850000000  0.4920520000000  0.5259610000000 1.0
C      1  0.4850770000000  0.4693680000000  0.5078860000000 1.0
C      1  0.4890010000000  0.4750770000000  0.4785780000000 1.0
C      1  0.4891490000000  0.5041120000000  0.4686280000000 1.0
C      1  0.4890210000000  0.5273400000000  0.4883360000000 1.0
C      1  0.4900780000000  0.5209180000000  0.5177920000000 1.0
C      1  0.4863350000000  0.5216280000000  0.5638910000000 1.0
C      1  0.4794460000000  0.4511820000000  0.5553490000000 1.0
C      1  0.4835740000000  0.4293790000000  0.4857650000000 1.0
C      1  0.4854580000000  0.4767470000000  0.4343310000000 1.0
C      1  0.4846880000000  0.5459640000000  0.4471080000000 1.0
C      1  0.4848080000000  0.5686190000000  0.5137890000000 1.0
C      1  0.5491090000000  0.4540110000000  0.5085110000000 1.0
C      1  0.5498120000000  0.4707500000000  0.4617170000000 1.0
C      1  0.5501210000000  0.5200790000000  0.4544570000000 1.0
C      1  0.5502110000000  0.5498640000000  0.4938810000000 1.0
C      1  0.5516380000000  0.5311750000000  0.5394460000000 1.0
C      1  0.5549290000000  0.4830150000000  0.5475130000000 1.0
C      1  0.4967970000000  0.4309740000000  0.5374150000000 1.0
C      1  0.5079720000000  0.4365290000000  0.4642890000000 1.0
C      1  0.5080680000000  0.4999550000000  0.4269750000000 1.0
C      1  0.5075160000000  0.5638110000000  0.4635350000000 1.0
C      1  0.5081810000000  0.5634890000000  0.5370640000000 1.0
C      1  0.5097040000000  0.4989340000000  0.5702650000000 1.0
C      1  0.5413370000000  0.5088270000000  0.5619900000000 1.0
C      1  0.5439760000000  0.4538910000000  0.5400320000000 1.0
C      1  0.5376360000000  0.4454880000000  0.4783920000000 1.0
C      1  0.5388100000000  0.4938370000000  0.4400770000000 1.0
C      1  0.5384350000000  0.5497450000000  0.4643180000000 1.0
C      1  0.5389460000000  0.5565290000000  0.5243240000000 1.0
C      1  0.5217770000000  0.5139220000000  0.4701530000000 1.0
C      1  0.5215910000000  0.5333010000000  0.4967760000000 1.0
C      1  0.5225960000000  0.5202260000000  0.5272530000000 1.0
C      1  0.5261680000000  0.4884560000000  0.5313430000000 1.0
C      1  0.5192200000000  0.4697610000000  0.5042400000000 1.0
C      1  0.5216800000000  0.4818450000000  0.4741090000000 1.0
END
