TITL C-2782228-2999-537 -0.000351738476443048 125000 -1118.92858034311 0 0 186 (D6) n - 1
REM
REM in /home/nfs/bkarasulu/CARBON/AIRSS/Generating-Clusters/REBO/Higher-Symm/SD-CG/HFTN-CG
REM
REM
REM
REM
REM
REM ./C.cell (12c818d87b63d06a65506943cc24bca4)
REM
REM compiler GCC version 9.2.1 20190827 (Red Hat 9.2.1-1)
REM options -cpp -mtune=generic -march=x86-64 -g -O0 -fpre-include=/usr/include/finclude/math-vector-fortran.h
REM seed -542343161 1579181061 26838037 1901556128 1700552408 -640486864 -1499683355 -367345391 -679903969 1160861472 -453633711 -1157089408 1049273249 1418296070 -964069456 -1797184287 -1964693588 -1386946086 -26936758 -1839855010 -87434493 550215754 -1487356501 1443373588 -197678911 1210326482 613271363 1016185165 -929039763 1028950804 -15568421 799328492 -246625074
REM
CELL 1.54180   50.00000   50.00000   50.00000   90.00000   90.00000   90.00000
LATT -1
SFAC C  
C      1  0.5858010000000  0.4946780000000  0.5448370000000 1.0
C      1  0.5475120000000  0.5716480000000  0.5448300000000 1.0
C      1  0.4617090000000  0.5769740000000  0.5448260000000 1.0
C      1  0.4141960000000  0.5053290000000  0.5448310000000 1.0
C      1  0.4524850000000  0.4283600000000  0.5448390000000 1.0
C      1  0.5382880000000  0.4230340000000  0.5448420000000 1.0
C      1  0.4141980000000  0.4946810000000  0.4540140000000 1.0
C      1  0.4524960000000  0.5716460000000  0.4540090000000 1.0
C      1  0.5382990000000  0.5769620000000  0.4540110000000 1.0
C      1  0.5858040000000  0.5053120000000  0.4540190000000 1.0
C      1  0.5475060000000  0.4283470000000  0.4540240000000 1.0
C      1  0.4617030000000  0.4230310000000  0.4540220000000 1.0
C      1  0.5325530000000  0.3858100000000  0.4837460000000 1.0
C      1  0.6151670000000  0.4710960000000  0.4837410000000 1.0
C      1  0.5826150000000  0.5852840000000  0.4837310000000 1.0
C      1  0.4674480000000  0.6141880000000  0.4837250000000 1.0
C      1  0.3848340000000  0.5289020000000  0.4837290000000 1.0
C      1  0.4173860000000  0.4147130000000  0.4837400000000 1.0
C      1  0.4674340000000  0.3858160000000  0.5151240000000 1.0
C      1  0.3848290000000  0.4711120000000  0.5151140000000 1.0
C      1  0.4173950000000  0.5852970000000  0.5151060000000 1.0
C      1  0.5325650000000  0.6141860000000  0.5151070000000 1.0
C      1  0.6151700000000  0.5288910000000  0.5151170000000 1.0
C      1  0.5826040000000  0.4147060000000  0.5151250000000 1.0
C      1  0.4955680000000  0.5332700000000  0.3877240000000 1.0
C      1  0.4689650000000  0.5127890000000  0.3877250000000 1.0
C      1  0.4734010000000  0.4795090000000  0.3877270000000 1.0
C      1  0.5044400000000  0.4667110000000  0.3877290000000 1.0
C      1  0.5310420000000  0.4871930000000  0.3877290000000 1.0
C      1  0.5266060000000  0.5204720000000  0.3877260000000 1.0
C      1  0.5044360000000  0.5332880000000  0.6111210000000 1.0
C      1  0.5310370000000  0.5128040000000  0.6111240000000 1.0
C      1  0.5265970000000  0.4795250000000  0.6111270000000 1.0
C      1  0.4955570000000  0.4667300000000  0.6111270000000 1.0
C      1  0.4689560000000  0.4872150000000  0.6111240000000 1.0
C      1  0.4733960000000  0.5204940000000  0.6111210000000 1.0
C      1  0.4737830000000  0.5090700000000  0.4272200000000 1.0
C      1  0.4790320000000  0.4818260000000  0.4272220000000 1.0
C      1  0.5052520000000  0.4727490000000  0.4272240000000 1.0
C      1  0.5262220000000  0.4909180000000  0.4272230000000 1.0
C      1  0.5209720000000  0.5181620000000  0.4272210000000 1.0
C      1  0.4947530000000  0.5272390000000  0.4272190000000 1.0
C      1  0.5262180000000  0.5090790000000  0.5716290000000 1.0
C      1  0.5209660000000  0.4818350000000  0.5716310000000 1.0
C      1  0.4947450000000  0.4727620000000  0.5716310000000 1.0
C      1  0.4737770000000  0.4909330000000  0.5716290000000 1.0
C      1  0.4790300000000  0.5181770000000  0.5716270000000 1.0
C      1  0.5052500000000  0.5272500000000  0.5716270000000 1.0
C      1  0.4739550000000  0.4249120000000  0.4216650000000 1.0
C      1  0.5520010000000  0.4398950000000  0.4216670000000 1.0
C      1  0.5780480000000  0.5149770000000  0.4216610000000 1.0
C      1  0.5260500000000  0.5750750000000  0.4216540000000 1.0
C      1  0.4480040000000  0.5600920000000  0.4216530000000 1.0
C      1  0.4219560000000  0.4850100000000  0.4216590000000 1.0
C      1  0.5260360000000  0.4249220000000  0.5771980000000 1.0
C      1  0.4479920000000  0.4399140000000  0.5771940000000 1.0
C      1  0.4219530000000  0.5149990000000  0.5771870000000 1.0
C      1  0.4739590000000  0.5750910000000  0.5771840000000 1.0
C      1  0.5520030000000  0.5600990000000  0.5771870000000 1.0
C      1  0.5780420000000  0.4850140000000  0.5771940000000 1.0
C      1  0.5494910000000  0.4731580000000  0.4845870000000 1.0
C      1  0.5479900000000  0.5294390000000  0.4845820000000 1.0
C      1  0.4985000000000  0.5562790000000  0.4845780000000 1.0
C      1  0.4505100000000  0.5268390000000  0.4845790000000 1.0
C      1  0.4520100000000  0.4705590000000  0.4845840000000 1.0
C      1  0.5015010000000  0.4437180000000  0.4845880000000 1.0
C      1  0.4505060000000  0.4731660000000  0.5142680000000 1.0
C      1  0.4520130000000  0.5294470000000  0.5142630000000 1.0
C      1  0.5015070000000  0.5562820000000  0.5142630000000 1.0
C      1  0.5494930000000  0.5268360000000  0.5142670000000 1.0
C      1  0.5479860000000  0.4705560000000  0.5142710000000 1.0
C      1  0.4984920000000  0.4437210000000  0.5142720000000 1.0
C      1  0.5208180000000  0.4477700000000  0.6002270000000 1.0
C      1  0.5556470000000  0.4919210000000  0.6002250000000 1.0
C      1  0.5348260000000  0.5441590000000  0.6002200000000 1.0
C      1  0.4791760000000  0.5522460000000  0.6002170000000 1.0
C      1  0.4443470000000  0.5080960000000  0.6002200000000 1.0
C      1  0.4651680000000  0.4558580000000  0.6002250000000 1.0
C      1  0.4791760000000  0.4477560000000  0.3986320000000 1.0
C      1  0.4443520000000  0.4919110000000  0.3986270000000 1.0
C      1  0.4651790000000  0.5441460000000  0.3986230000000 1.0
C      1  0.5208300000000  0.5522270000000  0.3986240000000 1.0
C      1  0.5556540000000  0.5080730000000  0.3986290000000 1.0
C      1  0.5348270000000  0.4558370000000  0.3986330000000 1.0
C      1  0.4856880000000  0.5233100000000  0.4659490000000 1.0
C      1  0.4726550000000  0.4992580000000  0.4659510000000 1.0
C      1  0.4869680000000  0.4759460000000  0.4659530000000 1.0
C      1  0.5143140000000  0.4766850000000  0.4659540000000 1.0
C      1  0.5273470000000  0.5007360000000  0.4659530000000 1.0
C      1  0.5130340000000  0.5240490000000  0.4659500000000 1.0
C      1  0.5143140000000  0.5233140000000  0.5328970000000 1.0
C      1  0.5273450000000  0.4992610000000  0.5329000000000 1.0
C      1  0.5130290000000  0.4759500000000  0.5329010000000 1.0
C      1  0.4856830000000  0.4766920000000  0.5329000000000 1.0
C      1  0.4726530000000  0.5007450000000  0.5328980000000 1.0
C      1  0.4869690000000  0.5240560000000  0.5328960000000 1.0
C      1  0.5302960000000  0.4155190000000  0.4294600000000 1.0
C      1  0.5883070000000  0.4839920000000  0.4294560000000 1.0
C      1  0.5580130000000  0.5684670000000  0.4294480000000 1.0
C      1  0.4697080000000  0.5844690000000  0.4294440000000 1.0
C      1  0.4116970000000  0.5159960000000  0.4294480000000 1.0
C      1  0.4419920000000  0.4315210000000  0.4294560000000 1.0
C      1  0.4696940000000  0.4155340000000  0.5694050000000 1.0
C      1  0.4116910000000  0.4840140000000  0.5693970000000 1.0
C      1  0.4419950000000  0.5684860000000  0.5693910000000 1.0
C      1  0.5303020000000  0.5844780000000  0.5693930000000 1.0
C      1  0.5883040000000  0.5159980000000  0.5694000000000 1.0
C      1  0.5580000000000  0.4315260000000  0.5694060000000 1.0
C      1  0.4719950000000  0.4481220000000  0.4703310000000 1.0
C      1  0.5309230000000  0.4498060000000  0.4703330000000 1.0
C      1  0.5589290000000  0.5016820000000  0.4703290000000 1.0
C      1  0.5280070000000  0.5518730000000  0.4703240000000 1.0
C      1  0.4690790000000  0.5501890000000  0.4703230000000 1.0
C      1  0.4410730000000  0.4983140000000  0.4703260000000 1.0
C      1  0.5279990000000  0.4481240000000  0.5285280000000 1.0
C      1  0.4690710000000  0.4498150000000  0.5285260000000 1.0
C      1  0.4410710000000  0.5016930000000  0.5285210000000 1.0
C      1  0.4719990000000  0.5518810000000  0.5285180000000 1.0
C      1  0.5309270000000  0.5501900000000  0.5285200000000 1.0
C      1  0.5589270000000  0.4983120000000  0.5285250000000 1.0
C      1  0.5964550000000  0.4491310000000  0.4844040000000 1.0
C      1  0.5922800000000  0.5580970000000  0.4843950000000 1.0
C      1  0.4958250000000  0.6089650000000  0.4843880000000 1.0
C      1  0.4035460000000  0.5508660000000  0.4843900000000 1.0
C      1  0.4077210000000  0.4419000000000  0.4843990000000 1.0
C      1  0.5041750000000  0.3910330000000  0.4844060000000 1.0
C      1  0.4035390000000  0.4491450000000  0.5144550000000 1.0
C      1  0.4077260000000  0.5581110000000  0.5144460000000 1.0
C      1  0.5041870000000  0.6089670000000  0.5144450000000 1.0
C      1  0.5964600000000  0.5508580000000  0.5144520000000 1.0
C      1  0.5922730000000  0.4418920000000  0.5144610000000 1.0
C      1  0.4958120000000  0.3910360000000  0.5144620000000 1.0
C      1  0.5706630000000  0.4571290000000  0.4683220000000 1.0
C      1  0.5724570000000  0.5397580000000  0.4683150000000 1.0
C      1  0.5017960000000  0.5826260000000  0.4683090000000 1.0
C      1  0.4293390000000  0.5428660000000  0.4683100000000 1.0
C      1  0.4275450000000  0.4602370000000  0.4683170000000 1.0
C      1  0.4982060000000  0.4173680000000  0.4683230000000 1.0
C      1  0.4293330000000  0.4571420000000  0.5305360000000 1.0
C      1  0.4275470000000  0.5397710000000  0.5305290000000 1.0
C      1  0.4982140000000  0.5826320000000  0.5305280000000 1.0
C      1  0.5706650000000  0.5428630000000  0.5305330000000 1.0
C      1  0.5724510000000  0.4602340000000  0.5305400000000 1.0
C      1  0.5017840000000  0.4173730000000  0.5305410000000 1.0
C      1  0.5551360000000  0.4824550000000  0.4203440000000 1.0
C      1  0.5427580000000  0.5389710000000  0.4203390000000 1.0
C      1  0.4876250000000  0.5565090000000  0.4203360000000 1.0
C      1  0.4448690000000  0.5175320000000  0.4203380000000 1.0
C      1  0.4572470000000  0.4610160000000  0.4203430000000 1.0
C      1  0.5123800000000  0.4434770000000  0.4203460000000 1.0
C      1  0.4448620000000  0.4824740000000  0.5785090000000 1.0
C      1  0.4572470000000  0.5389890000000  0.5785050000000 1.0
C      1  0.5123820000000  0.5565210000000  0.5785050000000 1.0
C      1  0.5551330000000  0.5175390000000  0.5785100000000 1.0
C      1  0.5427480000000  0.4610240000000  0.5785140000000 1.0
C      1  0.4876130000000  0.4434920000000  0.5785140000000 1.0
C      1  0.5703050000000  0.4594700000000  0.5596060000000 1.0
C      1  0.5702560000000  0.5406250000000  0.5595990000000 1.0
C      1  0.4999490000000  0.5811600000000  0.5595940000000 1.0
C      1  0.4296920000000  0.5405400000000  0.5595950000000 1.0
C      1  0.4297400000000  0.4593850000000  0.5596020000000 1.0
C      1  0.5000470000000  0.4188500000000  0.5596070000000 1.0
C      1  0.4296910000000  0.4594680000000  0.4392510000000 1.0
C      1  0.4297490000000  0.5406230000000  0.4392450000000 1.0
C      1  0.5000600000000  0.5811500000000  0.4392430000000 1.0
C      1  0.5703130000000  0.5405220000000  0.4392490000000 1.0
C      1  0.5702550000000  0.4593670000000  0.4392560000000 1.0
C      1  0.4999440000000  0.4188400000000  0.4392570000000 1.0
C      1  0.4000190000000  0.5244610000000  0.5203990000000 1.0
C      1  0.4288270000000  0.4256460000000  0.5204090000000 1.0
C      1  0.5288070000000  0.4011860000000  0.5204140000000 1.0
C      1  0.5999800000000  0.4755420000000  0.5204100000000 1.0
C      1  0.5711720000000  0.5743570000000  0.5204010000000 1.0
C      1  0.4711920000000  0.5988170000000  0.5203960000000 1.0
C      1  0.5999840000000  0.5244460000000  0.4784470000000 1.0
C      1  0.5711650000000  0.4256340000000  0.4784540000000 1.0
C      1  0.4711820000000  0.4011860000000  0.4784530000000 1.0
C      1  0.4000170000000  0.4755500000000  0.4784450000000 1.0
C      1  0.4288360000000  0.5743620000000  0.4784380000000 1.0
C      1  0.5288200000000  0.5988100000000  0.4784390000000 1.0
C      1  0.6108960000000  0.4999940000000  0.4994290000000 1.0
C      1  0.5554530000000  0.5960350000000  0.4994190000000 1.0
C      1  0.4445580000000  0.5960420000000  0.4994160000000 1.0
C      1  0.3891040000000  0.5000060000000  0.4994220000000 1.0
C      1  0.5554420000000  0.4039580000000  0.4994350000000 1.0
C      1  0.4445470000000  0.4039650000000  0.4994310000000 1.0
END
