TITL C-2782231-7322-1450 0.0512713387882811 125000 -837.934899669441 0 0 145 (C1) n - 1
REM
REM in /home/nfs/bkarasulu/CARBON/AIRSS/Generating-Clusters/REBO/Higher-Symm/SD-CG/HFTN-CG
REM
REM
REM
REM
REM
REM ./C.cell (12c818d87b63d06a65506943cc24bca4)
REM
REM compiler GCC version 9.2.1 20190827 (Red Hat 9.2.1-1)
REM options -cpp -mtune=generic -march=x86-64 -g -O0 -fpre-include=/usr/include/finclude/math-vector-fortran.h
REM seed 610112575 -310018667 980747060 1834829425 1623792627 571494941 -341262863 -1387301200 456635678 -1553205918 1230608398 215688571 1274992257 444498155 476060302 891663363 1138682416 -1120421258 1525738347 148382132 -1410347968 -384959767 624156739 -430019935 -1193520646 -1192467431 -2097249639 1853620247 -48116292 1210546115 1425541993 -233215749 1194105075
REM
CELL 1.54180   50.00000   50.00000   50.00000   90.00000   90.00000   90.00000
LATT -1
SFAC C  
C      1  0.4351220000000  0.4971780000000  0.4819560000000 1.0
C      1  0.4811140000000  0.5022480000000  0.5729150000000 1.0
C      1  0.5725940000000  0.5062930000000  0.5171790000000 1.0
C      1  0.5133920000000  0.5076580000000  0.4261200000000 1.0
C      1  0.4334090000000  0.4908650000000  0.5154720000000 1.0
C      1  0.4829760000000  0.4923920000000  0.4251900000000 1.0
C      1  0.5623970000000  0.4950390000000  0.4886060000000 1.0
C      1  0.5125350000000  0.4913110000000  0.5688280000000 1.0
C      1  0.4191850000000  0.4064420000000  0.5100890000000 1.0
C      1  0.5167500000000  0.4142510000000  0.5857980000000 1.0
C      1  0.5757880000000  0.4172230000000  0.4831850000000 1.0
C      1  0.4948310000000  0.4089880000000  0.4242920000000 1.0
C      1  0.4199700000000  0.5819920000000  0.4869870000000 1.0
C      1  0.5174600000000  0.5942780000000  0.4145420000000 1.0
C      1  0.5889890000000  0.5848940000000  0.5129210000000 1.0
C      1  0.4876240000000  0.5807300000000  0.5838360000000 1.0
C      1  0.5544800000000  0.5148500000000  0.5445540000000 1.0
C      1  0.5430980000000  0.5122240000000  0.4415780000000 1.0
C      1  0.4359810000000  0.5142540000000  0.4242840000000 1.0
C      1  0.4524640000000  0.5115450000000  0.5564730000000 1.0
C      1  0.5602550000000  0.4960260000000  0.4551670000000 1.0
C      1  0.5391310000000  0.4892870000000  0.5496150000000 1.0
C      1  0.4499950000000  0.4820670000000  0.5581150000000 1.0
C      1  0.4490210000000  0.4900690000000  0.4261740000000 1.0
C      1  0.5289570000000  0.4595300000000  0.4932190000000 1.0
C      1  0.4783320000000  0.4611300000000  0.4742550000000 1.0
C      1  0.4646390000000  0.4563160000000  0.5109720000000 1.0
C      1  0.5108680000000  0.4586810000000  0.5369030000000 1.0
C      1  0.5320570000000  0.5417630000000  0.5057460000000 1.0
C      1  0.4924340000000  0.5483700000000  0.5367590000000 1.0
C      1  0.4777150000000  0.5359950000000  0.4970080000000 1.0
C      1  0.5200760000000  0.5363230000000  0.4683690000000 1.0
C      1  0.4409720000000  0.4089150000000  0.5278340000000 1.0
C      1  0.5301750000000  0.4107450000000  0.5608800000000 1.0
C      1  0.5504710000000  0.4148020000000  0.4700430000000 1.0
C      1  0.4767890000000  0.4082230000000  0.4456930000000 1.0
C      1  0.4457390000000  0.5812830000000  0.4757600000000 1.0
C      1  0.5312450000000  0.5924650000000  0.4389970000000 1.0
C      1  0.5621200000000  0.5877980000000  0.5224330000000 1.0
C      1  0.4750180000000  0.5878060000000  0.5592190000000 1.0
C      1  0.5272170000000  0.4610770000000  0.5747250000000 1.0
C      1  0.5647930000000  0.4631220000000  0.4764130000000 1.0
C      1  0.4740950000000  0.4609220000000  0.4350160000000 1.0
C      1  0.4281650000000  0.4616530000000  0.5257340000000 1.0
C      1  0.5197450000000  0.5412940000000  0.4289840000000 1.0
C      1  0.5784740000000  0.5383630000000  0.5231920000000 1.0
C      1  0.4752810000000  0.5338150000000  0.5800590000000 1.0
C      1  0.4419250000000  0.5262110000000  0.4779320000000 1.0
C      1  0.4757430000000  0.3899360000000  0.4664550000000 1.0
C      1  0.4632140000000  0.3922680000000  0.5305280000000 1.0
C      1  0.5274560000000  0.3936430000000  0.5394670000000 1.0
C      1  0.5303920000000  0.3967980000000  0.4758060000000 1.0
C      1  0.4789560000000  0.6055810000000  0.5382760000000 1.0
C      1  0.4650070000000  0.6011760000000  0.4741400000000 1.0
C      1  0.5340320000000  0.6116840000000  0.4587230000000 1.0
C      1  0.5419180000000  0.6061970000000  0.5208890000000 1.0
C      1  0.6070280000000  0.4920530000000  0.5026880000000 1.0
C      1  0.5250160000000  0.5099780000000  0.3879460000000 1.0
C      1  0.3869030000000  0.4981130000000  0.4827270000000 1.0
C      1  0.4873620000000  0.4914580000000  0.6189390000000 1.0
C      1  0.6059670000000  0.5047150000000  0.4787390000000 1.0
C      1  0.5123080000000  0.5039450000000  0.6159350000000 1.0
C      1  0.3889640000000  0.5085290000000  0.5084610000000 1.0
C      1  0.5006390000000  0.5225120000000  0.3894250000000 1.0
C      1  0.5703110000000  0.5426930000000  0.5559830000000 1.0
C      1  0.5538500000000  0.5390130000000  0.4353900000000 1.0
C      1  0.4394630000000  0.5356200000000  0.4475230000000 1.0
C      1  0.4495890000000  0.5438420000000  0.5623890000000 1.0
C      1  0.5632880000000  0.4693720000000  0.4429010000000 1.0
C      1  0.5593500000000  0.4671220000000  0.5647740000000 1.0
C      1  0.4278700000000  0.4574750000000  0.5594990000000 1.0
C      1  0.4400630000000  0.4643830000000  0.4385930000000 1.0
C      1  0.5222690000000  0.4102840000000  0.5125430000000 1.0
C      1  0.5033940000000  0.4116150000000  0.4855040000000 1.0
C      1  0.4733090000000  0.4056150000000  0.4944810000000 1.0
C      1  0.4908330000000  0.4094700000000  0.5233750000000 1.0
C      1  0.5239730000000  0.6006640000000  0.4856740000000 1.0
C      1  0.5111500000000  0.5947030000000  0.5166020000000 1.0
C      1  0.4786430000000  0.5896750000000  0.5098110000000 1.0
C      1  0.4944490000000  0.5886540000000  0.4808800000000 1.0
C      1  0.5374980000000  0.4914700000000  0.4079680000000 1.0
C      1  0.4093000000000  0.4882270000000  0.4680290000000 1.0
C      1  0.4706390000000  0.4860540000000  0.5974670000000 1.0
C      1  0.5938930000000  0.4850440000000  0.5286830000000 1.0
C      1  0.5260130000000  0.5082670000000  0.5924380000000 1.0
C      1  0.4106290000000  0.5092510000000  0.5250470000000 1.0
C      1  0.4803200000000  0.5193480000000  0.4070550000000 1.0
C      1  0.5983370000000  0.5203250000000  0.4579610000000 1.0
C      1  0.4670980000000  0.4350640000000  0.4561690000000 1.0
C      1  0.4506210000000  0.4371780000000  0.5336210000000 1.0
C      1  0.5346220000000  0.4393970000000  0.5501440000000 1.0
C      1  0.5381560000000  0.4438800000000  0.4662570000000 1.0
C      1  0.4666530000000  0.5619620000000  0.5457740000000 1.0
C      1  0.4603750000000  0.5546680000000  0.4744370000000 1.0
C      1  0.5291600000000  0.5648690000000  0.4517930000000 1.0
C      1  0.5511440000000  0.5583580000000  0.5269440000000 1.0
C      1  0.4892580000000  0.5366630000000  0.4437950000000 1.0
C      1  0.4405360000000  0.5377620000000  0.5095480000000 1.0
C      1  0.5222510000000  0.5392920000000  0.5483300000000 1.0
C      1  0.5565900000000  0.5503640000000  0.4758300000000 1.0
C      1  0.4771900000000  0.4653750000000  0.5567440000000 1.0
C      1  0.4292530000000  0.4463910000000  0.4958270000000 1.0
C      1  0.5060790000000  0.4629340000000  0.4464420000000 1.0
C      1  0.5491480000000  0.4676740000000  0.5263790000000 1.0
C      1  0.4837090000000  0.4746600000000  0.5244660000000 1.0
C      1  0.5211170000000  0.4827410000000  0.5146950000000 1.0
C      1  0.5055170000000  0.4776990000000  0.4778450000000 1.0
C      1  0.4507070000000  0.4708430000000  0.4855710000000 1.0
C      1  0.4927860000000  0.5197360000000  0.4735330000000 1.0
C      1  0.5452660000000  0.5208340000000  0.4826170000000 1.0
C      1  0.5087820000000  0.5252000000000  0.5197190000000 1.0
C      1  0.4610070000000  0.5098420000000  0.5095530000000 1.0
C      1  0.4845410000000  0.4369670000000  0.5392240000000 1.0
C      1  0.5372170000000  0.4371630000000  0.5162910000000 1.0
C      1  0.5043620000000  0.4386280000000  0.4702340000000 1.0
C      1  0.4571360000000  0.4310360000000  0.4886900000000 1.0
C      1  0.4938160000000  0.5592090000000  0.4691290000000 1.0
C      1  0.5327430000000  0.5696390000000  0.4857100000000 1.0
C      1  0.5191080000000  0.5689820000000  0.5317750000000 1.0
C      1  0.4633970000000  0.5623050000000  0.5134750000000 1.0
C      1  0.4153700000000  0.4631770000000  0.4540290000000 1.0
C      1  0.4498320000000  0.4618040000000  0.5854130000000 1.0
C      1  0.5824920000000  0.4642400000000  0.5481310000000 1.0
C      1  0.5462810000000  0.4669440000000  0.4199970000000 1.0
C      1  0.4252970000000  0.5289420000000  0.5454290000000 1.0
C      1  0.4567560000000  0.5389700000000  0.4183960000000 1.0
C      1  0.5808500000000  0.5418880000000  0.4454760000000 1.0
C      1  0.5482660000000  0.5270430000000  0.5759470000000 1.0
C      1  0.4817450000000  0.4501150000000  0.5868680000000 1.0
C      1  0.5768870000000  0.4498220000000  0.5206770000000 1.0
C      1  0.5239420000000  0.4503320000000  0.4251700000000 1.0
C      1  0.4100500000000  0.4401350000000  0.4712390000000 1.0
C      1  0.4826690000000  0.5576090000000  0.4179700000000 1.0
C      1  0.5861680000000  0.5538380000000  0.4760220000000 1.0
C      1  0.5211490000000  0.5450150000000  0.5797050000000 1.0
C      1  0.4136610000000  0.5486610000000  0.5206790000000 1.0
C      1  0.4054390000000  0.4153420000000  0.4879770000000 1.0
C      1  0.5081340000000  0.4412580000000  0.5892610000000 1.0
C      1  0.5800540000000  0.4434480000000  0.4939090000000 1.0
C      1  0.5149570000000  0.4254510000000  0.4160680000000 1.0
C      1  0.4048580000000  0.5699290000000  0.5066020000000 1.0
C      1  0.4965070000000  0.5779020000000  0.4084050000000 1.0
C      1  0.5940660000000  0.5579530000000  0.5033420000000 1.0
C      1  0.4950860000000  0.5529150000000  0.5871600000000 1.0
C      1  0.4936430000000  0.4998470000000  0.5024080000000 1.0
END
