TITL C-2782233-7966-1102 -0.0111468521480717 125000 -687.853008631738 0 0 119 (C1) n - 1
REM
REM in /home/nfs/bkarasulu/CARBON/AIRSS/Generating-Clusters/REBO/Higher-Symm/SD-CG/HFTN-CG
REM
REM
REM
REM
REM
REM ./C.cell (12c818d87b63d06a65506943cc24bca4)
REM
REM compiler GCC version 9.2.1 20190827 (Red Hat 9.2.1-1)
REM options -cpp -mtune=generic -march=x86-64 -g -O0 -fpre-include=/usr/include/finclude/math-vector-fortran.h
REM seed 93910187 1630585987 1235413434 428250770 -121624614 2125851624 -1031342220 -111391477 1547421115 1106394929 1097873374 -832065922 -1654153299 1574227628 1614222847 1433393343 -1564748472 441706831 1457851452 -1235220744 735830948 1768519451 1076222584 224403857 1972925880 516776592 -628194984 1446960640 650811011 730499361 925641873 1377978362 297969550
REM
CELL 1.54180   50.00000   50.00000   50.00000   90.00000   90.00000   90.00000
LATT -1
SFAC C  
C      1  0.4187880000000  0.4665760000000  0.5308690000000 1.0
C      1  0.5370360000000  0.4109960000000  0.4728780000000 1.0
C      1  0.5473320000000  0.4245710000000  0.5495640000000 1.0
C      1  0.4196940000000  0.5433120000000  0.5017070000000 1.0
C      1  0.4457360000000  0.5213520000000  0.4999480000000 1.0
C      1  0.4368130000000  0.4541080000000  0.4900680000000 1.0
C      1  0.5602040000000  0.5134490000000  0.5185460000000 1.0
C      1  0.5363890000000  0.4909750000000  0.4959900000000 1.0
C      1  0.4969800000000  0.5335750000000  0.4472600000000 1.0
C      1  0.5683890000000  0.5404940000000  0.4905410000000 1.0
C      1  0.4854320000000  0.4531850000000  0.4291860000000 1.0
C      1  0.4688460000000  0.5450450000000  0.5422410000000 1.0
C      1  0.4800940000000  0.5312290000000  0.4196780000000 1.0
C      1  0.5709610000000  0.4824870000000  0.4445970000000 1.0
C      1  0.4477420000000  0.5048270000000  0.4720180000000 1.0
C      1  0.4553200000000  0.4979350000000  0.5704920000000 1.0
C      1  0.4302020000000  0.5304350000000  0.5703160000000 1.0
C      1  0.5052870000000  0.5851610000000  0.5292630000000 1.0
C      1  0.4252770000000  0.4969770000000  0.5239530000000 1.0
C      1  0.4414970000000  0.5009160000000  0.4299330000000 1.0
C      1  0.4521670000000  0.4551650000000  0.4265890000000 1.0
C      1  0.5583200000000  0.4518460000000  0.4461530000000 1.0
C      1  0.5204030000000  0.5014940000000  0.4432840000000 1.0
C      1  0.5639730000000  0.4953490000000  0.4213330000000 1.0
C      1  0.5382180000000  0.5090760000000  0.4080590000000 1.0
C      1  0.5399910000000  0.4508550000000  0.5641480000000 1.0
C      1  0.4918410000000  0.4795780000000  0.4136990000000 1.0
C      1  0.4904480000000  0.5567080000000  0.5185830000000 1.0
C      1  0.5491310000000  0.5067400000000  0.5825490000000 1.0
C      1  0.4608290000000  0.5914730000000  0.4606740000000 1.0
C      1  0.5444590000000  0.5605410000000  0.4859010000000 1.0
C      1  0.4898360000000  0.4326930000000  0.4867370000000 1.0
C      1  0.4915950000000  0.5239930000000  0.5562960000000 1.0
C      1  0.5187640000000  0.5559080000000  0.4445810000000 1.0
C      1  0.4910850000000  0.5396900000000  0.4788320000000 1.0
C      1  0.4735110000000  0.4156400000000  0.5106400000000 1.0
C      1  0.4945810000000  0.5097640000000  0.5978490000000 1.0
C      1  0.4685790000000  0.4544150000000  0.5028130000000 1.0
C      1  0.5461790000000  0.5731360000000  0.4553390000000 1.0
C      1  0.5007890000000  0.4943780000000  0.5614880000000 1.0
C      1  0.4675580000000  0.5843480000000  0.4922700000000 1.0
C      1  0.5791040000000  0.4993650000000  0.4670850000000 1.0
C      1  0.5296880000000  0.5235980000000  0.5172930000000 1.0
C      1  0.4840450000000  0.4812510000000  0.5276410000000 1.0
C      1  0.4316210000000  0.5187760000000  0.5460310000000 1.0
C      1  0.4484800000000  0.4218210000000  0.4925250000000 1.0
C      1  0.5403500000000  0.4531120000000  0.5076320000000 1.0
C      1  0.5785550000000  0.5284830000000  0.4622460000000 1.0
C      1  0.5551190000000  0.5338820000000  0.5639470000000 1.0
C      1  0.5338990000000  0.4282490000000  0.4510910000000 1.0
C      1  0.4749070000000  0.5635250000000  0.5690200000000 1.0
C      1  0.5051910000000  0.5111790000000  0.4152940000000 1.0
C      1  0.4971910000000  0.5183630000000  0.5258300000000 1.0
C      1  0.5580610000000  0.4277280000000  0.5191830000000 1.0
C      1  0.4666330000000  0.5023710000000  0.4157380000000 1.0
C      1  0.5094080000000  0.4451730000000  0.5059990000000 1.0
C      1  0.4652420000000  0.4572990000000  0.5428770000000 1.0
C      1  0.4720080000000  0.4861830000000  0.4652270000000 1.0
C      1  0.5168440000000  0.5754750000000  0.4729430000000 1.0
C      1  0.5365420000000  0.4103320000000  0.4997290000000 1.0
C      1  0.4372620000000  0.4745990000000  0.4398450000000 1.0
C      1  0.4993650000000  0.5870380000000  0.4956280000000 1.0
C      1  0.5437310000000  0.4779820000000  0.5263700000000 1.0
C      1  0.5699490000000  0.4824950000000  0.5417670000000 1.0
C      1  0.4122160000000  0.5112070000000  0.4999920000000 1.0
C      1  0.4573890000000  0.5788310000000  0.5226040000000 1.0
C      1  0.4776100000000  0.5385420000000  0.5907660000000 1.0
C      1  0.4407520000000  0.5532610000000  0.5249280000000 1.0
C      1  0.5320590000000  0.4596020000000  0.4751820000000 1.0
C      1  0.5079740000000  0.4772910000000  0.5086970000000 1.0
C      1  0.5167190000000  0.4474050000000  0.5392660000000 1.0
C      1  0.5062560000000  0.4476590000000  0.4557650000000 1.0
C      1  0.5721740000000  0.5515680000000  0.5193910000000 1.0
C      1  0.5511620000000  0.5703940000000  0.5237960000000 1.0
C      1  0.5572060000000  0.5453840000000  0.4424790000000 1.0
C      1  0.4579760000000  0.5772890000000  0.4403090000000 1.0
C      1  0.4969420000000  0.5032910000000  0.4641370000000 1.0
C      1  0.5343620000000  0.5380440000000  0.4200580000000 1.0
C      1  0.5252380000000  0.4778340000000  0.4116670000000 1.0
C      1  0.4227090000000  0.5409580000000  0.4675610000000 1.0
C      1  0.4545900000000  0.4843450000000  0.5121490000000 1.0
C      1  0.4054770000000  0.4939100000000  0.4788410000000 1.0
C      1  0.5331730000000  0.5532980000000  0.5641110000000 1.0
C      1  0.4413360000000  0.4486540000000  0.5236050000000 1.0
C      1  0.4572010000000  0.4317770000000  0.4641450000000 1.0
C      1  0.4766020000000  0.5839950000000  0.5441680000000 1.0
C      1  0.4799620000000  0.4521910000000  0.5795440000000 1.0
C      1  0.4547530000000  0.4700260000000  0.5716150000000 1.0
C      1  0.5459780000000  0.5161530000000  0.4816310000000 1.0
C      1  0.5231020000000  0.5548950000000  0.5104780000000 1.0
C      1  0.5323970000000  0.4721950000000  0.4429080000000 1.0
C      1  0.4519290000000  0.5216010000000  0.5880860000000 1.0
C      1  0.4826960000000  0.4155280000000  0.4579320000000 1.0
C      1  0.5735830000000  0.4965380000000  0.5622030000000 1.0
C      1  0.4472190000000  0.5601840000000  0.4812910000000 1.0
C      1  0.4319120000000  0.5269450000000  0.4420270000000 1.0
C      1  0.5859540000000  0.4700410000000  0.5072210000000 1.0
C      1  0.5305500000000  0.5739260000000  0.5447060000000 1.0
C      1  0.4660850000000  0.4600240000000  0.4634970000000 1.0
C      1  0.5760250000000  0.4953820000000  0.4979200000000 1.0
C      1  0.4620370000000  0.5352890000000  0.4664600000000 1.0
C      1  0.5447640000000  0.4735160000000  0.5773890000000 1.0
C      1  0.4901030000000  0.4811880000000  0.5863700000000 1.0
C      1  0.5401840000000  0.5201700000000  0.4552270000000 1.0
C      1  0.5190930000000  0.4799440000000  0.5466950000000 1.0
C      1  0.4901660000000  0.4155190000000  0.5340690000000 1.0
C      1  0.4725390000000  0.5308710000000  0.5056010000000 1.0
C      1  0.4827070000000  0.4329370000000  0.5544930000000 1.0
C      1  0.4584870000000  0.5465850000000  0.4361660000000 1.0
C      1  0.4298240000000  0.4753700000000  0.4703430000000 1.0
C      1  0.5782870000000  0.4436950000000  0.5002270000000 1.0
C      1  0.5622290000000  0.4421840000000  0.4762000000000 1.0
C      1  0.5242130000000  0.5179160000000  0.5962950000000 1.0
C      1  0.4912730000000  0.4205510000000  0.4316690000000 1.0
C      1  0.5722400000000  0.5303980000000  0.5409630000000 1.0
C      1  0.4614250000000  0.5040870000000  0.5391760000000 1.0
C      1  0.5091160000000  0.5408420000000  0.5777120000000 1.0
C      1  0.5068780000000  0.5151520000000  0.4933930000000 1.0
C      1  0.5216970000000  0.4149370000000  0.5290690000000 1.0
END
