TITL C-2782235-7892-1227 0.000442567677172651 125000 -308.745331023622 0 0 53 (C1) n - 1
REM
REM in /home/nfs/bkarasulu/CARBON/AIRSS/Generating-Clusters/REBO/Higher-Symm/SD-CG/HFTN-CG
REM
REM
REM
REM
REM
REM ./C.cell (12c818d87b63d06a65506943cc24bca4)
REM
REM compiler GCC version 9.2.1 20190827 (Red Hat 9.2.1-1)
REM options -cpp -mtune=generic -march=x86-64 -g -O0 -fpre-include=/usr/include/finclude/math-vector-fortran.h
REM seed -742641680 -1925815519 1052308329 182216786 -1464813229 -104416417 233063430 -16759862 261448957 503219071 -15241809 -33270170 -1552791462 -423951614 -710015969 1799208550 421104801 1569123604 -1641884644 -1863326879 -1973784755 -167290799 971838902 1524394942 -1937705793 536882278 -300288062 -1567795706 -814142249 392872700 -1511623473 -459721946 1391841787
REM
CELL 1.54180   50.00000   50.00000   50.00000   90.00000   90.00000   90.00000
LATT -1
SFAC C  
C      1  0.5556070000000  0.4590870000000  0.5162660000000 1.0
C      1  0.5601190000000  0.5433180000000  0.5281100000000 1.0
C      1  0.5573980000000  0.5023130000000  0.4532480000000 1.0
C      1  0.5326940000000  0.5148820000000  0.4462760000000 1.0
C      1  0.5294630000000  0.4474060000000  0.5069610000000 1.0
C      1  0.5357280000000  0.5442970000000  0.5432440000000 1.0
C      1  0.4908330000000  0.4828740000000  0.5647270000000 1.0
C      1  0.4939010000000  0.5686290000000  0.4869420000000 1.0
C      1  0.4951090000000  0.4413430000000  0.4522130000000 1.0
C      1  0.4354890000000  0.5176480000000  0.4916690000000 1.0
C      1  0.4299320000000  0.4837380000000  0.4922620000000 1.0
C      1  0.4310710000000  0.5014970000000  0.5217480000000 1.0
C      1  0.5564030000000  0.5331110000000  0.5017980000000 1.0
C      1  0.5560620000000  0.4865900000000  0.4760620000000 1.0
C      1  0.5537130000000  0.4856560000000  0.5245990000000 1.0
C      1  0.4739920000000  0.5874020000000  0.4893030000000 1.0
C      1  0.4778140000000  0.4249860000000  0.4352470000000 1.0
C      1  0.4710260000000  0.4765370000000  0.5821200000000 1.0
C      1  0.4627150000000  0.4107070000000  0.4204360000000 1.0
C      1  0.4518790000000  0.4704120000000  0.5989330000000 1.0
C      1  0.4549950000000  0.6053150000000  0.4915570000000 1.0
C      1  0.5376340000000  0.5484270000000  0.4863130000000 1.0
C      1  0.5397470000000  0.4624550000000  0.4745460000000 1.0
C      1  0.5360550000000  0.4903940000000  0.5464280000000 1.0
C      1  0.4925460000000  0.5426380000000  0.4690160000000 1.0
C      1  0.4936880000000  0.4649710000000  0.4767720000000 1.0
C      1  0.4986260000000  0.5065390000000  0.5446050000000 1.0
C      1  0.5124880000000  0.4921180000000  0.4355050000000 1.0
C      1  0.5092730000000  0.4506260000000  0.5298090000000 1.0
C      1  0.5154100000000  0.5615730000000  0.5307180000000 1.0
C      1  0.5206510000000  0.4624050000000  0.4474370000000 1.0
C      1  0.5149870000000  0.4705700000000  0.5503220000000 1.0
C      1  0.5186300000000  0.5652400000000  0.5017840000000 1.0
C      1  0.4872540000000  0.5150360000000  0.4556020000000 1.0
C      1  0.4853350000000  0.4708450000000  0.5050760000000 1.0
C      1  0.4903270000000  0.5308890000000  0.5255930000000 1.0
C      1  0.5156580000000  0.4393160000000  0.4791730000000 1.0
C      1  0.5274400000000  0.5188070000000  0.5526350000000 1.0
C      1  0.5244780000000  0.5361390000000  0.4628910000000 1.0
C      1  0.4988190000000  0.4931750000000  0.5157320000000 1.0
C      1  0.4997420000000  0.5296780000000  0.4991390000000 1.0
C      1  0.5058980000000  0.4922450000000  0.4691470000000 1.0
C      1  0.4806030000000  0.5013600000000  0.4279800000000 1.0
C      1  0.4788700000000  0.4483960000000  0.5237550000000 1.0
C      1  0.4854660000000  0.5583720000000  0.5389070000000 1.0
C      1  0.4569740000000  0.5518430000000  0.5325220000000 1.0
C      1  0.4541410000000  0.4976630000000  0.4414370000000 1.0
C      1  0.4513470000000  0.4486680000000  0.5300900000000 1.0
C      1  0.4348020000000  0.4680090000000  0.5215920000000 1.0
C      1  0.4423180000000  0.5332720000000  0.5207410000000 1.0
C      1  0.4409160000000  0.4987570000000  0.4642070000000 1.0
C      1  0.5185930000000  0.5049110000000  0.4941880000000 1.0
C      1  0.5491550000000  0.5034990000000  0.5007180000000 1.0
END
