TITL C-2782232-2968-595 -0.000889638374954533 125000 -556.472260821288 0 0 94 (C1) n - 1
REM
REM in /home/nfs/bkarasulu/CARBON/AIRSS/Generating-Clusters/REBO/Higher-Symm/SD-CG/HFTN-CG
REM
REM
REM
REM
REM
REM ./C.cell (12c818d87b63d06a65506943cc24bca4)
REM
REM compiler GCC version 9.2.1 20190827 (Red Hat 9.2.1-1)
REM options -cpp -mtune=generic -march=x86-64 -g -O0 -fpre-include=/usr/include/finclude/math-vector-fortran.h
REM seed 807311831 2106865664 1593150997 -1338622768 -2039856962 32781555 663716238 1607874621 1650254853 101622518 295560409 -1494091057 -645777897 1370272339 -1653017140 -515362152 1895452708 -145639921 -1497464118 963061978 -1447048630 874402106 -1604069687 -1407956707 128229444 900961890 -1194198081 -499650351 -1645321289 1088949186 444572601 366101238 -724462367
REM
CELL 1.54180   50.00000   50.00000   50.00000   90.00000   90.00000   90.00000
LATT -1
SFAC C  
C      1  0.4881780000000  0.5035390000000  0.5958750000000 1.0
C      1  0.4872820000000  0.4238730000000  0.5370660000000 1.0
C      1  0.4847450000000  0.4390900000000  0.4274200000000 1.0
C      1  0.4876850000000  0.5525340000000  0.4236990000000 1.0
C      1  0.4866940000000  0.5842400000000  0.5138930000000 1.0
C      1  0.5143950000000  0.5024500000000  0.5975390000000 1.0
C      1  0.5138410000000  0.4239450000000  0.5369290000000 1.0
C      1  0.5111560000000  0.4389580000000  0.4266510000000 1.0
C      1  0.5140860000000  0.5525650000000  0.4243530000000 1.0
C      1  0.5134110000000  0.5843060000000  0.5148730000000 1.0
C      1  0.4401160000000  0.5225160000000  0.4404530000000 1.0
C      1  0.4369550000000  0.5512450000000  0.5058330000000 1.0
C      1  0.4365440000000  0.5196130000000  0.5686530000000 1.0
C      1  0.4385570000000  0.4570610000000  0.5305690000000 1.0
C      1  0.4376100000000  0.4545420000000  0.4594960000000 1.0
C      1  0.5599360000000  0.5213350000000  0.4415070000000 1.0
C      1  0.5623190000000  0.5502670000000  0.5097880000000 1.0
C      1  0.5625630000000  0.5198110000000  0.5704270000000 1.0
C      1  0.5624000000000  0.4577130000000  0.5281200000000 1.0
C      1  0.5599310000000  0.4513210000000  0.4563520000000 1.0
C      1  0.4308120000000  0.5004640000000  0.5454870000000 1.0
C      1  0.4351780000000  0.4672250000000  0.5042840000000 1.0
C      1  0.4334650000000  0.4823100000000  0.4599630000000 1.0
C      1  0.4345660000000  0.5250190000000  0.4681900000000 1.0
C      1  0.4324420000000  0.5194580000000  0.5172410000000 1.0
C      1  0.5704000000000  0.5026340000000  0.5463160000000 1.0
C      1  0.5650580000000  0.4648410000000  0.5009270000000 1.0
C      1  0.5653540000000  0.4790300000000  0.4567420000000 1.0
C      1  0.5650820000000  0.5221150000000  0.4699700000000 1.0
C      1  0.5670510000000  0.5323580000000  0.5327170000000 1.0
C      1  0.4398120000000  0.4453770000000  0.4854270000000 1.0
C      1  0.4395830000000  0.4952500000000  0.4348970000000 1.0
C      1  0.4381150000000  0.5510530000000  0.4777990000000 1.0
C      1  0.4370110000000  0.5392760000000  0.5451840000000 1.0
C      1  0.4391930000000  0.4743030000000  0.5518730000000 1.0
C      1  0.5592340000000  0.4423320000000  0.4829980000000 1.0
C      1  0.5585800000000  0.4942240000000  0.4332940000000 1.0
C      1  0.5612480000000  0.5476500000000  0.4816970000000 1.0
C      1  0.5568810000000  0.5468870000000  0.5591440000000 1.0
C      1  0.5638840000000  0.4746860000000  0.5502000000000 1.0
C      1  0.4552050000000  0.4731430000000  0.5764240000000 1.0
C      1  0.4537550000000  0.4235210000000  0.4979790000000 1.0
C      1  0.4523540000000  0.4766300000000  0.4167250000000 1.0
C      1  0.4522590000000  0.5683690000000  0.4583290000000 1.0
C      1  0.4513920000000  0.5627820000000  0.5456360000000 1.0
C      1  0.5498640000000  0.4699490000000  0.5760110000000 1.0
C      1  0.5451760000000  0.4218360000000  0.4976170000000 1.0
C      1  0.5443090000000  0.4764840000000  0.4150260000000 1.0
C      1  0.5486330000000  0.5665180000000  0.4621030000000 1.0
C      1  0.5407560000000  0.5688930000000  0.5520620000000 1.0
C      1  0.5238230000000  0.5521580000000  0.5202640000000 1.0
C      1  0.5276410000000  0.5009620000000  0.5663010000000 1.0
C      1  0.5248270000000  0.4496660000000  0.5171830000000 1.0
C      1  0.5234640000000  0.4642430000000  0.4463820000000 1.0
C      1  0.5247410000000  0.5366760000000  0.4525200000000 1.0
C      1  0.4754470000000  0.5517130000000  0.5159960000000 1.0
C      1  0.4780230000000  0.5026830000000  0.5632960000000 1.0
C      1  0.4757040000000  0.4498440000000  0.5179190000000 1.0
C      1  0.4742690000000  0.4647740000000  0.4474400000000 1.0
C      1  0.4755160000000  0.5372300000000  0.4517310000000 1.0
C      1  0.5189630000000  0.5108110000000  0.5418800000000 1.0
C      1  0.5137490000000  0.4754380000000  0.5107060000000 1.0
C      1  0.5128620000000  0.4774660000000  0.4696990000000 1.0
C      1  0.5129630000000  0.5174240000000  0.4693750000000 1.0
C      1  0.5180340000000  0.5233640000000  0.5128520000000 1.0
C      1  0.4909860000000  0.5118860000000  0.5398260000000 1.0
C      1  0.4864710000000  0.4756270000000  0.5110750000000 1.0
C      1  0.4858670000000  0.4777850000000  0.4701090000000 1.0
C      1  0.4864360000000  0.5177400000000  0.4691970000000 1.0
C      1  0.4836340000000  0.5239620000000  0.5123460000000 1.0
C      1  0.5135200000000  0.4235360000000  0.4970270000000 1.0
C      1  0.5122560000000  0.4775210000000  0.4163690000000 1.0
C      1  0.5146580000000  0.5681830000000  0.4611500000000 1.0
C      1  0.5101670000000  0.5652400000000  0.5497280000000 1.0
C      1  0.5158900000000  0.4699250000000  0.5743790000000 1.0
C      1  0.4857860000000  0.4240510000000  0.4971610000000 1.0
C      1  0.4844410000000  0.4775830000000  0.4168580000000 1.0
C      1  0.4862170000000  0.5686900000000  0.4602000000000 1.0
C      1  0.4828030000000  0.5634240000000  0.5477420000000 1.0
C      1  0.4874630000000  0.4703310000000  0.5736440000000 1.0
C      1  0.4545830000000  0.5044890000000  0.5900010000000 1.0
C      1  0.4537740000000  0.4282780000000  0.5319320000000 1.0
C      1  0.4514130000000  0.4454690000000  0.4314850000000 1.0
C      1  0.4540400000000  0.5500400000000  0.4291830000000 1.0
C      1  0.4533370000000  0.5775510000000  0.5159370000000 1.0
C      1  0.5481710000000  0.5000390000000  0.5926940000000 1.0
C      1  0.5472420000000  0.4287330000000  0.5312400000000 1.0
C      1  0.5447450000000  0.4446940000000  0.4285980000000 1.0
C      1  0.5473650000000  0.5500950000000  0.4318150000000 1.0
C      1  0.5465660000000  0.5771790000000  0.5194540000000 1.0
C      1  0.5283490000000  0.4985800000000  0.4918260000000 1.0
C      1  0.4715950000000  0.4993180000000  0.4924320000000 1.0
C      1  0.4376440000000  0.4986480000000  0.4903270000000 1.0
C      1  0.5601000000000  0.4936330000000  0.4856520000000 1.0
END
