TITL C-2782240-8521-111 -0.00369182747269847 125000 -793.928989266374 0 0 139 (C1) n - 1
REM
REM in /home/nfs/bkarasulu/CARBON/AIRSS/Generating-Clusters/REBO/Higher-Symm/SD-CG/HFTN-CG
REM
REM
REM
REM
REM
REM ./C.cell (12c818d87b63d06a65506943cc24bca4)
REM
REM compiler GCC version 9.2.1 20190827 (Red Hat 9.2.1-1)
REM options -cpp -mtune=generic -march=x86-64 -g -O0 -fpre-include=/usr/include/finclude/math-vector-fortran.h
REM seed -1709527750 1184593365 696331176 -439629645 1298300438 -1267258461 -1601366638 -1824898870 203916876 -1902015234 1487344233 -1006346353 384492566 -1564751119 1509566251 1857923179 1876675008 -1432578398 -1415200048 -27021570 -321663829 -419404962 246001850 -1008745979 -1061399454 1574213123 -938462039 311008138 -235295626 -1343930143 1948818362 810340946 -918140630
REM
CELL 1.54180   50.00000   50.00000   50.00000   90.00000   90.00000   90.00000
LATT -1
SFAC C  
C      1  0.4760280000000  0.5741110000000  0.4405790000000 1.0
C      1  0.5561060000000  0.5451890000000  0.4371440000000 1.0
C      1  0.5554580000000  0.4568330000000  0.4352190000000 1.0
C      1  0.4787760000000  0.4301440000000  0.4420500000000 1.0
C      1  0.4336380000000  0.4981010000000  0.4294610000000 1.0
C      1  0.4956740000000  0.4351750000000  0.5709810000000 1.0
C      1  0.4350000000000  0.4812110000000  0.5689050000000 1.0
C      1  0.4628580000000  0.5547900000000  0.5715500000000 1.0
C      1  0.5401400000000  0.5519030000000  0.5694230000000 1.0
C      1  0.5606740000000  0.4764190000000  0.5681780000000 1.0
C      1  0.5582870000000  0.4748590000000  0.4823700000000 1.0
C      1  0.4928850000000  0.4393780000000  0.4906090000000 1.0
C      1  0.4393160000000  0.4883820000000  0.4863990000000 1.0
C      1  0.4690890000000  0.5564200000000  0.4897120000000 1.0
C      1  0.5402710000000  0.5460160000000  0.4875530000000 1.0
C      1  0.4314780000000  0.5143840000000  0.5704380000000 1.0
C      1  0.4929420000000  0.5688090000000  0.5729280000000 1.0
C      1  0.5628010000000  0.5272450000000  0.5696850000000 1.0
C      1  0.5443720000000  0.4478560000000  0.5721290000000 1.0
C      1  0.4629590000000  0.4397880000000  0.5717090000000 1.0
C      1  0.4468440000000  0.4834840000000  0.4547040000000 1.0
C      1  0.4704560000000  0.5493230000000  0.4584330000000 1.0
C      1  0.5310660000000  0.5459850000000  0.4560670000000 1.0
C      1  0.5509760000000  0.4826580000000  0.4529500000000 1.0
C      1  0.4980160000000  0.4471440000000  0.4596330000000 1.0
C      1  0.4539720000000  0.5293300000000  0.5874210000000 1.0
C      1  0.5139400000000  0.5516710000000  0.5871890000000 1.0
C      1  0.5539810000000  0.5018910000000  0.5858070000000 1.0
C      1  0.5172300000000  0.4498210000000  0.5880110000000 1.0
C      1  0.4560630000000  0.4656440000000  0.5867190000000 1.0
C      1  0.4636020000000  0.4123020000000  0.4911700000000 1.0
C      1  0.4050660000000  0.5084100000000  0.4880650000000 1.0
C      1  0.4762600000000  0.5953350000000  0.4940530000000 1.0
C      1  0.5797470000000  0.5505410000000  0.4884570000000 1.0
C      1  0.5745950000000  0.4394160000000  0.4901660000000 1.0
C      1  0.4755000000000  0.4946960000000  0.4507950000000 1.0
C      1  0.4849830000000  0.5217030000000  0.4505440000000 1.0
C      1  0.5136810000000  0.5208000000000  0.4504500000000 1.0
C      1  0.5216750000000  0.4929760000000  0.4509060000000 1.0
C      1  0.4979010000000  0.4768800000000  0.4514700000000 1.0
C      1  0.4972390000000  0.4063650000000  0.4876800000000 1.0
C      1  0.4089080000000  0.4742190000000  0.4872850000000 1.0
C      1  0.4457020000000  0.5799640000000  0.4907060000000 1.0
C      1  0.5563890000000  0.5758320000000  0.4875660000000 1.0
C      1  0.5913610000000  0.4688920000000  0.4846410000000 1.0
C      1  0.5653300000000  0.5531050000000  0.5468810000000 1.0
C      1  0.5650480000000  0.4528360000000  0.5444330000000 1.0
C      1  0.4767930000000  0.4180820000000  0.5487830000000 1.0
C      1  0.4146110000000  0.4956900000000  0.5464660000000 1.0
C      1  0.4696910000000  0.5796030000000  0.5499420000000 1.0
C      1  0.5368870000000  0.4478610000000  0.5165790000000 1.0
C      1  0.4604800000000  0.4501520000000  0.5114000000000 1.0
C      1  0.4385800000000  0.5240680000000  0.5108920000000 1.0
C      1  0.5016910000000  0.5638700000000  0.5128190000000 1.0
C      1  0.5627710000000  0.5195840000000  0.5072160000000 1.0
C      1  0.4735820000000  0.4889950000000  0.5578490000000 1.0
C      1  0.4802210000000  0.5212800000000  0.5583950000000 1.0
C      1  0.5130070000000  0.5242410000000  0.5580930000000 1.0
C      1  0.5263010000000  0.4942000000000  0.5581030000000 1.0
C      1  0.5017090000000  0.4728840000000  0.5592860000000 1.0
C      1  0.5054640000000  0.4447020000000  0.5407910000000 1.0
C      1  0.4486970000000  0.4762950000000  0.5392470000000 1.0
C      1  0.4592630000000  0.5420220000000  0.5412950000000 1.0
C      1  0.5265230000000  0.5479710000000  0.5394200000000 1.0
C      1  0.5521720000000  0.4901100000000  0.5392250000000 1.0
C      1  0.4855780000000  0.4712640000000  0.4889850000000 1.0
C      1  0.4671320000000  0.5062910000000  0.4899210000000 1.0
C      1  0.4945120000000  0.5349850000000  0.4869600000000 1.0
C      1  0.5287660000000  0.5149440000000  0.4869190000000 1.0
C      1  0.5252820000000  0.4756260000000  0.4908340000000 1.0
C      1  0.4466860000000  0.4525580000000  0.4467310000000 1.0
C      1  0.4464970000000  0.5315830000000  0.4460100000000 1.0
C      1  0.5148260000000  0.5729030000000  0.4486350000000 1.0
C      1  0.5675640000000  0.5078730000000  0.4427720000000 1.0
C      1  0.5257460000000  0.4365540000000  0.4504250000000 1.0
C      1  0.4174500000000  0.4490150000000  0.5027190000000 1.0
C      1  0.4241690000000  0.5635950000000  0.5035920000000 1.0
C      1  0.5352910000000  0.5910180000000  0.5044000000000 1.0
C      1  0.5964460000000  0.4945030000000  0.5003730000000 1.0
C      1  0.5240320000000  0.4068250000000  0.5022510000000 1.0
C      1  0.5078480000000  0.5306530000000  0.5180320000000 1.0
C      1  0.5417540000000  0.4966630000000  0.5113190000000 1.0
C      1  0.5125110000000  0.4715000000000  0.5210910000000 1.0
C      1  0.4736470000000  0.4795920000000  0.5189840000000 1.0
C      1  0.4698140000000  0.5192160000000  0.5200550000000 1.0
C      1  0.4479280000000  0.4245390000000  0.4637290000000 1.0
C      1  0.4164850000000  0.5259480000000  0.4610530000000 1.0
C      1  0.4958980000000  0.5942750000000  0.4662310000000 1.0
C      1  0.5841960000000  0.5324100000000  0.4595640000000 1.0
C      1  0.5554890000000  0.4311290000000  0.4634350000000 1.0
C      1  0.5312510000000  0.4454940000000  0.4828950000000 1.0
C      1  0.4578140000000  0.4538820000000  0.4790540000000 1.0
C      1  0.4445270000000  0.5271300000000  0.4791360000000 1.0
C      1  0.5066440000000  0.5656090000000  0.4807480000000 1.0
C      1  0.5608030000000  0.5141050000000  0.4755550000000 1.0
C      1  0.4665760000000  0.4739800000000  0.4055430000000 1.0
C      1  0.4610000000000  0.5451970000000  0.4000490000000 1.0
C      1  0.5125470000000  0.5475900000000  0.4030930000000 1.0
C      1  0.5522640000000  0.4882930000000  0.4110440000000 1.0
C      1  0.5072380000000  0.4294930000000  0.4031640000000 1.0
C      1  0.5025230000000  0.5726330000000  0.4196410000000 1.0
C      1  0.5529350000000  0.5205230000000  0.4158140000000 1.0
C      1  0.5273560000000  0.4454130000000  0.4195960000000 1.0
C      1  0.4610330000000  0.4467890000000  0.4183170000000 1.0
C      1  0.4559900000000  0.5202910000000  0.4171240000000 1.0
C      1  0.4782990000000  0.4979980000000  0.4103470000000 1.0
C      1  0.4763770000000  0.5645080000000  0.4014060000000 1.0
C      1  0.5220200000000  0.5228260000000  0.4071060000000 1.0
C      1  0.5268340000000  0.4767970000000  0.4126020000000 1.0
C      1  0.4823480000000  0.4276880000000  0.4024900000000 1.0
C      1  0.5521240000000  0.4133460000000  0.4925430000000 1.0
C      1  0.4322290000000  0.4264570000000  0.4926910000000 1.0
C      1  0.4094400000000  0.5424630000000  0.4900180000000 1.0
C      1  0.5099450000000  0.6024370000000  0.4955230000000 1.0
C      1  0.5978390000000  0.5212610000000  0.4886500000000 1.0
C      1  0.4217410000000  0.4966110000000  0.5154710000000 1.0
C      1  0.4712570000000  0.5734090000000  0.5196210000000 1.0
C      1  0.5593920000000  0.5505860000000  0.5160760000000 1.0
C      1  0.5657840000000  0.4623680000000  0.5137920000000 1.0
C      1  0.4798270000000  0.4240230000000  0.5183610000000 1.0
C      1  0.5759210000000  0.5222200000000  0.5387090000000 1.0
C      1  0.5420160000000  0.4293180000000  0.5448080000000 1.0
C      1  0.4493310000000  0.4364580000000  0.5407710000000 1.0
C      1  0.4220820000000  0.5276910000000  0.5405710000000 1.0
C      1  0.5029780000000  0.5800250000000  0.5428700000000 1.0
C      1  0.4311010000000  0.5573930000000  0.5308870000000 1.0
C      1  0.5332650000000  0.5798060000000  0.5307200000000 1.0
C      1  0.5841820000000  0.4930110000000  0.5273880000000 1.0
C      1  0.5180930000000  0.4153230000000  0.5291860000000 1.0
C      1  0.4253730000000  0.4552300000000  0.5293260000000 1.0
C      1  0.5265980000000  0.5200640000000  0.5890350000000 1.0
C      1  0.5271820000000  0.4805730000000  0.5892940000000 1.0
C      1  0.4890610000000  0.4695580000000  0.5902620000000 1.0
C      1  0.4643190000000  0.4987010000000  0.5889570000000 1.0
C      1  0.4882470000000  0.5300540000000  0.5898450000000 1.0
C      1  0.4974950000000  0.5009650000000  0.5275510000000 1.0
C      1  0.4987640000000  0.5019740000000  0.4824350000000 1.0
C      1  0.5071570000000  0.4982080000000  0.4100050000000 1.0
C      1  0.5009510000000  0.5000720000000  0.5996270000000 1.0
END
