TITL C-2782230-7391-1246 0.00186749543634401 125000 -1058.4641570727 0 0 182 (C1) n - 1
REM
REM in /home/nfs/bkarasulu/CARBON/AIRSS/Generating-Clusters/REBO/Higher-Symm/SD-CG/HFTN-CG
REM
REM
REM
REM
REM
REM ./C.cell (12c818d87b63d06a65506943cc24bca4)
REM
REM compiler GCC version 9.2.1 20190827 (Red Hat 9.2.1-1)
REM options -cpp -mtune=generic -march=x86-64 -g -O0 -fpre-include=/usr/include/finclude/math-vector-fortran.h
REM seed -397307699 -1305571581 1160641637 -140975193 -1612580748 -2120426088 -267422043 773570478 -1806315733 -965585903 -541931180 -285978729 -1394900941 1110357118 -1117338367 31638781 121879902 -1511677988 893000313 1682028160 302161834 547238290 -197580832 -1659130082 -777788063 -1917374594 1283910765 1878968507 506836149 -462040241 1107947773 -2142814302 -103263541
REM
CELL 1.54180   50.00000   50.00000   50.00000   90.00000   90.00000   90.00000
LATT -1
SFAC C  
C      1  0.4132450000000  0.5690150000000  0.5344820000000 1.0
C      1  0.5854220000000  0.5650640000000  0.5393890000000 1.0
C      1  0.5516590000000  0.4437790000000  0.4926750000000 1.0
C      1  0.4480480000000  0.4490040000000  0.4915320000000 1.0
C      1  0.4578540000000  0.4670900000000  0.5178610000000 1.0
C      1  0.5480490000000  0.4617880000000  0.5188580000000 1.0
C      1  0.4388870000000  0.5860980000000  0.4787580000000 1.0
C      1  0.5512660000000  0.5858230000000  0.4806920000000 1.0
C      1  0.4034530000000  0.5239470000000  0.5311440000000 1.0
C      1  0.5883000000000  0.5096530000000  0.5276490000000 1.0
C      1  0.5127100000000  0.5295850000000  0.5800030000000 1.0
C      1  0.4822910000000  0.5325340000000  0.5777720000000 1.0
C      1  0.4787090000000  0.5217750000000  0.4823180000000 1.0
C      1  0.5109410000000  0.5184410000000  0.4835390000000 1.0
C      1  0.5126950000000  0.4355000000000  0.5394880000000 1.0
C      1  0.4841560000000  0.4384970000000  0.5377250000000 1.0
C      1  0.4855480000000  0.5687010000000  0.4986180000000 1.0
C      1  0.5169620000000  0.5635090000000  0.5031680000000 1.0
C      1  0.4642180000000  0.4385480000000  0.4136490000000 1.0
C      1  0.5360550000000  0.4438530000000  0.4073060000000 1.0
C      1  0.5612460000000  0.4451850000000  0.4204900000000 1.0
C      1  0.4382280000000  0.4351900000000  0.4266170000000 1.0
C      1  0.4647490000000  0.5006530000000  0.5941370000000 1.0
C      1  0.5366840000000  0.4944260000000  0.5999840000000 1.0
C      1  0.5157920000000  0.4697070000000  0.5599240000000 1.0
C      1  0.4826800000000  0.4749960000000  0.5537340000000 1.0
C      1  0.5241790000000  0.4699720000000  0.3978850000000 1.0
C      1  0.4706150000000  0.4660300000000  0.4096660000000 1.0
C      1  0.5443150000000  0.4409740000000  0.5399140000000 1.0
C      1  0.4513110000000  0.4421880000000  0.5371540000000 1.0
C      1  0.5542500000000  0.5735650000000  0.4340000000000 1.0
C      1  0.4467660000000  0.5669100000000  0.4334680000000 1.0
C      1  0.4715720000000  0.5883760000000  0.5218080000000 1.0
C      1  0.5304940000000  0.5843230000000  0.5240120000000 1.0
C      1  0.5160320000000  0.4969270000000  0.4451010000000 1.0
C      1  0.4844650000000  0.5058980000000  0.4462610000000 1.0
C      1  0.5220590000000  0.4385090000000  0.5724090000000 1.0
C      1  0.4737710000000  0.4460580000000  0.5694540000000 1.0
C      1  0.4624540000000  0.6002260000000  0.4911240000000 1.0
C      1  0.5299570000000  0.5998310000000  0.4935710000000 1.0
C      1  0.4827290000000  0.4903960000000  0.4830090000000 1.0
C      1  0.5158790000000  0.4847210000000  0.4837930000000 1.0
C      1  0.5422930000000  0.5038960000000  0.4639950000000 1.0
C      1  0.4548310000000  0.5040140000000  0.4553630000000 1.0
C      1  0.4072710000000  0.4892120000000  0.4679350000000 1.0
C      1  0.6041860000000  0.4988790000000  0.4612260000000 1.0
C      1  0.4234810000000  0.5786030000000  0.4495220000000 1.0
C      1  0.5701950000000  0.5779460000000  0.4592130000000 1.0
C      1  0.4504770000000  0.5442990000000  0.5574940000000 1.0
C      1  0.5449080000000  0.5380360000000  0.5584700000000 1.0
C      1  0.3896650000000  0.5128660000000  0.4849760000000 1.0
C      1  0.6154760000000  0.5085420000000  0.4861100000000 1.0
C      1  0.4226340000000  0.4870380000000  0.4192570000000 1.0
C      1  0.5727240000000  0.4945280000000  0.4249030000000 1.0
C      1  0.5121980000000  0.5981500000000  0.4214410000000 1.0
C      1  0.4871940000000  0.5978670000000  0.4196280000000 1.0
C      1  0.5746870000000  0.4219030000000  0.4952810000000 1.0
C      1  0.4245170000000  0.4199130000000  0.5049120000000 1.0
C      1  0.4763220000000  0.5401900000000  0.5082880000000 1.0
C      1  0.5207710000000  0.5328050000000  0.5096670000000 1.0
C      1  0.5612570000000  0.5779060000000  0.5259700000000 1.0
C      1  0.4404830000000  0.5808780000000  0.5230860000000 1.0
C      1  0.4345310000000  0.5553750000000  0.5037870000000 1.0
C      1  0.5722210000000  0.5600430000000  0.5020790000000 1.0
C      1  0.5632150000000  0.4687390000000  0.4424210000000 1.0
C      1  0.4206900000000  0.4580450000000  0.4305260000000 1.0
C      1  0.6091330000000  0.5623650000000  0.5222230000000 1.0
C      1  0.3956900000000  0.5602940000000  0.5118220000000 1.0
C      1  0.5181390000000  0.5206650000000  0.6112200000000 1.0
C      1  0.4841160000000  0.5242280000000  0.6095820000000 1.0
C      1  0.4026500000000  0.5547620000000  0.4567690000000 1.0
C      1  0.5859540000000  0.5508310000000  0.4657130000000 1.0
C      1  0.4251500000000  0.5403180000000  0.4357610000000 1.0
C      1  0.5766460000000  0.5476820000000  0.4340820000000 1.0
C      1  0.6035190000000  0.5643780000000  0.4886880000000 1.0
C      1  0.4095950000000  0.5700800000000  0.4856110000000 1.0
C      1  0.5364240000000  0.5346620000000  0.4131110000000 1.0
C      1  0.4616950000000  0.5290240000000  0.4068080000000 1.0
C      1  0.4474620000000  0.4756940000000  0.5765670000000 1.0
C      1  0.5547300000000  0.4699410000000  0.5831790000000 1.0
C      1  0.4133430000000  0.4388510000000  0.5220580000000 1.0
C      1  0.5940000000000  0.4372880000000  0.5149930000000 1.0
C      1  0.4715160000000  0.4129040000000  0.4525850000000 1.0
C      1  0.5350130000000  0.4193100000000  0.4494250000000 1.0
C      1  0.5812650000000  0.4987090000000  0.5720400000000 1.0
C      1  0.4183020000000  0.5040440000000  0.5706070000000 1.0
C      1  0.4029090000000  0.5262080000000  0.5605570000000 1.0
C      1  0.5916520000000  0.5193580000000  0.5552560000000 1.0
C      1  0.4812680000000  0.5679520000000  0.4664040000000 1.0
C      1  0.5130300000000  0.5674970000000  0.4696310000000 1.0
C      1  0.5900050000000  0.5314190000000  0.5065720000000 1.0
C      1  0.4284630000000  0.5311890000000  0.5193520000000 1.0
C      1  0.4836000000000  0.4757490000000  0.4353100000000 1.0
C      1  0.5142810000000  0.4677000000000  0.4304000000000 1.0
C      1  0.5229470000000  0.5385070000000  0.4632410000000 1.0
C      1  0.4691000000000  0.5408260000000  0.4597960000000 1.0
C      1  0.4517300000000  0.4093810000000  0.5146130000000 1.0
C      1  0.5484810000000  0.4106710000000  0.5141710000000 1.0
C      1  0.5147190000000  0.5801360000000  0.5517660000000 1.0
C      1  0.4865960000000  0.5821390000000  0.5510530000000 1.0
C      1  0.4289630000000  0.5194640000000  0.4091110000000 1.0
C      1  0.5689290000000  0.5251100000000  0.4100230000000 1.0
C      1  0.5109610000000  0.6070490000000  0.4722280000000 1.0
C      1  0.4821900000000  0.6073930000000  0.4702880000000 1.0
C      1  0.5483110000000  0.3834020000000  0.5433800000000 1.0
C      1  0.4547490000000  0.3883350000000  0.5484380000000 1.0
C      1  0.5145450000000  0.5415200000000  0.5419870000000 1.0
C      1  0.4801390000000  0.5444580000000  0.5399630000000 1.0
C      1  0.4718550000000  0.5644200000000  0.5736790000000 1.0
C      1  0.5268460000000  0.5603340000000  0.5748570000000 1.0
C      1  0.5139530000000  0.5295640000000  0.4343240000000 1.0
C      1  0.4817830000000  0.5339450000000  0.4304800000000 1.0
C      1  0.4842240000000  0.4486110000000  0.5995960000000 1.0
C      1  0.5137150000000  0.4388320000000  0.6037190000000 1.0
C      1  0.5597350000000  0.4991340000000  0.5256740000000 1.0
C      1  0.4484360000000  0.5076080000000  0.5172850000000 1.0
C      1  0.4120890000000  0.4585860000000  0.4587000000000 1.0
C      1  0.5927870000000  0.4692040000000  0.4592110000000 1.0
C      1  0.3916280000000  0.5035940000000  0.5159110000000 1.0
C      1  0.6053440000000  0.4929790000000  0.5079140000000 1.0
C      1  0.4801200000000  0.5090960000000  0.5216590000000 1.0
C      1  0.5289630000000  0.5077700000000  0.5267170000000 1.0
C      1  0.4847250000000  0.4237970000000  0.4293270000000 1.0
C      1  0.5140480000000  0.4335320000000  0.4299900000000 1.0
C      1  0.4787580000000  0.4781870000000  0.3855620000000 1.0
C      1  0.5056640000000  0.4804160000000  0.3797300000000 1.0
C      1  0.5768860000000  0.5438930000000  0.5564770000000 1.0
C      1  0.4198990000000  0.5509970000000  0.5555670000000 1.0
C      1  0.4243020000000  0.4688770000000  0.5259970000000 1.0
C      1  0.5785760000000  0.4605530000000  0.5344840000000 1.0
C      1  0.5905950000000  0.5174160000000  0.4423140000000 1.0
C      1  0.4229350000000  0.5077600000000  0.4464590000000 1.0
C      1  0.5804230000000  0.4381060000000  0.4657620000000 1.0
C      1  0.4271390000000  0.4325050000000  0.4745220000000 1.0
C      1  0.4397730000000  0.4146470000000  0.5488960000000 1.0
C      1  0.5592030000000  0.4131350000000  0.5468240000000 1.0
C      1  0.4196370000000  0.4767680000000  0.5563990000000 1.0
C      1  0.5821550000000  0.4695490000000  0.5627920000000 1.0
C      1  0.5483520000000  0.5514880000000  0.4792570000000 1.0
C      1  0.4426200000000  0.5521700000000  0.4721570000000 1.0
C      1  0.4545630000000  0.4929300000000  0.5473600000000 1.0
C      1  0.5462580000000  0.4831330000000  0.5526070000000 1.0
C      1  0.5616490000000  0.4289720000000  0.4456930000000 1.0
C      1  0.4433120000000  0.4197680000000  0.4513470000000 1.0
C      1  0.4474430000000  0.5150360000000  0.5707260000000 1.0
C      1  0.5515640000000  0.5088430000000  0.5747920000000 1.0
C      1  0.4725520000000  0.3803970000000  0.5324640000000 1.0
C      1  0.5318950000000  0.3762790000000  0.5258530000000 1.0
C      1  0.4411210000000  0.4429220000000  0.5684450000000 1.0
C      1  0.5556990000000  0.4380550000000  0.5704970000000 1.0
C      1  0.5232960000000  0.4793830000000  0.5146030000000 1.0
C      1  0.4892290000000  0.4795520000000  0.5132170000000 1.0
C      1  0.3788950000000  0.5393060000000  0.5036880000000 1.0
C      1  0.6218890000000  0.5389190000000  0.5000750000000 1.0
C      1  0.5173640000000  0.5093520000000  0.5552980000000 1.0
C      1  0.4871610000000  0.5145240000000  0.5523750000000 1.0
C      1  0.5893070000000  0.4681720000000  0.5033280000000 1.0
C      1  0.4143490000000  0.4857750000000  0.5007580000000 1.0
C      1  0.4840420000000  0.4428530000000  0.4758350000000 1.0
C      1  0.5157100000000  0.4421590000000  0.4758440000000 1.0
C      1  0.5230040000000  0.4085460000000  0.4755560000000 1.0
C      1  0.4901760000000  0.4090030000000  0.4785230000000 1.0
C      1  0.5702150000000  0.5262390000000  0.4814690000000 1.0
C      1  0.4159330000000  0.5314170000000  0.4777170000000 1.0
C      1  0.4428020000000  0.4785740000000  0.4827600000000 1.0
C      1  0.5634650000000  0.4721000000000  0.4835020000000 1.0
C      1  0.5560230000000  0.5006390000000  0.4936560000000 1.0
C      1  0.4401670000000  0.5115670000000  0.4845210000000 1.0
C      1  0.5268580000000  0.5886890000000  0.4475020000000 1.0
C      1  0.4706990000000  0.5887380000000  0.4438790000000 1.0
C      1  0.5307390000000  0.5511910000000  0.6075370000000 1.0
C      1  0.4737560000000  0.5566310000000  0.6070790000000 1.0
C      1  0.5233320000000  0.4326540000000  0.5073130000000 1.0
C      1  0.4739080000000  0.4326240000000  0.5060890000000 1.0
C      1  0.5179710000000  0.3934730000000  0.5042520000000 1.0
C      1  0.4839230000000  0.3943040000000  0.5070550000000 1.0
C      1  0.5363730000000  0.4661700000000  0.4635700000000 1.0
C      1  0.4703830000000  0.4684060000000  0.4647960000000 1.0
C      1  0.5511210000000  0.5157420000000  0.4378160000000 1.0
C      1  0.4534240000000  0.4997860000000  0.4220900000000 1.0
C      1  0.5164240000000  0.4714010000000  0.5940210000000 1.0
C      1  0.4860010000000  0.4798730000000  0.5861700000000 1.0
END
