TITL C-2782226-7400-899 -0.00240655017384002 125000 -868.538512478758 0 0 148 (C1) n - 1
REM
REM in /home/nfs/bkarasulu/CARBON/AIRSS/Generating-Clusters/REBO/Higher-Symm/SD-CG/HFTN-CG
REM
REM
REM
REM
REM
REM ./C.cell (12c818d87b63d06a65506943cc24bca4)
REM
REM compiler GCC version 9.2.1 20190827 (Red Hat 9.2.1-1)
REM options -cpp -mtune=generic -march=x86-64 -g -O0 -fpre-include=/usr/include/finclude/math-vector-fortran.h
REM seed 1933183017 -541520176 -1466909609 1245181026 -62224216 2084985311 964239911 -817457938 -557149592 2088893675 -1198346651 -690712627 -658930733 -1629425993 -406123897 1572306106 606274941 -879812811 -409010570 1788847052 73856258 494904867 1081902023 -1282243796 585359843 -1932258762 1712932547 -1511903523 -185583176 150425159 -1153287500 -1184123883 1993962342
REM
CELL 1.54180   50.00000   50.00000   50.00000   90.00000   90.00000   90.00000
LATT -1
SFAC C  
C      1  0.5361680000000  0.4783380000000  0.4076080000000 1.0
C      1  0.4631490000000  0.5214640000000  0.5926740000000 1.0
C      1  0.5687870000000  0.5702510000000  0.5139020000000 1.0
C      1  0.4311300000000  0.4296310000000  0.4860760000000 1.0
C      1  0.4689080000000  0.4445940000000  0.5293070000000 1.0
C      1  0.5313420000000  0.5556940000000  0.4706430000000 1.0
C      1  0.4371550000000  0.5663840000000  0.5316030000000 1.0
C      1  0.5632040000000  0.4336300000000  0.4681610000000 1.0
C      1  0.4737480000000  0.4956040000000  0.5048390000000 1.0
C      1  0.5261010000000  0.5045480000000  0.4938360000000 1.0
C      1  0.4661810000000  0.4204300000000  0.4500390000000 1.0
C      1  0.5337850000000  0.5791950000000  0.5500010000000 1.0
C      1  0.4482940000000  0.5496460000000  0.5825540000000 1.0
C      1  0.5513860000000  0.4502740000000  0.4173540000000 1.0
C      1  0.4223690000000  0.4912340000000  0.5815830000000 1.0
C      1  0.5770730000000  0.5089090000000  0.4183430000000 1.0
C      1  0.4886530000000  0.5003280000000  0.6003540000000 1.0
C      1  0.5106090000000  0.4994450000000  0.4001470000000 1.0
C      1  0.4587120000000  0.5402380000000  0.4881220000000 1.0
C      1  0.5415580000000  0.4591840000000  0.5118810000000 1.0
C      1  0.5841130000000  0.5539650000000  0.4969600000000 1.0
C      1  0.4160470000000  0.4461610000000  0.5029830000000 1.0
C      1  0.4189760000000  0.4599680000000  0.5702600000000 1.0
C      1  0.5810430000000  0.5401720000000  0.4293480000000 1.0
C      1  0.5088970000000  0.4392300000000  0.5587040000000 1.0
C      1  0.4912370000000  0.5608460000000  0.4414170000000 1.0
C      1  0.5896780000000  0.4319970000000  0.4760650000000 1.0
C      1  0.4107140000000  0.5682270000000  0.5236480000000 1.0
C      1  0.4459490000000  0.4435290000000  0.5620840000000 1.0
C      1  0.5541070000000  0.5565380000000  0.4376350000000 1.0
C      1  0.4601520000000  0.5716120000000  0.4821940000000 1.0
C      1  0.5398950000000  0.4279760000000  0.5180990000000 1.0
C      1  0.5453560000000  0.5102610000000  0.4160870000000 1.0
C      1  0.4541240000000  0.4895690000000  0.5838720000000 1.0
C      1  0.5067380000000  0.4863250000000  0.5342830000000 1.0
C      1  0.4937660000000  0.5140390000000  0.4656610000000 1.0
C      1  0.4250750000000  0.5246790000000  0.5814350000000 1.0
C      1  0.5744160000000  0.4754360000000  0.4183600000000 1.0
C      1  0.5367700000000  0.4926400000000  0.5940200000000 1.0
C      1  0.4627710000000  0.5074810000000  0.4061390000000 1.0
C      1  0.5793910000000  0.4699810000000  0.4692290000000 1.0
C      1  0.4206240000000  0.5301890000000  0.5307380000000 1.0
C      1  0.5227050000000  0.4691830000000  0.5941260000000 1.0
C      1  0.4769340000000  0.5308980000000  0.4060700000000 1.0
C      1  0.4861740000000  0.4160850000000  0.5356800000000 1.0
C      1  0.5140250000000  0.5841290000000  0.4642290000000 1.0
C      1  0.5517950000000  0.5906570000000  0.5035770000000 1.0
C      1  0.4482610000000  0.4094160000000  0.4965800000000 1.0
C      1  0.5324130000000  0.5067460000000  0.5331300000000 1.0
C      1  0.4688030000000  0.4922270000000  0.4652120000000 1.0
C      1  0.4899710000000  0.5110370000000  0.5252210000000 1.0
C      1  0.5098530000000  0.4882930000000  0.4742780000000 1.0
C      1  0.6009420000000  0.4565430000000  0.4908010000000 1.0
C      1  0.3990960000000  0.5436640000000  0.5092270000000 1.0
C      1  0.5031320000000  0.4461730000000  0.4571100000000 1.0
C      1  0.4967570000000  0.5536780000000  0.5426920000000 1.0
C      1  0.4553510000000  0.5716090000000  0.5574040000000 1.0
C      1  0.5447060000000  0.4283190000000  0.4426320000000 1.0
C      1  0.4692410000000  0.4588700000000  0.5819080000000 1.0
C      1  0.5306430000000  0.5411790000000  0.4180050000000 1.0
C      1  0.3912550000000  0.5341580000000  0.4850780000000 1.0
C      1  0.6084400000000  0.4659680000000  0.5150850000000 1.0
C      1  0.5942180000000  0.5233010000000  0.5396980000000 1.0
C      1  0.4057260000000  0.4768930000000  0.4603700000000 1.0
C      1  0.4921830000000  0.4731090000000  0.4418540000000 1.0
C      1  0.5071470000000  0.5276420000000  0.5596520000000 1.0
C      1  0.4467130000000  0.4866070000000  0.5328000000000 1.0
C      1  0.5538620000000  0.5134750000000  0.4666780000000 1.0
C      1  0.4947810000000  0.4722530000000  0.5971680000000 1.0
C      1  0.5048400000000  0.5276270000000  0.4030490000000 1.0
C      1  0.4211370000000  0.5101620000000  0.4962790000000 1.0
C      1  0.5788580000000  0.4901890000000  0.5035890000000 1.0
C      1  0.5342300000000  0.4478130000000  0.5769290000000 1.0
C      1  0.4656610000000  0.5522310000000  0.4234410000000 1.0
C      1  0.5232590000000  0.4123660000000  0.4641490000000 1.0
C      1  0.4768060000000  0.5876100000000  0.5359390000000 1.0
C      1  0.3955740000000  0.4956190000000  0.4935260000000 1.0
C      1  0.6044550000000  0.5045370000000  0.5065960000000 1.0
C      1  0.4804080000000  0.4579130000000  0.4067800000000 1.0
C      1  0.5203440000000  0.5427730000000  0.5942030000000 1.0
C      1  0.5706420000000  0.5494990000000  0.4666970000000 1.0
C      1  0.4295830000000  0.4507340000000  0.5329760000000 1.0
C      1  0.5757520000000  0.5384350000000  0.5535430000000 1.0
C      1  0.4239870000000  0.4615280000000  0.4464490000000 1.0
C      1  0.5513400000000  0.4797110000000  0.5306220000000 1.0
C      1  0.4493390000000  0.5196280000000  0.4693170000000 1.0
C      1  0.4729970000000  0.5323440000000  0.5374150000000 1.0
C      1  0.5272190000000  0.4670850000000  0.4624700000000 1.0
C      1  0.4615380000000  0.4644150000000  0.4802900000000 1.0
C      1  0.5384740000000  0.5349910000000  0.5192500000000 1.0
C      1  0.5747680000000  0.4774270000000  0.5535380000000 1.0
C      1  0.4250900000000  0.5227740000000  0.4471610000000 1.0
C      1  0.4000920000000  0.4657960000000  0.4900530000000 1.0
C      1  0.6000810000000  0.5343940000000  0.5100160000000 1.0
C      1  0.5231820000000  0.5703050000000  0.4343690000000 1.0
C      1  0.4768980000000  0.4298420000000  0.5655300000000 1.0
C      1  0.5297590000000  0.5932650000000  0.5221120000000 1.0
C      1  0.4702860000000  0.4066720000000  0.4780260000000 1.0
C      1  0.5503260000000  0.4589960000000  0.4836050000000 1.0
C      1  0.4498850000000  0.5407730000000  0.5164780000000 1.0
C      1  0.4117900000000  0.5098210000000  0.5541160000000 1.0
C      1  0.5879050000000  0.4902610000000  0.4456540000000 1.0
C      1  0.5052370000000  0.5910290000000  0.5535490000000 1.0
C      1  0.4947500000000  0.4087390000000  0.4464980000000 1.0
C      1  0.4167510000000  0.4802670000000  0.5439110000000 1.0
C      1  0.5839080000000  0.5201480000000  0.4557410000000 1.0
C      1  0.4910960000000  0.4733660000000  0.4924390000000 1.0
C      1  0.5088850000000  0.5260750000000  0.5072600000000 1.0
C      1  0.5337630000000  0.4231490000000  0.5455120000000 1.0
C      1  0.4663840000000  0.5768550000000  0.4548720000000 1.0
C      1  0.4688500000000  0.4869960000000  0.5535000000000 1.0
C      1  0.5312380000000  0.5131070000000  0.4464650000000 1.0
C      1  0.4887310000000  0.4629990000000  0.5472660000000 1.0
C      1  0.5116370000000  0.5372380000000  0.4529110000000 1.0
C      1  0.4432610000000  0.5764700000000  0.4354830000000 1.0
C      1  0.5568500000000  0.4237390000000  0.5649350000000 1.0
C      1  0.5010760000000  0.5583910000000  0.5942200000000 1.0
C      1  0.4992810000000  0.4419040000000  0.4059730000000 1.0
C      1  0.5524820000000  0.5011520000000  0.5582440000000 1.0
C      1  0.4465130000000  0.4987960000000  0.4416050000000 1.0
C      1  0.5136190000000  0.4295530000000  0.4297520000000 1.0
C      1  0.4864340000000  0.5702750000000  0.5703180000000 1.0
C      1  0.5092730000000  0.5710610000000  0.5195350000000 1.0
C      1  0.4907320000000  0.4288690000000  0.4804300000000 1.0
C      1  0.4455410000000  0.5026560000000  0.5053110000000 1.0
C      1  0.5544130000000  0.4972960000000  0.4942190000000 1.0
C      1  0.5341400000000  0.5197150000000  0.5767230000000 1.0
C      1  0.4657130000000  0.4805410000000  0.4237060000000 1.0
C      1  0.5992070000000  0.4894900000000  0.5379060000000 1.0
C      1  0.4004490000000  0.5106820000000  0.4621890000000 1.0
C      1  0.4451930000000  0.5315140000000  0.5545800000000 1.0
C      1  0.5548440000000  0.4680660000000  0.4454300000000 1.0
C      1  0.5010230000000  0.4302770000000  0.5102790000000 1.0
C      1  0.4991220000000  0.5698750000000  0.4896340000000 1.0
C      1  0.5442000000000  0.5867470000000  0.4768360000000 1.0
C      1  0.4558880000000  0.4135620000000  0.5232870000000 1.0
C      1  0.5094390000000  0.4595070000000  0.5135030000000 1.0
C      1  0.4907440000000  0.5407060000000  0.4865770000000 1.0
C      1  0.5152140000000  0.4892620000000  0.4315110000000 1.0
C      1  0.4843790000000  0.5107850000000  0.5690460000000 1.0
C      1  0.4325670000000  0.5469690000000  0.4304950000000 1.0
C      1  0.5673610000000  0.4532650000000  0.5702590000000 1.0
C      1  0.4458150000000  0.4440500000000  0.4613820000000 1.0
C      1  0.5539190000000  0.5555140000000  0.5383410000000 1.0
C      1  0.5484280000000  0.5374090000000  0.4899860000000 1.0
C      1  0.4518760000000  0.4625640000000  0.5096410000000 1.0
C      1  0.4740090000000  0.5849310000000  0.5074300000000 1.0
C      1  0.5259790000000  0.4149470000000  0.4926270000000 1.0
END
