TITL C-2782239-8622-137 -0.00424835743153811 125000 -817.313665881028 0 0 143 (C1) n - 1
REM
REM in /home/nfs/bkarasulu/CARBON/AIRSS/Generating-Clusters/REBO/Higher-Symm/SD-CG/HFTN-CG
REM
REM
REM
REM
REM
REM ./C.cell (12c818d87b63d06a65506943cc24bca4)
REM
REM compiler GCC version 9.2.1 20190827 (Red Hat 9.2.1-1)
REM options -cpp -mtune=generic -march=x86-64 -g -O0 -fpre-include=/usr/include/finclude/math-vector-fortran.h
REM seed -1924872160 -300387800 -181792181 2068796138 -413350517 2135095114 916770385 -1484025842 -210447654 1290176455 2098112850 693662423 1191270856 501849615 -52531602 1708270566 -624015630 589367846 994174991 907266432 1037164112 -877477403 571493521 116331289 439115764 -2037679780 894465904 1923714552 -1347603971 1027474243 1498860630 262920244 -2081412576
REM
CELL 1.54180   50.00000   50.00000   50.00000   90.00000   90.00000   90.00000
LATT -1
SFAC C  
C      1  0.5510110000000  0.4424910000000  0.5475670000000 1.0
C      1  0.4366600000000  0.4633960000000  0.4242520000000 1.0
C      1  0.4871980000000  0.4366280000000  0.5370380000000 1.0
C      1  0.4528980000000  0.5352820000000  0.5065620000000 1.0
C      1  0.4117070000000  0.4571130000000  0.5058750000000 1.0
C      1  0.4819680000000  0.5913550000000  0.5443010000000 1.0
C      1  0.5310560000000  0.4479190000000  0.4256020000000 1.0
C      1  0.4734680000000  0.4745400000000  0.6266040000000 1.0
C      1  0.5428490000000  0.4440050000000  0.4982850000000 1.0
C      1  0.5200410000000  0.4596930000000  0.4716220000000 1.0
C      1  0.4784800000000  0.4590590000000  0.5561210000000 1.0
C      1  0.4838560000000  0.4193250000000  0.4699780000000 1.0
C      1  0.4926810000000  0.6124260000000  0.4865670000000 1.0
C      1  0.4296850000000  0.5459330000000  0.4839560000000 1.0
C      1  0.4432450000000  0.4995850000000  0.5212990000000 1.0
C      1  0.4684650000000  0.4892380000000  0.5801930000000 1.0
C      1  0.5389620000000  0.4046510000000  0.5022930000000 1.0
C      1  0.5314630000000  0.5890710000000  0.4593410000000 1.0
C      1  0.5145520000000  0.5815950000000  0.5467450000000 1.0
C      1  0.4287340000000  0.4407540000000  0.5217380000000 1.0
C      1  0.4798780000000  0.4647340000000  0.4513030000000 1.0
C      1  0.5083380000000  0.4180870000000  0.5088440000000 1.0
C      1  0.5453160000000  0.4667250000000  0.4578270000000 1.0
C      1  0.5223700000000  0.4227650000000  0.4423240000000 1.0
C      1  0.5124730000000  0.5096150000000  0.5350190000000 1.0
C      1  0.4713680000000  0.4668750000000  0.4910700000000 1.0
C      1  0.5049120000000  0.5342630000000  0.5123660000000 1.0
C      1  0.5329200000000  0.5424390000000  0.4321940000000 1.0
C      1  0.4946480000000  0.4163520000000  0.4416360000000 1.0
C      1  0.5093750000000  0.5249370000000  0.4796550000000 1.0
C      1  0.4512730000000  0.4644160000000  0.5644310000000 1.0
C      1  0.5143550000000  0.4751090000000  0.4339800000000 1.0
C      1  0.5487840000000  0.5401270000000  0.5216460000000 1.0
C      1  0.5377970000000  0.4886180000000  0.5255060000000 1.0
C      1  0.4319150000000  0.5271270000000  0.5745670000000 1.0
C      1  0.4472310000000  0.4554860000000  0.4727740000000 1.0
C      1  0.4458640000000  0.5084470000000  0.5917520000000 1.0
C      1  0.6008110000000  0.5174830000000  0.4883240000000 1.0
C      1  0.5289850000000  0.4363850000000  0.5244450000000 1.0
C      1  0.4493930000000  0.4400230000000  0.4437210000000 1.0
C      1  0.5766470000000  0.5030950000000  0.4513680000000 1.0
C      1  0.5750580000000  0.5256600000000  0.5047140000000 1.0
C      1  0.5054470000000  0.5316240000000  0.5688370000000 1.0
C      1  0.4609090000000  0.4929810000000  0.3891490000000 1.0
C      1  0.4834250000000  0.5611320000000  0.5322130000000 1.0
C      1  0.4959170000000  0.4477290000000  0.4661540000000 1.0
C      1  0.5876060000000  0.4450720000000  0.4824710000000 1.0
C      1  0.5360070000000  0.4906540000000  0.5835280000000 1.0
C      1  0.4633520000000  0.3980250000000  0.5217970000000 1.0
C      1  0.4114370000000  0.5398130000000  0.5315020000000 1.0
C      1  0.4545440000000  0.5421890000000  0.4200180000000 1.0
C      1  0.5433130000000  0.5736410000000  0.5633720000000 1.0
C      1  0.4354410000000  0.5682870000000  0.4644180000000 1.0
C      1  0.4567270000000  0.5172910000000  0.5543660000000 1.0
C      1  0.5271350000000  0.5154130000000  0.4267530000000 1.0
C      1  0.5441440000000  0.5578970000000  0.5852950000000 1.0
C      1  0.5703530000000  0.5334560000000  0.5549420000000 1.0
C      1  0.4906910000000  0.4761930000000  0.5334230000000 1.0
C      1  0.5252250000000  0.4612300000000  0.5716700000000 1.0
C      1  0.5414660000000  0.4260670000000  0.4690290000000 1.0
C      1  0.4795150000000  0.4517050000000  0.4058340000000 1.0
C      1  0.5349300000000  0.5286880000000  0.5802080000000 1.0
C      1  0.4754880000000  0.4322350000000  0.4263150000000 1.0
C      1  0.4502010000000  0.4935800000000  0.4897590000000 1.0
C      1  0.4716150000000  0.5889600000000  0.4887380000000 1.0
C      1  0.4854510000000  0.4783680000000  0.6031580000000 1.0
C      1  0.4492440000000  0.4228610000000  0.5067780000000 1.0
C      1  0.5710410000000  0.4824490000000  0.5660790000000 1.0
C      1  0.5450360000000  0.4974180000000  0.4444230000000 1.0
C      1  0.5863600000000  0.4503010000000  0.4533640000000 1.0
C      1  0.4760840000000  0.5137740000000  0.4950030000000 1.0
C      1  0.4329030000000  0.4502010000000  0.5485040000000 1.0
C      1  0.4900940000000  0.3980700000000  0.5275970000000 1.0
C      1  0.5064390000000  0.4153320000000  0.5498340000000 1.0
C      1  0.4531850000000  0.4234720000000  0.4738520000000 1.0
C      1  0.5369500000000  0.5465910000000  0.4596030000000 1.0
C      1  0.5618690000000  0.5101760000000  0.5774570000000 1.0
C      1  0.5253720000000  0.4594630000000  0.6238330000000 1.0
C      1  0.5522120000000  0.5775630000000  0.4792480000000 1.0
C      1  0.4876090000000  0.5070920000000  0.5584050000000 1.0
C      1  0.5449100000000  0.5042640000000  0.4896100000000 1.0
C      1  0.4995610000000  0.5022090000000  0.4196590000000 1.0
C      1  0.5907910000000  0.5137060000000  0.5383130000000 1.0
C      1  0.5849270000000  0.4721080000000  0.4972180000000 1.0
C      1  0.4800050000000  0.4374050000000  0.5057750000000 1.0
C      1  0.5706660000000  0.4946000000000  0.5184610000000 1.0
C      1  0.5114520000000  0.5588870000000  0.4753190000000 1.0
C      1  0.5161280000000  0.5818550000000  0.4959550000000 1.0
C      1  0.4214420000000  0.4914800000000  0.4361020000000 1.0
C      1  0.5871150000000  0.5470230000000  0.5284190000000 1.0
C      1  0.4817490000000  0.5597860000000  0.4323950000000 1.0
C      1  0.5498590000000  0.5680700000000  0.5340860000000 1.0
C      1  0.4560810000000  0.5450200000000  0.5390990000000 1.0
C      1  0.5312690000000  0.5623280000000  0.4138360000000 1.0
C      1  0.3971210000000  0.5010870000000  0.4945120000000 1.0
C      1  0.4140610000000  0.5142120000000  0.5194800000000 1.0
C      1  0.5333430000000  0.5870180000000  0.5191490000000 1.0
C      1  0.4373610000000  0.5194010000000  0.4225710000000 1.0
C      1  0.4516320000000  0.5693940000000  0.5077710000000 1.0
C      1  0.5092080000000  0.5483490000000  0.5434550000000 1.0
C      1  0.4662980000000  0.5642290000000  0.5856330000000 1.0
C      1  0.5390590000000  0.5352680000000  0.4916550000000 1.0
C      1  0.4873650000000  0.5472420000000  0.5895620000000 1.0
C      1  0.5740810000000  0.5538190000000  0.4724730000000 1.0
C      1  0.5774200000000  0.4742380000000  0.4353060000000 1.0
C      1  0.4121430000000  0.5407610000000  0.5600580000000 1.0
C      1  0.4586490000000  0.5719840000000  0.5601440000000 1.0
C      1  0.4198680000000  0.4639900000000  0.4797880000000 1.0
C      1  0.5741220000000  0.5651910000000  0.5025480000000 1.0
C      1  0.4752080000000  0.4933190000000  0.5208310000000 1.0
C      1  0.5557490000000  0.4701510000000  0.4172460000000 1.0
C      1  0.5662710000000  0.4224110000000  0.4916650000000 1.0
C      1  0.4837590000000  0.5077700000000  0.3937110000000 1.0
C      1  0.5049530000000  0.5723800000000  0.4451440000000 1.0
C      1  0.4837670000000  0.5596410000000  0.5016850000000 1.0
C      1  0.5244460000000  0.4724620000000  0.5024400000000 1.0
C      1  0.5275510000000  0.4282700000000  0.5635370000000 1.0
C      1  0.4507760000000  0.5629200000000  0.4423530000000 1.0
C      1  0.5419320000000  0.3784300000000  0.5057680000000 1.0
C      1  0.5567540000000  0.4700770000000  0.5467890000000 1.0
C      1  0.3970720000000  0.4783220000000  0.5187890000000 1.0
C      1  0.5142480000000  0.4974300000000  0.4600420000000 1.0
C      1  0.4532250000000  0.4977170000000  0.4357750000000 1.0
C      1  0.4427400000000  0.5919380000000  0.4761070000000 1.0
C      1  0.5291160000000  0.4793500000000  0.4017930000000 1.0
C      1  0.4775040000000  0.4890330000000  0.4388820000000 1.0
C      1  0.5146760000000  0.4717350000000  0.6010490000000 1.0
C      1  0.4255080000000  0.5146550000000  0.4813020000000 1.0
C      1  0.4051980000000  0.4852370000000  0.5458870000000 1.0
C      1  0.5634460000000  0.4861340000000  0.4777160000000 1.0
C      1  0.4306000000000  0.4955270000000  0.5503720000000 1.0
C      1  0.5580250000000  0.4402730000000  0.4436020000000 1.0
C      1  0.4214840000000  0.5589480000000  0.5137530000000 1.0
C      1  0.5153630000000  0.6122220000000  0.4693600000000 1.0
C      1  0.4969190000000  0.6015630000000  0.5164010000000 1.0
C      1  0.4975530000000  0.4879370000000  0.4881780000000 1.0
C      1  0.5819280000000  0.5326670000000  0.4566090000000 1.0
C      1  0.6076900000000  0.4931430000000  0.4886370000000 1.0
C      1  0.5156610000000  0.4598050000000  0.5420260000000 1.0
C      1  0.4558740000000  0.4685360000000  0.4029320000000 1.0
C      1  0.5043690000000  0.4626900000000  0.3973140000000 1.0
C      1  0.5391230000000  0.5222530000000  0.5469290000000 1.0
C      1  0.4103970000000  0.4903120000000  0.4646920000000 1.0
END
