TITL C-2782233-7966-548 0.00549298675553788 125000 -940.133153199052 0 0 164 (C1) n - 1
REM
REM in /home/nfs/bkarasulu/CARBON/AIRSS/Generating-Clusters/REBO/Higher-Symm/SD-CG/HFTN-CG
REM
REM
REM
REM
REM
REM ./C.cell (12c818d87b63d06a65506943cc24bca4)
REM
REM compiler GCC version 9.2.1 20190827 (Red Hat 9.2.1-1)
REM options -cpp -mtune=generic -march=x86-64 -g -O0 -fpre-include=/usr/include/finclude/math-vector-fortran.h
REM seed -1604059756 -1012020358 710095584 -1050783394 885018274 1469903677 -1067795468 588211876 1984122902 172770482 737393593 -1367034772 -1989097099 770563943 -2029716753 1411268092 -2076771109 -949847339 -1404481941 966063906 699241345 1647652158 463752228 402698551 476408388 662818934 -674086134 698166591 -482462181 -2038664852 1345470162 1576509248 -1967254953
REM
CELL 1.54180   50.00000   50.00000   50.00000   90.00000   90.00000   90.00000
LATT -1
SFAC C  
C      1  0.5613980000000  0.5144100000000  0.4685370000000 1.0
C      1  0.5527410000000  0.5134800000000  0.5297100000000 1.0
C      1  0.5453990000000  0.4471070000000  0.4662080000000 1.0
C      1  0.5427240000000  0.4376270000000  0.5420210000000 1.0
C      1  0.4944940000000  0.4483730000000  0.5797580000000 1.0
C      1  0.4914410000000  0.4551280000000  0.4236150000000 1.0
C      1  0.4647800000000  0.4581960000000  0.4164420000000 1.0
C      1  0.4672990000000  0.4445230000000  0.5799660000000 1.0
C      1  0.4383360000000  0.5492320000000  0.5518060000000 1.0
C      1  0.4338410000000  0.5541030000000  0.4435540000000 1.0
C      1  0.5029590000000  0.5107710000000  0.5223310000000 1.0
C      1  0.5120780000000  0.5095550000000  0.4673240000000 1.0
C      1  0.5284820000000  0.4643440000000  0.5486560000000 1.0
C      1  0.5203580000000  0.4695000000000  0.4679980000000 1.0
C      1  0.5020660000000  0.4731520000000  0.5627880000000 1.0
C      1  0.5005130000000  0.4765040000000  0.4468630000000 1.0
C      1  0.5225830000000  0.5915430000000  0.5263390000000 1.0
C      1  0.5214960000000  0.5916810000000  0.4699930000000 1.0
C      1  0.5478030000000  0.5423080000000  0.5445700000000 1.0
C      1  0.5537280000000  0.5420070000000  0.4542380000000 1.0
C      1  0.4700880000000  0.5408440000000  0.4581280000000 1.0
C      1  0.4682140000000  0.5711150000000  0.5368290000000 1.0
C      1  0.4497020000000  0.5321020000000  0.4253160000000 1.0
C      1  0.4569910000000  0.5349760000000  0.5741790000000 1.0
C      1  0.4779910000000  0.4052550000000  0.5444700000000 1.0
C      1  0.4752660000000  0.4031330000000  0.4491920000000 1.0
C      1  0.5319580000000  0.4191410000000  0.4686770000000 1.0
C      1  0.5451570000000  0.4141270000000  0.5284830000000 1.0
C      1  0.4550840000000  0.4237600000000  0.5431420000000 1.0
C      1  0.4558410000000  0.4263770000000  0.4486980000000 1.0
C      1  0.4807690000000  0.5433660000000  0.4228150000000 1.0
C      1  0.4879280000000  0.5463670000000  0.5734270000000 1.0
C      1  0.5309440000000  0.5062770000000  0.4033540000000 1.0
C      1  0.5323160000000  0.5163210000000  0.6063810000000 1.0
C      1  0.4298760000000  0.5583080000000  0.5303530000000 1.0
C      1  0.4256030000000  0.5648000000000  0.4644460000000 1.0
C      1  0.5360120000000  0.5371110000000  0.4264060000000 1.0
C      1  0.5449470000000  0.5358500000000  0.5742830000000 1.0
C      1  0.5403710000000  0.5021830000000  0.5766650000000 1.0
C      1  0.5261250000000  0.5057680000000  0.4375720000000 1.0
C      1  0.4157320000000  0.4961110000000  0.5574480000000 1.0
C      1  0.4058940000000  0.5044310000000  0.4482410000000 1.0
C      1  0.5744100000000  0.5003820000000  0.4057260000000 1.0
C      1  0.5848460000000  0.4956340000000  0.5828770000000 1.0
C      1  0.5652070000000  0.4668210000000  0.4480180000000 1.0
C      1  0.5675980000000  0.4603350000000  0.5426850000000 1.0
C      1  0.4345450000000  0.4833320000000  0.5723400000000 1.0
C      1  0.4172370000000  0.4876900000000  0.4298170000000 1.0
C      1  0.5051410000000  0.4185390000000  0.4533770000000 1.0
C      1  0.5052670000000  0.4238540000000  0.5429430000000 1.0
C      1  0.5148590000000  0.5680360000000  0.5385570000000 1.0
C      1  0.5117790000000  0.5689610000000  0.4575920000000 1.0
C      1  0.4829170000000  0.4868220000000  0.3953470000000 1.0
C      1  0.4932890000000  0.4907930000000  0.6091820000000 1.0
C      1  0.5492160000000  0.4885520000000  0.5500380000000 1.0
C      1  0.5482540000000  0.4867550000000  0.4676920000000 1.0
C      1  0.4976140000000  0.4962310000000  0.4207820000000 1.0
C      1  0.5080780000000  0.4960350000000  0.5822120000000 1.0
C      1  0.4813760000000  0.5111620000000  0.4648720000000 1.0
C      1  0.4763450000000  0.5103520000000  0.5342100000000 1.0
C      1  0.5321990000000  0.4147010000000  0.5859250000000 1.0
C      1  0.5181750000000  0.4176900000000  0.4037490000000 1.0
C      1  0.5062870000000  0.4309910000000  0.4247300000000 1.0
C      1  0.5127760000000  0.4278010000000  0.5717760000000 1.0
C      1  0.4493910000000  0.5184570000000  0.5245960000000 1.0
C      1  0.4454730000000  0.5317050000000  0.4745870000000 1.0
C      1  0.5121960000000  0.5299050000000  0.5818580000000 1.0
C      1  0.5058560000000  0.5284900000000  0.4126670000000 1.0
C      1  0.5794790000000  0.5137160000000  0.4425550000000 1.0
C      1  0.5822340000000  0.5107920000000  0.5461550000000 1.0
C      1  0.4582280000000  0.4896960000000  0.3915080000000 1.0
C      1  0.4683390000000  0.4942790000000  0.6109140000000 1.0
C      1  0.4798900000000  0.4418240000000  0.5290260000000 1.0
C      1  0.4813000000000  0.4368100000000  0.4693310000000 1.0
C      1  0.5661290000000  0.5283500000000  0.4181670000000 1.0
C      1  0.5745610000000  0.5227730000000  0.5770850000000 1.0
C      1  0.4592530000000  0.5042460000000  0.4428860000000 1.0
C      1  0.4759200000000  0.5101880000000  0.5621540000000 1.0
C      1  0.5202600000000  0.5374000000000  0.5300060000000 1.0
C      1  0.5239190000000  0.5413060000000  0.4640740000000 1.0
C      1  0.4454810000000  0.4724350000000  0.4405730000000 1.0
C      1  0.4490950000000  0.4602160000000  0.5583470000000 1.0
C      1  0.4414610000000  0.5017400000000  0.4136660000000 1.0
C      1  0.4535750000000  0.5030350000000  0.5856830000000 1.0
C      1  0.4868650000000  0.5650610000000  0.4458290000000 1.0
C      1  0.4905040000000  0.5666390000000  0.5535910000000 1.0
C      1  0.5814290000000  0.4833340000000  0.4317650000000 1.0
C      1  0.5871430000000  0.4796070000000  0.5581050000000 1.0
C      1  0.5672860000000  0.5643050000000  0.4656130000000 1.0
C      1  0.5630020000000  0.5637300000000  0.5333470000000 1.0
C      1  0.4126960000000  0.4316430000000  0.4674820000000 1.0
C      1  0.4120880000000  0.4298410000000  0.5208810000000 1.0
C      1  0.4225270000000  0.5207710000000  0.4624100000000 1.0
C      1  0.4255680000000  0.5135330000000  0.5391300000000 1.0
C      1  0.4737200000000  0.4649300000000  0.4581090000000 1.0
C      1  0.4777000000000  0.4706860000000  0.5427730000000 1.0
C      1  0.4324900000000  0.4425320000000  0.4507030000000 1.0
C      1  0.4298190000000  0.4386500000000  0.5403550000000 1.0
C      1  0.4764740000000  0.4322190000000  0.5000350000000 1.0
C      1  0.4687110000000  0.3849500000000  0.4704760000000 1.0
C      1  0.5018670000000  0.5688010000000  0.4962540000000 1.0
C      1  0.4267180000000  0.5961610000000  0.4890600000000 1.0
C      1  0.5931460000000  0.4636950000000  0.5110130000000 1.0
C      1  0.4493400000000  0.4046170000000  0.4904700000000 1.0
C      1  0.4461960000000  0.4387780000000  0.4880740000000 1.0
C      1  0.5322670000000  0.6060800000000  0.4983180000000 1.0
C      1  0.5079060000000  0.4628500000000  0.4984510000000 1.0
C      1  0.5647110000000  0.5674830000000  0.4995480000000 1.0
C      1  0.4875310000000  0.5372570000000  0.4969410000000 1.0
C      1  0.4158980000000  0.5129970000000  0.5008050000000 1.0
C      1  0.6213270000000  0.4464610000000  0.5081250000000 1.0
C      1  0.5678310000000  0.3933410000000  0.5031720000000 1.0
C      1  0.4852470000000  0.5909240000000  0.4918590000000 1.0
C      1  0.3985940000000  0.4668620000000  0.4800310000000 1.0
C      1  0.6231330000000  0.4786980000000  0.5085280000000 1.0
C      1  0.5112860000000  0.4010840000000  0.5116110000000 1.0
C      1  0.4188790000000  0.4105970000000  0.4935710000000 1.0
C      1  0.5455200000000  0.4783190000000  0.4985000000000 1.0
C      1  0.5807460000000  0.5377630000000  0.4988170000000 1.0
C      1  0.5215090000000  0.3712480000000  0.4980020000000 1.0
C      1  0.4945940000000  0.6402260000000  0.4918850000000 1.0
C      1  0.3700650000000  0.4529440000000  0.4901550000000 1.0
C      1  0.5499490000000  0.3689500000000  0.4967740000000 1.0
C      1  0.5735450000000  0.4868460000000  0.5085260000000 1.0
C      1  0.5442870000000  0.4464940000000  0.5003150000000 1.0
C      1  0.4576800000000  0.4692600000000  0.4965570000000 1.0
C      1  0.5327660000000  0.5658880000000  0.4979220000000 1.0
C      1  0.4947130000000  0.3774280000000  0.4846730000000 1.0
C      1  0.5718250000000  0.4406620000000  0.5149880000000 1.0
C      1  0.4209800000000  0.5654540000000  0.4981890000000 1.0
C      1  0.5897980000000  0.5123620000000  0.5149510000000 1.0
C      1  0.3772790000000  0.5527230000000  0.5241390000000 1.0
C      1  0.4727290000000  0.5061340000000  0.4946670000000 1.0
C      1  0.4483420000000  0.6226560000000  0.4867380000000 1.0
C      1  0.6369560000000  0.5643990000000  0.4999100000000 1.0
C      1  0.5858240000000  0.4136510000000  0.5089750000000 1.0
C      1  0.6074050000000  0.5505890000000  0.4924150000000 1.0
C      1  0.3845640000000  0.5096700000000  0.5036110000000 1.0
C      1  0.3912550000000  0.4303550000000  0.4938990000000 1.0
C      1  0.4756010000000  0.6196050000000  0.4891710000000 1.0
C      1  0.3658630000000  0.5284300000000  0.5188010000000 1.0
C      1  0.4173920000000  0.6284160000000  0.4839340000000 1.0
C      1  0.3771350000000  0.4831230000000  0.4969710000000 1.0
C      1  0.5386850000000  0.4071940000000  0.4955530000000 1.0
C      1  0.4480410000000  0.5363340000000  0.5024020000000 1.0
C      1  0.4647750000000  0.5606650000000  0.5081150000000 1.0
C      1  0.4273520000000  0.4665310000000  0.4822800000000 1.0
C      1  0.5522700000000  0.5194010000000  0.4993690000000 1.0
C      1  0.4396450000000  0.4966070000000  0.4926510000000 1.0
C      1  0.6200890000000  0.5064690000000  0.5095320000000 1.0
C      1  0.5155510000000  0.4351150000000  0.5123370000000 1.0
C      1  0.5162050000000  0.4953630000000  0.4979540000000 1.0
C      1  0.5654550000000  0.6145750000000  0.4990630000000 1.0
C      1  0.5220930000000  0.5345940000000  0.4967350000000 1.0
C      1  0.5513300000000  0.6410930000000  0.4983040000000 1.0
C      1  0.4558080000000  0.5835320000000  0.4893890000000 1.0
C      1  0.6142280000000  0.4187440000000  0.5077790000000 1.0
C      1  0.5215600000000  0.6376360000000  0.4968010000000 1.0
C      1  0.6092960000000  0.5833520000000  0.4989690000000 1.0
C      1  0.6323020000000  0.5311470000000  0.5028490000000 1.0
C      1  0.4797950000000  0.4005910000000  0.5050400000000 1.0
C      1  0.4827780000000  0.4779470000000  0.5112200000000 1.0
C      1  0.5830550000000  0.5936060000000  0.4996170000000 1.0
C      1  0.4023230000000  0.5416950000000  0.5069710000000 1.0
END
