TITL C-2782228-2999-1059 -0.00080678569535805 125000 -585.320460068797 0 0 101 (C1) n - 1
REM
REM in /home/nfs/bkarasulu/CARBON/AIRSS/Generating-Clusters/REBO/Higher-Symm/SD-CG/HFTN-CG
REM
REM
REM
REM
REM
REM ./C.cell (12c818d87b63d06a65506943cc24bca4)
REM
REM compiler GCC version 9.2.1 20190827 (Red Hat 9.2.1-1)
REM options -cpp -mtune=generic -march=x86-64 -g -O0 -fpre-include=/usr/include/finclude/math-vector-fortran.h
REM seed 1414785142 -1975952512 1289410110 314476497 -457954661 945633411 -2043890839 1656427820 -24146934 -603681690 1628205595 -2066612738 1225675259 -578748258 -392982845 -350879637 1857627962 -207182171 435237134 -141139363 -1483659545 107610098 1791166203 -1607028934 1577423903 -1310789748 1292971095 -243117340 -1566639089 -280073367 373184094 510818655 -543401848
REM
CELL 1.54180   50.00000   50.00000   50.00000   90.00000   90.00000   90.00000
LATT -1
SFAC C  
C      1  0.4420680000000  0.4418990000000  0.4933520000000 1.0
C      1  0.4414420000000  0.5596890000000  0.5094520000000 1.0
C      1  0.4270190000000  0.4721260000000  0.4898130000000 1.0
C      1  0.4236350000000  0.5307780000000  0.5118910000000 1.0
C      1  0.5165830000000  0.5269190000000  0.5056210000000 1.0
C      1  0.5186540000000  0.4734320000000  0.4925610000000 1.0
C      1  0.5107820000000  0.5251400000000  0.4286170000000 1.0
C      1  0.5086200000000  0.4717780000000  0.5717330000000 1.0
C      1  0.4468270000000  0.5041260000000  0.4435250000000 1.0
C      1  0.4488860000000  0.4929390000000  0.5569670000000 1.0
C      1  0.4366980000000  0.5524380000000  0.5424680000000 1.0
C      1  0.4385580000000  0.4486730000000  0.4599910000000 1.0
C      1  0.4779380000000  0.4876290000000  0.5441880000000 1.0
C      1  0.4776320000000  0.5166360000000  0.4490970000000 1.0
C      1  0.4411410000000  0.5438210000000  0.4791060000000 1.0
C      1  0.4357080000000  0.4550490000000  0.5245470000000 1.0
C      1  0.4770120000000  0.4717400000000  0.4711050000000 1.0
C      1  0.4741820000000  0.5297970000000  0.5279490000000 1.0
C      1  0.5112300000000  0.5575330000000  0.5555640000000 1.0
C      1  0.5123240000000  0.4393290000000  0.4446200000000 1.0
C      1  0.5369780000000  0.5457890000000  0.4275070000000 1.0
C      1  0.5351920000000  0.4519500000000  0.5727090000000 1.0
C      1  0.4652620000000  0.5190370000000  0.5714310000000 1.0
C      1  0.4660900000000  0.4809370000000  0.4277290000000 1.0
C      1  0.4495080000000  0.4854900000000  0.4701490000000 1.0
C      1  0.4472880000000  0.5156690000000  0.5314460000000 1.0
C      1  0.4756480000000  0.4407430000000  0.5276020000000 1.0
C      1  0.4708530000000  0.5684220000000  0.4700530000000 1.0
C      1  0.4947000000000  0.5639240000000  0.4488450000000 1.0
C      1  0.4938810000000  0.4322180000000  0.5511680000000 1.0
C      1  0.4661730000000  0.5521930000000  0.4349960000000 1.0
C      1  0.4679420000000  0.4464870000000  0.5662220000000 1.0
C      1  0.5794880000000  0.4655350000000  0.4792960000000 1.0
C      1  0.5801310000000  0.5342950000000  0.5205730000000 1.0
C      1  0.4806070000000  0.5640550000000  0.5619000000000 1.0
C      1  0.4812960000000  0.4349650000000  0.4381870000000 1.0
C      1  0.5790600000000  0.4428900000000  0.5015710000000 1.0
C      1  0.5780340000000  0.5565840000000  0.4982860000000 1.0
C      1  0.5279510000000  0.5186180000000  0.4782760000000 1.0
C      1  0.5271610000000  0.4815180000000  0.5218770000000 1.0
C      1  0.5444890000000  0.5040530000000  0.5543290000000 1.0
C      1  0.5456460000000  0.4924220000000  0.4441940000000 1.0
C      1  0.4183370000000  0.5193680000000  0.4822300000000 1.0
C      1  0.4156350000000  0.4774310000000  0.5189060000000 1.0
C      1  0.5613520000000  0.4980400000000  0.4707700000000 1.0
C      1  0.5616460000000  0.5002340000000  0.5293780000000 1.0
C      1  0.5547300000000  0.4421470000000  0.4778020000000 1.0
C      1  0.5539800000000  0.5562010000000  0.5223370000000 1.0
C      1  0.4586600000000  0.5476870000000  0.5601620000000 1.0
C      1  0.4599500000000  0.4519130000000  0.4408610000000 1.0
C      1  0.4950700000000  0.4904000000000  0.4533470000000 1.0
C      1  0.4949580000000  0.5131510000000  0.5453940000000 1.0
C      1  0.4487590000000  0.4603540000000  0.5496670000000 1.0
C      1  0.4434550000000  0.5372550000000  0.4476430000000 1.0
C      1  0.4737270000000  0.5351630000000  0.4734090000000 1.0
C      1  0.4785570000000  0.4686720000000  0.5238540000000 1.0
C      1  0.4892140000000  0.4205850000000  0.4893020000000 1.0
C      1  0.4894820000000  0.5800100000000  0.5103520000000 1.0
C      1  0.4889580000000  0.4748250000000  0.4990520000000 1.0
C      1  0.4867400000000  0.5281250000000  0.4992480000000 1.0
C      1  0.4166390000000  0.4997250000000  0.5351080000000 1.0
C      1  0.4108470000000  0.4996950000000  0.4659060000000 1.0
C      1  0.4985550000000  0.4452350000000  0.4727270000000 1.0
C      1  0.4975890000000  0.5547990000000  0.5269210000000 1.0
C      1  0.5230050000000  0.4319830000000  0.5238550000000 1.0
C      1  0.5239100000000  0.5673820000000  0.4756610000000 1.0
C      1  0.5441940000000  0.5578010000000  0.5514010000000 1.0
C      1  0.5452500000000  0.4389680000000  0.4487540000000 1.0
C      1  0.5501070000000  0.5191050000000  0.4275170000000 1.0
C      1  0.5479160000000  0.4784480000000  0.5717690000000 1.0
C      1  0.5263530000000  0.5562950000000  0.5077280000000 1.0
C      1  0.5270840000000  0.4435670000000  0.4921280000000 1.0
C      1  0.5104390000000  0.5900830000000  0.4936790000000 1.0
C      1  0.5103850000000  0.4096680000000  0.5050670000000 1.0
C      1  0.4648370000000  0.5767910000000  0.4970030000000 1.0
C      1  0.4667370000000  0.4276400000000  0.5044750000000 1.0
C      1  0.4808800000000  0.5316370000000  0.4175160000000 1.0
C      1  0.4801270000000  0.4634710000000  0.5857110000000 1.0
C      1  0.5193140000000  0.3836300000000  0.5055580000000 1.0
C      1  0.5181530000000  0.6164260000000  0.4910760000000 1.0
C      1  0.5915430000000  0.4956900000000  0.4857740000000 1.0
C      1  0.5914380000000  0.5046000000000  0.5147660000000 1.0
C      1  0.4990280000000  0.5250560000000  0.5754090000000 1.0
C      1  0.4997290000000  0.4721820000000  0.4259940000000 1.0
C      1  0.5209650000000  0.5110580000000  0.5307920000000 1.0
C      1  0.5222390000000  0.4903810000000  0.4676570000000 1.0
C      1  0.5149010000000  0.5382250000000  0.4598060000000 1.0
C      1  0.5142040000000  0.4606660000000  0.5400580000000 1.0
C      1  0.5849640000000  0.5479350000000  0.4725930000000 1.0
C      1  0.5866390000000  0.4516280000000  0.5269420000000 1.0
C      1  0.4150250000000  0.4705180000000  0.4580360000000 1.0
C      1  0.4130040000000  0.5311490000000  0.5442180000000 1.0
C      1  0.5274440000000  0.5707390000000  0.4417950000000 1.0
C      1  0.5262700000000  0.4278300000000  0.5575910000000 1.0
C      1  0.4908920000000  0.5009090000000  0.4149850000000 1.0
C      1  0.4872970000000  0.4952970000000  0.5823090000000 1.0
C      1  0.5862030000000  0.4777320000000  0.5338620000000 1.0
C      1  0.5850090000000  0.5217590000000  0.4659640000000 1.0
C      1  0.5309540000000  0.4659550000000  0.4339970000000 1.0
C      1  0.5297700000000  0.5303350000000  0.5647160000000 1.0
C      1  0.5463560000000  0.5007660000000  0.5007930000000 1.0
END
