TITL C-2782240-8521-727 0.000529496939984333 125000 -423.997213139322 0 0 76 (C1) n - 1
REM
REM in /home/nfs/bkarasulu/CARBON/AIRSS/Generating-Clusters/REBO/Higher-Symm/SD-CG/HFTN-CG
REM
REM
REM
REM
REM
REM ./C.cell (12c818d87b63d06a65506943cc24bca4)
REM
REM compiler GCC version 9.2.1 20190827 (Red Hat 9.2.1-1)
REM options -cpp -mtune=generic -march=x86-64 -g -O0 -fpre-include=/usr/include/finclude/math-vector-fortran.h
REM seed 1534339663 1178928118 -1219718796 -1246331193 199058765 175178348 1890798386 1283526974 1475653534 -491140055 -411654195 -1972100100 -1021944544 -40333651 -1924108420 1066531221 1388460534 1022064416 867008013 -1101025218 955401539 689765389 -221106197 967706854 -500373766 1810562225 1402596202 700499886 -431587588 898289778 1406785666 -639509884 -1057686386
REM
CELL 1.54180   50.00000   50.00000   50.00000   90.00000   90.00000   90.00000
LATT -1
SFAC C  
C      1  0.4100670000000  0.4897990000000  0.4688400000000 1.0
C      1  0.5551230000000  0.4272830000000  0.4754330000000 1.0
C      1  0.5337230000000  0.5699560000000  0.4641200000000 1.0
C      1  0.4844690000000  0.4909620000000  0.4239860000000 1.0
C      1  0.5183400000000  0.4873090000000  0.4258030000000 1.0
C      1  0.5038380000000  0.5180840000000  0.4269480000000 1.0
C      1  0.5685550000000  0.4963810000000  0.4571790000000 1.0
C      1  0.4718030000000  0.5524700000000  0.4538260000000 1.0
C      1  0.4694560000000  0.4426130000000  0.4567360000000 1.0
C      1  0.4865760000000  0.5230020000000  0.4527580000000 1.0
C      1  0.4860600000000  0.4710490000000  0.4480550000000 1.0
C      1  0.5359210000000  0.5001920000000  0.4480890000000 1.0
C      1  0.4506780000000  0.5334950000000  0.4665260000000 1.0
C      1  0.4989140000000  0.4438300000000  0.4740250000000 1.0
C      1  0.5591850000000  0.5272290000000  0.4653250000000 1.0
C      1  0.5441490000000  0.4565960000000  0.5147750000000 1.0
C      1  0.5189350000000  0.5648730000000  0.5132350000000 1.0
C      1  0.4310020000000  0.4797370000000  0.5117280000000 1.0
C      1  0.5789530000000  0.4937530000000  0.5055150000000 1.0
C      1  0.4677200000000  0.5639850000000  0.4988010000000 1.0
C      1  0.4588200000000  0.4378310000000  0.5035920000000 1.0
C      1  0.4551890000000  0.4989190000000  0.4206610000000 1.0
C      1  0.5274370000000  0.4582220000000  0.4289240000000 1.0
C      1  0.5219520000000  0.5424290000000  0.4245980000000 1.0
C      1  0.4807190000000  0.4330630000000  0.5566730000000 1.0
C      1  0.5658500000000  0.5217310000000  0.5597750000000 1.0
C      1  0.4532750000000  0.5564180000000  0.5620120000000 1.0
C      1  0.4882780000000  0.5589510000000  0.5219550000000 1.0
C      1  0.4575360000000  0.4645280000000  0.5232310000000 1.0
C      1  0.5524920000000  0.4844880000000  0.5227880000000 1.0
C      1  0.4596060000000  0.4880520000000  0.5555090000000 1.0
C      1  0.5277800000000  0.4629120000000  0.5629120000000 1.0
C      1  0.5273880000000  0.5399550000000  0.5604880000000 1.0
C      1  0.4403810000000  0.4970220000000  0.5388060000000 1.0
C      1  0.5327500000000  0.4453910000000  0.5421750000000 1.0
C      1  0.5371300000000  0.5524850000000  0.5385220000000 1.0
C      1  0.4906360000000  0.5278260000000  0.5321900000000 1.0
C      1  0.4860770000000  0.4821050000000  0.5142330000000 1.0
C      1  0.5248290000000  0.5007850000000  0.5287480000000 1.0
C      1  0.5536500000000  0.5095910000000  0.4918000000000 1.0
C      1  0.4479540000000  0.5434410000000  0.4936890000000 1.0
C      1  0.4787680000000  0.4625990000000  0.4898910000000 1.0
C      1  0.5088440000000  0.4221070000000  0.4931320000000 1.0
C      1  0.5518940000000  0.5726350000000  0.5074980000000 1.0
C      1  0.4112230000000  0.5076100000000  0.5141780000000 1.0
C      1  0.4844330000000  0.4827240000000  0.5462380000000 1.0
C      1  0.5125170000000  0.4895020000000  0.5569010000000 1.0
C      1  0.5070690000000  0.5218920000000  0.5573860000000 1.0
C      1  0.4466170000000  0.5675120000000  0.5840090000000 1.0
C      1  0.4775530000000  0.4214100000000  0.5799310000000 1.0
C      1  0.5765270000000  0.5263040000000  0.5824980000000 1.0
C      1  0.5759970000000  0.4791060000000  0.4786390000000 1.0
C      1  0.4830010000000  0.5685450000000  0.4747310000000 1.0
C      1  0.4472090000000  0.4427130000000  0.4754630000000 1.0
C      1  0.4612210000000  0.5431750000000  0.5357570000000 1.0
C      1  0.4840180000000  0.4452050000000  0.5324400000000 1.0
C      1  0.5532410000000  0.5163310000000  0.5329410000000 1.0
C      1  0.4321020000000  0.4716060000000  0.4804880000000 1.0
C      1  0.5564710000000  0.4548770000000  0.4859110000000 1.0
C      1  0.5112800000000  0.5584580000000  0.4819660000000 1.0
C      1  0.4906370000000  0.4007700000000  0.4966890000000 1.0
C      1  0.5651580000000  0.5898680000000  0.5247960000000 1.0
C      1  0.3901030000000  0.5073080000000  0.5327400000000 1.0
C      1  0.5112740000000  0.4402480000000  0.5189870000000 1.0
C      1  0.5542140000000  0.5400950000000  0.5123190000000 1.0
C      1  0.4383210000000  0.5255300000000  0.5242230000000 1.0
C      1  0.5538420000000  0.5783880000000  0.4771270000000 1.0
C      1  0.4022040000000  0.5086220000000  0.4839700000000 1.0
C      1  0.5360640000000  0.4124240000000  0.4820620000000 1.0
C      1  0.5176410000000  0.4643170000000  0.4585060000000 1.0
C      1  0.5286820000000  0.5312960000000  0.4552290000000 1.0
C      1  0.4592860000000  0.5052930000000  0.4530980000000 1.0
C      1  0.4611760000000  0.4795450000000  0.4695410000000 1.0
C      1  0.5364510000000  0.4839390000000  0.4773500000000 1.0
C      1  0.5058000000000  0.5257830000000  0.4798520000000 1.0
C      1  0.5014660000000  0.5099920000000  0.5066990000000 1.0
END
