TITL C-2782232-2968-1292 -0.000658240409663392 125000 -583.776729288433 0 0 100 (C1) n - 1
REM
REM in /home/nfs/bkarasulu/CARBON/AIRSS/Generating-Clusters/REBO/Higher-Symm/SD-CG/HFTN-CG
REM
REM
REM
REM
REM
REM ./C.cell (12c818d87b63d06a65506943cc24bca4)
REM
REM compiler GCC version 9.2.1 20190827 (Red Hat 9.2.1-1)
REM options -cpp -mtune=generic -march=x86-64 -g -O0 -fpre-include=/usr/include/finclude/math-vector-fortran.h
REM seed -2084984818 2132637085 -2071462639 210774492 588506110 -1116455446 -1872712187 -233737426 1307249322 -548545516 -632895107 -603581890 1155577541 328964438 -586684112 -669303678 -1276056926 -1260418773 141238784 977519454 994536600 -1326177275 1879998817 -1717836200 -2146512353 -1125942938 -1079189642 -1279814861 -1082992699 383218196 -1695185655 -469097038 1656705309
REM
CELL 1.54180   50.00000   50.00000   50.00000   90.00000   90.00000   90.00000
LATT -1
SFAC C  
C      1  0.4121820000000  0.5645330000000  0.5022720000000 1.0
C      1  0.5666530000000  0.5008860000000  0.5513530000000 1.0
C      1  0.5118620000000  0.4749840000000  0.5400030000000 1.0
C      1  0.5875960000000  0.5011240000000  0.5250400000000 1.0
C      1  0.4897820000000  0.4387080000000  0.4449430000000 1.0
C      1  0.4821080000000  0.4736640000000  0.5133630000000 1.0
C      1  0.4572590000000  0.5032900000000  0.5235610000000 1.0
C      1  0.5485940000000  0.4559090000000  0.5415920000000 1.0
C      1  0.4948730000000  0.4168800000000  0.4904470000000 1.0
C      1  0.5401780000000  0.4252010000000  0.4571750000000 1.0
C      1  0.4261320000000  0.5025550000000  0.5085640000000 1.0
C      1  0.5139510000000  0.5427200000000  0.4365390000000 1.0
C      1  0.5069880000000  0.4875050000000  0.4219720000000 1.0
C      1  0.4376180000000  0.5177100000000  0.4548150000000 1.0
C      1  0.5126090000000  0.5573350000000  0.4666940000000 1.0
C      1  0.4620750000000  0.5726440000000  0.4719400000000 1.0
C      1  0.4949540000000  0.5703420000000  0.5165510000000 1.0
C      1  0.4826200000000  0.5170400000000  0.4811280000000 1.0
C      1  0.4850270000000  0.4133300000000  0.5363310000000 1.0
C      1  0.4296900000000  0.4729970000000  0.5252250000000 1.0
C      1  0.4511470000000  0.4970440000000  0.4393960000000 1.0
C      1  0.4903590000000  0.5784740000000  0.4777230000000 1.0
C      1  0.5776550000000  0.5328050000000  0.5174050000000 1.0
C      1  0.4360720000000  0.4615260000000  0.4875290000000 1.0
C      1  0.5074180000000  0.4163240000000  0.4594410000000 1.0
C      1  0.5369830000000  0.5436460000000  0.5411000000000 1.0
C      1  0.3850890000000  0.5736410000000  0.5426040000000 1.0
C      1  0.5310760000000  0.5424090000000  0.4852660000000 1.0
C      1  0.4999610000000  0.5152020000000  0.5633320000000 1.0
C      1  0.5144910000000  0.5132370000000  0.4830410000000 1.0
C      1  0.5660060000000  0.5564510000000  0.4980510000000 1.0
C      1  0.5182070000000  0.4445830000000  0.4731370000000 1.0
C      1  0.5593440000000  0.4807450000000  0.4297310000000 1.0
C      1  0.5556800000000  0.5107630000000  0.5034370000000 1.0
C      1  0.4658470000000  0.4452190000000  0.4592900000000 1.0
C      1  0.4570850000000  0.4803370000000  0.4981020000000 1.0
C      1  0.5611710000000  0.5443540000000  0.4708990000000 1.0
C      1  0.4636600000000  0.4326080000000  0.5401740000000 1.0
C      1  0.4209600000000  0.5953630000000  0.5118810000000 1.0
C      1  0.4818340000000  0.5354820000000  0.4316300000000 1.0
C      1  0.4554590000000  0.5464250000000  0.4511210000000 1.0
C      1  0.4808710000000  0.4789830000000  0.5452060000000 1.0
C      1  0.5081330000000  0.4750060000000  0.4688560000000 1.0
C      1  0.5514270000000  0.4229020000000  0.4978760000000 1.0
C      1  0.4863940000000  0.5428560000000  0.5291960000000 1.0
C      1  0.4811760000000  0.5047520000000  0.4294800000000 1.0
C      1  0.5658070000000  0.5297370000000  0.4471990000000 1.0
C      1  0.4317350000000  0.4787190000000  0.5523590000000 1.0
C      1  0.4373890000000  0.5366030000000  0.4909230000000 1.0
C      1  0.4868110000000  0.4426870000000  0.5092930000000 1.0
C      1  0.4662170000000  0.4942420000000  0.5906680000000 1.0
C      1  0.5648270000000  0.4542630000000  0.4975550000000 1.0
C      1  0.4096660000000  0.5311630000000  0.5085620000000 1.0
C      1  0.5287320000000  0.5171810000000  0.4546350000000 1.0
C      1  0.5522680000000  0.5031180000000  0.4747760000000 1.0
C      1  0.3989030000000  0.5976880000000  0.5378690000000 1.0
C      1  0.4643350000000  0.4326740000000  0.4878630000000 1.0
C      1  0.4702350000000  0.4515930000000  0.5598760000000 1.0
C      1  0.4808230000000  0.4657220000000  0.5837890000000 1.0
C      1  0.4559350000000  0.4887370000000  0.5627380000000 1.0
C      1  0.5313720000000  0.4573100000000  0.4990260000000 1.0
C      1  0.5470300000000  0.5088960000000  0.5722820000000 1.0
C      1  0.5796800000000  0.5641820000000  0.5589250000000 1.0
C      1  0.5223810000000  0.4998990000000  0.5219580000000 1.0
C      1  0.5122870000000  0.4211690000000  0.5328700000000 1.0
C      1  0.5514100000000  0.4849070000000  0.5257870000000 1.0
C      1  0.4837770000000  0.4921260000000  0.4614220000000 1.0
C      1  0.4647790000000  0.5588420000000  0.5093510000000 1.0
C      1  0.5870010000000  0.4779280000000  0.4742370000000 1.0
C      1  0.5047550000000  0.4871160000000  0.4994180000000 1.0
C      1  0.4174650000000  0.4753080000000  0.4718130000000 1.0
C      1  0.4211890000000  0.5043670000000  0.4748400000000 1.0
C      1  0.5167410000000  0.5802580000000  0.4991910000000 1.0
C      1  0.5473890000000  0.4726130000000  0.4746840000000 1.0
C      1  0.5306760000000  0.4871520000000  0.5834080000000 1.0
C      1  0.4632020000000  0.5257840000000  0.5014970000000 1.0
C      1  0.5764450000000  0.5002160000000  0.4510720000000 1.0
C      1  0.4851580000000  0.5414630000000  0.4637850000000 1.0
C      1  0.5445240000000  0.5750990000000  0.5039110000000 1.0
C      1  0.5647240000000  0.4347820000000  0.4527200000000 1.0
C      1  0.5266770000000  0.5281710000000  0.5626700000000 1.0
C      1  0.5283090000000  0.4132970000000  0.4958200000000 1.0
C      1  0.5424440000000  0.4280980000000  0.5366690000000 1.0
C      1  0.4999380000000  0.4937550000000  0.5874810000000 1.0
C      1  0.5411460000000  0.5283330000000  0.4254090000000 1.0
C      1  0.4577580000000  0.4717070000000  0.4555680000000 1.0
C      1  0.5332270000000  0.4692690000000  0.4459900000000 1.0
C      1  0.3913510000000  0.5534060000000  0.5255140000000 1.0
C      1  0.5855430000000  0.4803660000000  0.5046330000000 1.0
C      1  0.4473980000000  0.4454010000000  0.5149980000000 1.0
C      1  0.4426290000000  0.5758250000000  0.4964950000000 1.0
C      1  0.5648210000000  0.5494270000000  0.5411540000000 1.0
C      1  0.5145040000000  0.4519020000000  0.5212140000000 1.0
C      1  0.4143530000000  0.6238110000000  0.5292860000000 1.0
C      1  0.5339980000000  0.4978400000000  0.4182370000000 1.0
C      1  0.5301460000000  0.5301210000000  0.5155570000000 1.0
C      1  0.5765410000000  0.4604640000000  0.4503650000000 1.0
C      1  0.5046310000000  0.4590860000000  0.4323830000000 1.0
C      1  0.5310750000000  0.4668650000000  0.5641230000000 1.0
C      1  0.4815870000000  0.5188210000000  0.5417230000000 1.0
END
