TITL C-2782235-7892-976 0.330194060450489 125000 -821.521608180185 0 0 142 (C1) n - 1
REM
REM in /home/nfs/bkarasulu/CARBON/AIRSS/Generating-Clusters/REBO/Higher-Symm/SD-CG/HFTN-CG
REM
REM
REM
REM
REM
REM ./C.cell (12c818d87b63d06a65506943cc24bca4)
REM
REM compiler GCC version 9.2.1 20190827 (Red Hat 9.2.1-1)
REM options -cpp -mtune=generic -march=x86-64 -g -O0 -fpre-include=/usr/include/finclude/math-vector-fortran.h
REM seed -1338466226 -1916901630 1404348855 1879823487 -21328390 531337848 1660005497 -13167603 -2104795876 -1031183132 1536425628 746585850 894376284 -10588463 172795778 1802404723 1400069627 1198211070 -1186752588 217944347 -248920248 -1924100165 1360812609 -1220832731 672927246 2123332197 -217626067 -1450620574 767624813 -828301075 459773063 -2002380908 516641779
REM
CELL 1.54180   50.00000   50.00000   50.00000   90.00000   90.00000   90.00000
LATT -1
SFAC C  
C      1  0.5315940000000  0.4488920000000  0.5056890000000 1.0
C      1  0.4576960000000  0.5447750000000  0.4902240000000 1.0
C      1  0.4526500000000  0.4433000000000  0.4519510000000 1.0
C      1  0.5526750000000  0.5608680000000  0.5456900000000 1.0
C      1  0.5004410000000  0.4594310000000  0.4336160000000 1.0
C      1  0.5058100000000  0.5431180000000  0.5580710000000 1.0
C      1  0.5213250000000  0.4540870000000  0.5438680000000 1.0
C      1  0.4776840000000  0.5368450000000  0.4565810000000 1.0
C      1  0.5711520000000  0.5167210000000  0.5568410000000 1.0
C      1  0.4302460000000  0.4840540000000  0.4411280000000 1.0
C      1  0.4775790000000  0.5307240000000  0.5730000000000 1.0
C      1  0.5300590000000  0.4713320000000  0.4286520000000 1.0
C      1  0.5111550000000  0.4119810000000  0.4880930000000 1.0
C      1  0.4869640000000  0.5942340000000  0.5092120000000 1.0
C      1  0.5657630000000  0.4460690000000  0.5077300000000 1.0
C      1  0.4295260000000  0.5612460000000  0.4883150000000 1.0
C      1  0.4627510000000  0.4565010000000  0.4978230000000 1.0
C      1  0.5367410000000  0.5451120000000  0.5058490000000 1.0
C      1  0.4678380000000  0.4453390000000  0.5491730000000 1.0
C      1  0.5292480000000  0.5514700000000  0.4559640000000 1.0
C      1  0.4864880000000  0.5449590000000  0.5174110000000 1.0
C      1  0.5117390000000  0.4647110000000  0.4749070000000 1.0
C      1  0.5759290000000  0.4970970000000  0.4390700000000 1.0
C      1  0.4302130000000  0.5103740000000  0.5638980000000 1.0
C      1  0.5360270000000  0.4744030000000  0.5262960000000 1.0
C      1  0.4532510000000  0.5205710000000  0.4684990000000 1.0
C      1  0.5631940000000  0.5535090000000  0.4511570000000 1.0
C      1  0.4345230000000  0.4471380000000  0.5533060000000 1.0
C      1  0.4994150000000  0.6097270000000  0.4824460000000 1.0
C      1  0.4852710000000  0.3982610000000  0.5028920000000 1.0
C      1  0.4508690000000  0.5624240000000  0.4420930000000 1.0
C      1  0.5543130000000  0.4353830000000  0.5557700000000 1.0
C      1  0.6021190000000  0.4862100000000  0.4908020000000 1.0
C      1  0.3944570000000  0.5180380000000  0.5160920000000 1.0
C      1  0.5137530000000  0.5881390000000  0.5293260000000 1.0
C      1  0.4801890000000  0.4218060000000  0.4710390000000 1.0
C      1  0.4535680000000  0.4629830000000  0.5980630000000 1.0
C      1  0.5520420000000  0.5340980000000  0.4092540000000 1.0
C      1  0.5133760000000  0.5043670000000  0.4978170000000 1.0
C      1  0.4947090000000  0.4906040000000  0.5096110000000 1.0
C      1  0.5933780000000  0.4970630000000  0.4666100000000 1.0
C      1  0.4058040000000  0.5101640000000  0.5426320000000 1.0
C      1  0.5006370000000  0.4941390000000  0.4613340000000 1.0
C      1  0.5055450000000  0.4905450000000  0.5479880000000 1.0
C      1  0.6000640000000  0.4576260000000  0.4904410000000 1.0
C      1  0.3915730000000  0.5463730000000  0.5136790000000 1.0
C      1  0.4504540000000  0.4816550000000  0.5419970000000 1.0
C      1  0.5502300000000  0.5184680000000  0.4620130000000 1.0
C      1  0.5687910000000  0.5578080000000  0.5097620000000 1.0
C      1  0.4293050000000  0.4498180000000  0.4934380000000 1.0
C      1  0.5850380000000  0.4728170000000  0.5422110000000 1.0
C      1  0.4148510000000  0.5302650000000  0.4502690000000 1.0
C      1  0.5096280000000  0.5348420000000  0.4998330000000 1.0
C      1  0.4923740000000  0.4608040000000  0.5023090000000 1.0
C      1  0.5846340000000  0.5287140000000  0.5177240000000 1.0
C      1  0.4160240000000  0.4794090000000  0.4848630000000 1.0
C      1  0.5336730000000  0.5018110000000  0.5924410000000 1.0
C      1  0.4704720000000  0.4963760000000  0.4085080000000 1.0
C      1  0.4967060000000  0.5382280000000  0.4126150000000 1.0
C      1  0.5081760000000  0.4577950000000  0.5888050000000 1.0
C      1  0.4519610000000  0.5060380000000  0.4314130000000 1.0
C      1  0.5530960000000  0.4926840000000  0.5698150000000 1.0
C      1  0.5524280000000  0.4947250000000  0.5072360000000 1.0
C      1  0.4377380000000  0.5076840000000  0.5027640000000 1.0
C      1  0.5657420000000  0.5437420000000  0.5641670000000 1.0
C      1  0.4356590000000  0.4571430000000  0.4336810000000 1.0
C      1  0.4377000000000  0.5345250000000  0.4345600000000 1.0
C      1  0.5662170000000  0.4644730000000  0.5627430000000 1.0
C      1  0.5663410000000  0.4212520000000  0.4551630000000 1.0
C      1  0.4272510000000  0.5729930000000  0.5357350000000 1.0
C      1  0.4754530000000  0.5493780000000  0.4269160000000 1.0
C      1  0.5290200000000  0.4470530000000  0.5731410000000 1.0
C      1  0.4499020000000  0.4825760000000  0.4835440000000 1.0
C      1  0.5529120000000  0.5232250000000  0.5218890000000 1.0
C      1  0.6000630000000  0.5068110000000  0.5114700000000 1.0
C      1  0.3995670000000  0.4985770000000  0.4951130000000 1.0
C      1  0.5747830000000  0.4733120000000  0.5169790000000 1.0
C      1  0.4225320000000  0.5287100000000  0.4810820000000 1.0
C      1  0.5454260000000  0.4581030000000  0.4758570000000 1.0
C      1  0.4575960000000  0.5294290000000  0.5185490000000 1.0
C      1  0.5921920000000  0.5446170000000  0.4771960000000 1.0
C      1  0.4055440000000  0.4663150000000  0.5209130000000 1.0
C      1  0.5492540000000  0.4802600000000  0.4518440000000 1.0
C      1  0.4561680000000  0.5202510000000  0.5498740000000 1.0
C      1  0.4760130000000  0.5308490000000  0.6043510000000 1.0
C      1  0.5430150000000  0.4524520000000  0.4077860000000 1.0
C      1  0.4521370000000  0.5702730000000  0.5481390000000 1.0
C      1  0.5412930000000  0.4224000000000  0.4443620000000 1.0
C      1  0.5534530000000  0.4236840000000  0.5274010000000 1.0
C      1  0.4497600000000  0.5768710000000  0.4677780000000 1.0
C      1  0.4971960000000  0.4163940000000  0.4420250000000 1.0
C      1  0.4949270000000  0.5829080000000  0.5572660000000 1.0
C      1  0.5575910000000  0.5449130000000  0.5916870000000 1.0
C      1  0.4428040000000  0.4557920000000  0.4059180000000 1.0
C      1  0.5778910000000  0.5217290000000  0.4704220000000 1.0
C      1  0.4244280000000  0.4908020000000  0.5254480000000 1.0
C      1  0.4602940000000  0.5606760000000  0.5734400000000 1.0
C      1  0.5337560000000  0.4263430000000  0.4163690000000 1.0
C      1  0.4902870000000  0.4514480000000  0.4055900000000 1.0
C      1  0.5100780000000  0.5460150000000  0.5904170000000 1.0
C      1  0.5358600000000  0.5183950000000  0.4350160000000 1.0
C      1  0.4634150000000  0.4789860000000  0.5712740000000 1.0
C      1  0.4890520000000  0.5692750000000  0.5828510000000 1.0
C      1  0.5040390000000  0.4243570000000  0.4148540000000 1.0
C      1  0.5017070000000  0.4054930000000  0.5263650000000 1.0
C      1  0.5043220000000  0.5766910000000  0.4743310000000 1.0
C      1  0.5278800000000  0.5941480000000  0.4926360000000 1.0
C      1  0.4595810000000  0.4084030000000  0.5024290000000 1.0
C      1  0.4774530000000  0.5723170000000  0.5299590000000 1.0
C      1  0.5174410000000  0.4326800000000  0.4641800000000 1.0
C      1  0.4533740000000  0.4340980000000  0.5209680000000 1.0
C      1  0.5419930000000  0.5667370000000  0.4819790000000 1.0
C      1  0.4816130000000  0.4512800000000  0.4527600000000 1.0
C      1  0.5228450000000  0.5587070000000  0.5425070000000 1.0
C      1  0.4955130000000  0.5094110000000  0.4111570000000 1.0
C      1  0.5097290000000  0.4865460000000  0.5921400000000 1.0
C      1  0.5373810000000  0.4967450000000  0.4794800000000 1.0
C      1  0.4760680000000  0.4979310000000  0.5334230000000 1.0
C      1  0.4916020000000  0.4613360000000  0.5363640000000 1.0
C      1  0.5069200000000  0.5278220000000  0.4663710000000 1.0
C      1  0.5334520000000  0.5306760000000  0.5981960000000 1.0
C      1  0.4677170000000  0.4685300000000  0.3994270000000 1.0
C      1  0.4128400000000  0.5653100000000  0.5128550000000 1.0
C      1  0.5748130000000  0.4410710000000  0.4774440000000 1.0
C      1  0.4873170000000  0.4990340000000  0.5740250000000 1.0
C      1  0.5144130000000  0.4979630000000  0.4324300000000 1.0
C      1  0.5735540000000  0.5303190000000  0.4317680000000 1.0
C      1  0.4242240000000  0.4768270000000  0.5628430000000 1.0
C      1  0.5130280000000  0.4294170000000  0.5262140000000 1.0
C      1  0.4837930000000  0.5589730000000  0.4787950000000 1.0
C      1  0.4677740000000  0.4936240000000  0.4592770000000 1.0
C      1  0.5365480000000  0.5021760000000  0.5430320000000 1.0
C      1  0.5743140000000  0.5706490000000  0.4785250000000 1.0
C      1  0.4206200000000  0.4382610000000  0.5243520000000 1.0
C      1  0.4252370000000  0.5224310000000  0.5887220000000 1.0
C      1  0.5877290000000  0.4828870000000  0.4175840000000 1.0
C      1  0.4794280000000  0.4500120000000  0.5800530000000 1.0
C      1  0.5243210000000  0.5475470000000  0.4225320000000 1.0
C      1  0.5392080000000  0.4069810000000  0.5066870000000 1.0
C      1  0.4682720000000  0.5955610000000  0.4805920000000 1.0
C      1  0.5455960000000  0.5814190000000  0.5190030000000 1.0
C      1  0.4468480000000  0.4259300000000  0.4778660000000 1.0
END
