TITL C-2782229-3092-1143 -0.00151816190759493 125000 -768.779663381448 0 0 131 (C1) n - 1
REM
REM in /home/nfs/bkarasulu/CARBON/AIRSS/Generating-Clusters/REBO/Higher-Symm/SD-CG/HFTN-CG
REM
REM
REM
REM
REM
REM ./C.cell (12c818d87b63d06a65506943cc24bca4)
REM
REM compiler GCC version 9.2.1 20190827 (Red Hat 9.2.1-1)
REM options -cpp -mtune=generic -march=x86-64 -g -O0 -fpre-include=/usr/include/finclude/math-vector-fortran.h
REM seed 1887000455 -1572003591 204529981 -1085238642 -167184381 -319481451 -845737979 854605673 -1021622130 249638327 708874642 1965600206 -2106551365 1077693515 1911284254 -808467663 1233616899 993193098 940355300 2079582241 1510563410 -1515978868 -274284107 -984717000 -1026868480 517759170 -1406292413 -1947888954 -1477735392 1692381812 1079872042 -1385714432 222293135
REM
CELL 1.54180   50.00000   50.00000   50.00000   90.00000   90.00000   90.00000
LATT -1
SFAC C  
C      1  0.4428140000000  0.5190270000000  0.5215880000000 1.0
C      1  0.4986010000000  0.5625470000000  0.5221200000000 1.0
C      1  0.5540650000000  0.5228460000000  0.5231340000000 1.0
C      1  0.5282170000000  0.4592590000000  0.5283170000000 1.0
C      1  0.4645130000000  0.4594840000000  0.5250750000000 1.0
C      1  0.3733470000000  0.5180120000000  0.5117580000000 1.0
C      1  0.4731470000000  0.6290200000000  0.5188920000000 1.0
C      1  0.6152820000000  0.5641610000000  0.5078640000000 1.0
C      1  0.5799380000000  0.4063920000000  0.5183110000000 1.0
C      1  0.4134580000000  0.4184790000000  0.5087530000000 1.0
C      1  0.4624940000000  0.4205580000000  0.4907900000000 1.0
C      1  0.4052660000000  0.4871680000000  0.4868660000000 1.0
C      1  0.4558000000000  0.5870620000000  0.4956330000000 1.0
C      1  0.5692980000000  0.5689800000000  0.4908200000000 1.0
C      1  0.5791730000000  0.4528440000000  0.5022170000000 1.0
C      1  0.5303560000000  0.4936720000000  0.4849380000000 1.0
C      1  0.5054190000000  0.4696690000000  0.4860610000000 1.0
C      1  0.4659930000000  0.4877300000000  0.4805290000000 1.0
C      1  0.4728590000000  0.5299400000000  0.4769330000000 1.0
C      1  0.5180980000000  0.5387920000000  0.4792200000000 1.0
C      1  0.4872360000000  0.4796190000000  0.5131580000000 1.0
C      1  0.4689610000000  0.5068260000000  0.5086950000000 1.0
C      1  0.4899510000000  0.5335500000000  0.5064150000000 1.0
C      1  0.5226660000000  0.5235410000000  0.5096800000000 1.0
C      1  0.5194600000000  0.4900880000000  0.5169400000000 1.0
C      1  0.4552250000000  0.6127200000000  0.5065870000000 1.0
C      1  0.5953800000000  0.5781660000000  0.4954870000000 1.0
C      1  0.5921120000000  0.4303660000000  0.5128550000000 1.0
C      1  0.4358870000000  0.4134030000000  0.4942180000000 1.0
C      1  0.3810540000000  0.4969060000000  0.4965310000000 1.0
C      1  0.5222410000000  0.4785140000000  0.6228050000000 1.0
C      1  0.4942400000000  0.4656750000000  0.6243630000000 1.0
C      1  0.4904930000000  0.4578470000000  0.6517860000000 1.0
C      1  0.5135840000000  0.4646440000000  0.6669190000000 1.0
C      1  0.5327060000000  0.4769790000000  0.6498380000000 1.0
C      1  0.4994120000000  0.5607390000000  0.4159720000000 1.0
C      1  0.5624460000000  0.5205150000000  0.4204370000000 1.0
C      1  0.5380850000000  0.4665420000000  0.4422550000000 1.0
C      1  0.4823580000000  0.4393220000000  0.4247150000000 1.0
C      1  0.4427920000000  0.5062290000000  0.4216200000000 1.0
C      1  0.5909640000000  0.5148300000000  0.5587570000000 1.0
C      1  0.5376920000000  0.4287320000000  0.5665780000000 1.0
C      1  0.4596110000000  0.4435480000000  0.5611420000000 1.0
C      1  0.4242070000000  0.5435560000000  0.5625110000000 1.0
C      1  0.5196860000000  0.5889780000000  0.5610950000000 1.0
C      1  0.4743760000000  0.4041310000000  0.4566190000000 1.0
C      1  0.4113750000000  0.4814830000000  0.4477820000000 1.0
C      1  0.4629010000000  0.5708130000000  0.4521310000000 1.0
C      1  0.5639430000000  0.5679050000000  0.4512880000000 1.0
C      1  0.5764380000000  0.4598420000000  0.4551540000000 1.0
C      1  0.5272650000000  0.4884080000000  0.5934620000000 1.0
C      1  0.4968400000000  0.4728090000000  0.5926280000000 1.0
C      1  0.4793440000000  0.4971130000000  0.5840660000000 1.0
C      1  0.4934080000000  0.5214920000000  0.5837190000000 1.0
C      1  0.5211310000000  0.5177680000000  0.5874770000000 1.0
C      1  0.4442960000000  0.5153640000000  0.5553850000000 1.0
C      1  0.4998100000000  0.5604220000000  0.5555230000000 1.0
C      1  0.5569520000000  0.5225470000000  0.5561330000000 1.0
C      1  0.5425280000000  0.4579890000000  0.5581210000000 1.0
C      1  0.4885130000000  0.4468930000000  0.5443490000000 1.0
C      1  0.4320510000000  0.5701720000000  0.4890560000000 1.0
C      1  0.5449450000000  0.5866480000000  0.4913010000000 1.0
C      1  0.5893400000000  0.4794950000000  0.4963420000000 1.0
C      1  0.4873380000000  0.4131440000000  0.5060610000000 1.0
C      1  0.4164770000000  0.4591380000000  0.4895690000000 1.0
C      1  0.5238170000000  0.4408490000000  0.4878240000000 1.0
C      1  0.4653660000000  0.4599380000000  0.4852810000000 1.0
C      1  0.4443540000000  0.5250960000000  0.4811630000000 1.0
C      1  0.5019480000000  0.5639820000000  0.4824120000000 1.0
C      1  0.5545220000000  0.5138020000000  0.4845820000000 1.0
C      1  0.4158140000000  0.5346340000000  0.5354700000000 1.0
C      1  0.5058850000000  0.5937950000000  0.5349840000000 1.0
C      1  0.5875410000000  0.5272090000000  0.5313600000000 1.0
C      1  0.5378730000000  0.4263990000000  0.5350520000000 1.0
C      1  0.4366390000000  0.4468180000000  0.5404480000000 1.0
C      1  0.4458570000000  0.4665860000000  0.5739320000000 1.0
C      1  0.4550450000000  0.5438890000000  0.5677930000000 1.0
C      1  0.5297770000000  0.5602900000000  0.5684280000000 1.0
C      1  0.5687310000000  0.4949290000000  0.5686680000000 1.0
C      1  0.5138920000000  0.4275480000000  0.5819620000000 1.0
C      1  0.4840970000000  0.5093680000000  0.3988330000000 1.0
C      1  0.5123010000000  0.5177220000000  0.3966600000000 1.0
C      1  0.5297430000000  0.4934130000000  0.3982950000000 1.0
C      1  0.5103510000000  0.4723290000000  0.4060700000000 1.0
C      1  0.4830190000000  0.4796340000000  0.3991080000000 1.0
C      1  0.4669600000000  0.4626090000000  0.4168060000000 1.0
C      1  0.4670830000000  0.5208170000000  0.4192010000000 1.0
C      1  0.5197200000000  0.5413500000000  0.4112940000000 1.0
C      1  0.5566480000000  0.4942410000000  0.4101570000000 1.0
C      1  0.5116750000000  0.4649030000000  0.4339490000000 1.0
C      1  0.5411850000000  0.4708870000000  0.4690030000000 1.0
C      1  0.4935730000000  0.4608340000000  0.4569800000000 1.0
C      1  0.4497780000000  0.4926820000000  0.4585080000000 1.0
C      1  0.4831470000000  0.5269710000000  0.4478330000000 1.0
C      1  0.5376570000000  0.5387010000000  0.4585080000000 1.0
C      1  0.6091010000000  0.5411360000000  0.5208520000000 1.0
C      1  0.5530960000000  0.4059160000000  0.5238350000000 1.0
C      1  0.4137260000000  0.4351530000000  0.5304970000000 1.0
C      1  0.3897330000000  0.5340380000000  0.5262240000000 1.0
C      1  0.4964430000000  0.6192330000000  0.5289090000000 1.0
C      1  0.5052590000000  0.4369690000000  0.5164360000000 1.0
C      1  0.4411630000000  0.4529670000000  0.5014670000000 1.0
C      1  0.4323850000000  0.5440560000000  0.5007370000000 1.0
C      1  0.5200200000000  0.5794740000000  0.5015310000000 1.0
C      1  0.5742370000000  0.5018660000000  0.5049770000000 1.0
C      1  0.4767860000000  0.5770080000000  0.4770000000000 1.0
C      1  0.5656110000000  0.5419820000000  0.4732720000000 1.0
C      1  0.5568940000000  0.4470110000000  0.4811860000000 1.0
C      1  0.4714540000000  0.4374450000000  0.4630140000000 1.0
C      1  0.4226830000000  0.5062630000000  0.4674120000000 1.0
C      1  0.6138800000000  0.4934330000000  0.4545260000000 1.0
C      1  0.5126320000000  0.4211280000000  0.4652610000000 1.0
C      1  0.4086820000000  0.4314460000000  0.4476770000000 1.0
C      1  0.4135790000000  0.5649200000000  0.4414930000000 1.0
C      1  0.5418150000000  0.6127320000000  0.4477010000000 1.0
C      1  0.5632530000000  0.4713710000000  0.4276680000000 1.0
C      1  0.5024040000000  0.4263820000000  0.4388670000000 1.0
C      1  0.4479990000000  0.4783670000000  0.4320180000000 1.0
C      1  0.4790060000000  0.5554060000000  0.4345810000000 1.0
C      1  0.5408330000000  0.5368940000000  0.4303330000000 1.0
C      1  0.5493890000000  0.4774390000000  0.5765110000000 1.0
C      1  0.4960540000000  0.4476100000000  0.5753830000000 1.0
C      1  0.4548080000000  0.4929320000000  0.5720690000000 1.0
C      1  0.4818130000000  0.5443020000000  0.5719790000000 1.0
C      1  0.5384890000000  0.5353150000000  0.5745870000000 1.0
C      1  0.5502980000000  0.5911300000000  0.4616110000000 1.0
C      1  0.5958030000000  0.4780620000000  0.4675010000000 1.0
C      1  0.4955540000000  0.4012000000000  0.4793710000000 1.0
C      1  0.4111910000000  0.4554020000000  0.4599720000000 1.0
C      1  0.4340700000000  0.5693810000000  0.4585400000000 1.0
C      1  0.5082630000000  0.5140630000000  0.4473370000000 1.0
END
