TITL C-2782229-3092-90 8.01823276036638e-05 125000 -664.376276819724 0 0 108 (C3) n - 1
REM
REM in /home/nfs/bkarasulu/CARBON/AIRSS/Generating-Clusters/REBO/Higher-Symm/SD-CG/HFTN-CG
REM
REM
REM
REM
REM
REM ./C.cell (12c818d87b63d06a65506943cc24bca4)
REM
REM compiler GCC version 9.2.1 20190827 (Red Hat 9.2.1-1)
REM options -cpp -mtune=generic -march=x86-64 -g -O0 -fpre-include=/usr/include/finclude/math-vector-fortran.h
REM seed -728047963 1150581288 -2103770570 250329474 1395917681 1726040284 -1076923246 -82279383 -695059606 -972011684 1960171939 712576588 1829354473 817822325 -1757191548 98017517 -170518962 -531611966 -619304911 1743140800 -935831983 -1452064843 -13292215 1758071010 -2011488146 1106081183 1793745605 -1770218416 1294121873 -2144379822 1572000866 -139058067 -1429212422
REM
CELL 1.54180   50.00000   50.00000   50.00000   90.00000   90.00000   90.00000
LATT -1
SFAC C  
C      1  0.4646620000000  0.5538180000000  0.5758800000000 1.0
C      1  0.5758760000000  0.4646800000000  0.5538360000000 1.0
C      1  0.5538260000000  0.5758880000000  0.4646920000000 1.0
C      1  0.4630870000000  0.4451590000000  0.4225900000000 1.0
C      1  0.5363170000000  0.4453670000000  0.5798740000000 1.0
C      1  0.5390640000000  0.5530580000000  0.4228080000000 1.0
C      1  0.5798790000000  0.5363350000000  0.4453860000000 1.0
C      1  0.4227860000000  0.5390460000000  0.5530390000000 1.0
C      1  0.4226120000000  0.4630680000000  0.4451410000000 1.0
C      1  0.5530490000000  0.4227990000000  0.5390590000000 1.0
C      1  0.4451680000000  0.4225980000000  0.4630560000000 1.0
C      1  0.4453580000000  0.5798660000000  0.5363220000000 1.0
C      1  0.4630320000000  0.5782310000000  0.5576050000000 1.0
C      1  0.5782390000000  0.5576140000000  0.4630640000000 1.0
C      1  0.5575960000000  0.4630460000000  0.5782440000000 1.0
C      1  0.4654370000000  0.4239300000000  0.4438300000000 1.0
C      1  0.5349130000000  0.5744010000000  0.4438340000000 1.0
C      1  0.5327160000000  0.4249800000000  0.5581200000000 1.0
C      1  0.5743930000000  0.4438260000000  0.5349170000000 1.0
C      1  0.4249720000000  0.5581120000000  0.5327120000000 1.0
C      1  0.4239380000000  0.4438380000000  0.4654060000000 1.0
C      1  0.5581300000000  0.5327290000000  0.4249930000000 1.0
C      1  0.4438560000000  0.4654230000000  0.4239170000000 1.0
C      1  0.4438080000000  0.5349000000000  0.5743880000000 1.0
C      1  0.5023900000000  0.4399320000000  0.5202660000000 1.0
C      1  0.5202800000000  0.5023940000000  0.4399370000000 1.0
C      1  0.4399320000000  0.5202660000000  0.5023800000000 1.0
C      1  0.4987580000000  0.5643750000000  0.4762140000000 1.0
C      1  0.4985620000000  0.5556510000000  0.5274220000000 1.0
C      1  0.4973640000000  0.4379820000000  0.4808580000000 1.0
C      1  0.5274090000000  0.4985690000000  0.5556570000000 1.0
C      1  0.4808730000000  0.4973590000000  0.4379770000000 1.0
C      1  0.4762000000000  0.4987530000000  0.5643700000000 1.0
C      1  0.4379830000000  0.4808580000000  0.4973450000000 1.0
C      1  0.5643750000000  0.4762150000000  0.4987680000000 1.0
C      1  0.5556510000000  0.5274220000000  0.4985810000000 1.0
C      1  0.4991010000000  0.5260460000000  0.4409430000000 1.0
C      1  0.5260460000000  0.4409430000000  0.4990930000000 1.0
C      1  0.4409370000000  0.4990870000000  0.5260320000000 1.0
C      1  0.5021420000000  0.4786080000000  0.5560420000000 1.0
C      1  0.5005280000000  0.5177790000000  0.5638080000000 1.0
C      1  0.5019900000000  0.4738730000000  0.4432050000000 1.0
C      1  0.5177780000000  0.5638080000000  0.5005460000000 1.0
C      1  0.4738720000000  0.4432040000000  0.5019710000000 1.0
C      1  0.4786070000000  0.5560420000000  0.5021500000000 1.0
C      1  0.4432110000000  0.5019760000000  0.4738590000000 1.0
C      1  0.5560470000000  0.5021560000000  0.4786210000000 1.0
C      1  0.5638040000000  0.5005430000000  0.5177940000000 1.0
C      1  0.4744330000000  0.5909100000000  0.4590550000000 1.0
C      1  0.4590400000000  0.4744240000000  0.5909000000000 1.0
C      1  0.5909160000000  0.4590620000000  0.4744450000000 1.0
C      1  0.4750070000000  0.4132430000000  0.5383050000000 1.0
C      1  0.5225480000000  0.4092080000000  0.4648110000000 1.0
C      1  0.5195850000000  0.5860030000000  0.5427690000000 1.0
C      1  0.4648270000000  0.5225390000000  0.4092000000000 1.0
C      1  0.5427450000000  0.5195960000000  0.5860130000000 1.0
C      1  0.5383310000000  0.4750160000000  0.4132520000000 1.0
C      1  0.5859980000000  0.5427650000000  0.5196160000000 1.0
C      1  0.4132490000000  0.5383100000000  0.4749960000000 1.0
C      1  0.4092030000000  0.4648060000000  0.5225190000000 1.0
C      1  0.4781180000000  0.4589700000000  0.5873350000000 1.0
C      1  0.4589740000000  0.5873400000000  0.4781290000000 1.0
C      1  0.5873500000000  0.4781390000000  0.4589900000000 1.0
C      1  0.4808740000000  0.5412980000000  0.4088880000000 1.0
C      1  0.5219710000000  0.4565170000000  0.4133290000000 1.0
C      1  0.5249810000000  0.5363010000000  0.5893670000000 1.0
C      1  0.4565120000000  0.4133240000000  0.5219410000000 1.0
C      1  0.5362950000000  0.5893610000000  0.5250100000000 1.0
C      1  0.5413030000000  0.4088920000000  0.4808620000000 1.0
C      1  0.5893520000000  0.5250020000000  0.5363220000000 1.0
C      1  0.4088830000000  0.4808520000000  0.5412770000000 1.0
C      1  0.4133340000000  0.5219510000000  0.4564970000000 1.0
C      1  0.5063890000000  0.5532540000000  0.4256320000000 1.0
C      1  0.4256190000000  0.5063710000000  0.5532370000000 1.0
C      1  0.5532530000000  0.4256310000000  0.5063840000000 1.0
C      1  0.5049290000000  0.4503800000000  0.5714660000000 1.0
C      1  0.4952330000000  0.4459370000000  0.4289230000000 1.0
C      1  0.4961730000000  0.5459110000000  0.5782760000000 1.0
C      1  0.4289360000000  0.4952160000000  0.4459210000000 1.0
C      1  0.5782660000000  0.4961920000000  0.5459290000000 1.0
C      1  0.5714760000000  0.5049450000000  0.4503960000000 1.0
C      1  0.5459120000000  0.5782770000000  0.4962020000000 1.0
C      1  0.4503780000000  0.5714640000000  0.5049330000000 1.0
C      1  0.4459390000000  0.4289230000000  0.4952040000000 1.0
C      1  0.5026390000000  0.4257810000000  0.5480990000000 1.0
C      1  0.4257800000000  0.5480980000000  0.5026320000000 1.0
C      1  0.5481160000000  0.5026500000000  0.4257920000000 1.0
C      1  0.5030930000000  0.5783150000000  0.4484170000000 1.0
C      1  0.4956970000000  0.4224610000000  0.4535130000000 1.0
C      1  0.4942940000000  0.5703250000000  0.5550070000000 1.0
C      1  0.4224620000000  0.4535140000000  0.4956680000000 1.0
C      1  0.5703260000000  0.5550090000000  0.4943230000000 1.0
C      1  0.5783150000000  0.4484160000000  0.5030990000000 1.0
C      1  0.5549920000000  0.4943070000000  0.5703370000000 1.0
C      1  0.4483980000000  0.5030810000000  0.5783030000000 1.0
C      1  0.4535320000000  0.4956860000000  0.4224500000000 1.0
C      1  0.5259780000000  0.5345260000000  0.5077600000000 1.0
C      1  0.5260370000000  0.4931390000000  0.4687020000000 1.0
C      1  0.4699590000000  0.4904670000000  0.5357400000000 1.0
C      1  0.4734170000000  0.5080750000000  0.4656770000000 1.0
C      1  0.5357490000000  0.4699680000000  0.4904750000000 1.0
C      1  0.4656810000000  0.4734080000000  0.5080670000000 1.0
C      1  0.4686970000000  0.5260300000000  0.4931320000000 1.0
C      1  0.5080810000000  0.4656830000000  0.4734110000000 1.0
C      1  0.4904740000000  0.5357470000000  0.4699650000000 1.0
C      1  0.4931330000000  0.4686960000000  0.5260290000000 1.0
C      1  0.5345200000000  0.5077540000000  0.5259880000000 1.0
C      1  0.5077450000000  0.5259800000000  0.5345280000000 1.0
END
