TITL C-2782236-320-222 0.00257561336474862 125000 -563.593749372761 0 0 98 (C1) n - 1
REM
REM in /home/nfs/bkarasulu/CARBON/AIRSS/Generating-Clusters/REBO/Higher-Symm/SD-CG/HFTN-CG
REM
REM
REM
REM
REM
REM ./C.cell (12c818d87b63d06a65506943cc24bca4)
REM
REM compiler GCC version 9.2.1 20190827 (Red Hat 9.2.1-1)
REM options -cpp -mtune=generic -march=x86-64 -g -O0 -fpre-include=/usr/include/finclude/math-vector-fortran.h
REM seed -1037768671 1341710565 1229964925 -483773100 753409193 1559736808 -915998198 581650677 -922898937 1865018793 -964159467 1617466263 127494304 2079785512 1740076711 -694114686 -1611622468 1048741079 -246785941 -45830088 -2134206612 -265928457 1488665948 628401068 -1789595204 -34496253 381005624 -1414251125 309591206 -915483602 774742274 -1403355446 -1152428984
REM
CELL 1.54180   50.00000   50.00000   50.00000   90.00000   90.00000   90.00000
LATT -1
SFAC C  
C      1  0.4436470000000  0.5736810000000  0.4841440000000 1.0
C      1  0.5494690000000  0.5359390000000  0.4514120000000 1.0
C      1  0.4539590000000  0.4691720000000  0.4370810000000 1.0
C      1  0.5360820000000  0.4303780000000  0.4942420000000 1.0
C      1  0.4520810000000  0.4623670000000  0.5684010000000 1.0
C      1  0.5519770000000  0.5180140000000  0.5526710000000 1.0
C      1  0.5797220000000  0.4398060000000  0.4812380000000 1.0
C      1  0.4160420000000  0.4734160000000  0.5352750000000 1.0
C      1  0.5966630000000  0.5214990000000  0.5378270000000 1.0
C      1  0.4072570000000  0.5426010000000  0.4834300000000 1.0
C      1  0.5886880000000  0.5252120000000  0.4762860000000 1.0
C      1  0.4064720000000  0.4743220000000  0.4629430000000 1.0
C      1  0.5515360000000  0.5001350000000  0.4141960000000 1.0
C      1  0.4575020000000  0.4198260000000  0.4775370000000 1.0
C      1  0.5419130000000  0.4335100000000  0.5454590000000 1.0
C      1  0.4556630000000  0.5145880000000  0.5808620000000 1.0
C      1  0.5375380000000  0.5698440000000  0.5385460000000 1.0
C      1  0.4629310000000  0.5597920000000  0.4351470000000 1.0
C      1  0.4450360000000  0.5172100000000  0.4526030000000 1.0
C      1  0.5846400000000  0.4772110000000  0.4423010000000 1.0
C      1  0.4213220000000  0.4414170000000  0.5001110000000 1.0
C      1  0.5778620000000  0.4628850000000  0.5296370000000 1.0
C      1  0.4246930000000  0.5224750000000  0.5443910000000 1.0
C      1  0.5783050000000  0.5622050000000  0.5106950000000 1.0
C      1  0.5752850000000  0.5013410000000  0.4315140000000 1.0
C      1  0.4324720000000  0.4324630000000  0.4757260000000 1.0
C      1  0.5659930000000  0.4371280000000  0.5284770000000 1.0
C      1  0.4325520000000  0.5063720000000  0.5664710000000 1.0
C      1  0.5656740000000  0.5605590000000  0.5371470000000 1.0
C      1  0.4405830000000  0.5450890000000  0.4467670000000 1.0
C      1  0.5973960000000  0.4531010000000  0.4586990000000 1.0
C      1  0.3887190000000  0.4742850000000  0.5356290000000 1.0
C      1  0.5911450000000  0.4926650000000  0.5222880000000 1.0
C      1  0.3818870000000  0.5503870000000  0.4909510000000 1.0
C      1  0.6023000000000  0.5496430000000  0.4959080000000 1.0
C      1  0.4037670000000  0.4926630000000  0.4792570000000 1.0
C      1  0.4690440000000  0.5633600000000  0.4832150000000 1.0
C      1  0.5401570000000  0.5072020000000  0.4518720000000 1.0
C      1  0.4585180000000  0.4620820000000  0.4693170000000 1.0
C      1  0.5240080000000  0.4502360000000  0.5100790000000 1.0
C      1  0.4776130000000  0.4714240000000  0.5653560000000 1.0
C      1  0.5306410000000  0.5259470000000  0.5355390000000 1.0
C      1  0.5105830000000  0.5428800000000  0.5504860000000 1.0
C      1  0.4839900000000  0.5693230000000  0.4557840000000 1.0
C      1  0.5214150000000  0.5009250000000  0.4264930000000 1.0
C      1  0.4813030000000  0.4393190000000  0.4730020000000 1.0
C      1  0.5101620000000  0.4383470000000  0.5361400000000 1.0
C      1  0.4820370000000  0.5017340000000  0.5718160000000 1.0
C      1  0.4805360000000  0.5543120000000  0.5926350000000 1.0
C      1  0.5081230000000  0.6184900000000  0.4458300000000 1.0
C      1  0.4705900000000  0.4801940000000  0.4201820000000 1.0
C      1  0.5187190000000  0.4175880000000  0.4376520000000 1.0
C      1  0.4800040000000  0.3913760000000  0.5361360000000 1.0
C      1  0.5233150000000  0.5104720000000  0.6088020000000 1.0
C      1  0.5174620000000  0.5481720000000  0.4909410000000 1.0
C      1  0.4888660000000  0.5195500000000  0.4649150000000 1.0
C      1  0.5127480000000  0.4787620000000  0.4732100000000 1.0
C      1  0.4792950000000  0.4771770000000  0.5140130000000 1.0
C      1  0.5125650000000  0.4892100000000  0.5323790000000 1.0
C      1  0.4874060000000  0.5333420000000  0.5194160000000 1.0
C      1  0.4940110000000  0.4914950000000  0.4140860000000 1.0
C      1  0.5016300000000  0.4275140000000  0.4537970000000 1.0
C      1  0.4937920000000  0.4128500000000  0.5361380000000 1.0
C      1  0.5045400000000  0.5064980000000  0.5919790000000 1.0
C      1  0.4998410000000  0.5519770000000  0.5738170000000 1.0
C      1  0.4970600000000  0.5959500000000  0.4503930000000 1.0
C      1  0.4356670000000  0.5163030000000  0.5201490000000 1.0
C      1  0.5650670000000  0.5365140000000  0.4979730000000 1.0
C      1  0.4500420000000  0.5097410000000  0.4836490000000 1.0
C      1  0.5657730000000  0.4670660000000  0.4673510000000 1.0
C      1  0.4293730000000  0.4666280000000  0.5109350000000 1.0
C      1  0.5587660000000  0.4848580000000  0.5180850000000 1.0
C      1  0.4649280000000  0.5074290000000  0.5206450000000 1.0
C      1  0.5379440000000  0.5319000000000  0.5069640000000 1.0
C      1  0.4723620000000  0.5333480000000  0.4912910000000 1.0
C      1  0.5413670000000  0.4833740000000  0.4692610000000 1.0
C      1  0.4536670000000  0.4798350000000  0.4940140000000 1.0
C      1  0.5319960000000  0.4779410000000  0.5151270000000 1.0
C      1  0.5541750000000  0.4967400000000  0.3867830000000 1.0
C      1  0.4621520000000  0.3937100000000  0.4850860000000 1.0
C      1  0.5457300000000  0.4269020000000  0.5722580000000 1.0
C      1  0.4587330000000  0.5380920000000  0.5960070000000 1.0
C      1  0.5316130000000  0.5904880000000  0.5563320000000 1.0
C      1  0.4664760000000  0.5640670000000  0.4081160000000 1.0
C      1  0.5014420000000  0.4978330000000  0.4539160000000 1.0
C      1  0.4935520000000  0.4642820000000  0.4884110000000 1.0
C      1  0.4930980000000  0.4644740000000  0.5407380000000 1.0
C      1  0.4907170000000  0.5091810000000  0.5423040000000 1.0
C      1  0.5110630000000  0.5577080000000  0.5212430000000 1.0
C      1  0.5020380000000  0.5465550000000  0.4681520000000 1.0
C      1  0.4253800000000  0.5586010000000  0.4682220000000 1.0
C      1  0.5765850000000  0.5234520000000  0.4495540000000 1.0
C      1  0.4288720000000  0.4552080000000  0.4540680000000 1.0
C      1  0.5637830000000  0.4277060000000  0.5006410000000 1.0
C      1  0.4303650000000  0.4784770000000  0.5598930000000 1.0
C      1  0.5746370000000  0.5350130000000  0.5496100000000 1.0
C      1  0.6048910000000  0.5174090000000  0.5051990000000 1.0
C      1  0.4190040000000  0.5163600000000  0.4924460000000 1.0
END
