TITL C-2782235-7892-125 -0.00666921032328251 125000 -701.424478368986 0 0 119 (C1) n - 1
REM
REM in /home/nfs/bkarasulu/CARBON/AIRSS/Generating-Clusters/REBO/Higher-Symm/SD-CG/HFTN-CG
REM
REM
REM
REM
REM
REM ./C.cell (12c818d87b63d06a65506943cc24bca4)
REM
REM compiler GCC version 9.2.1 20190827 (Red Hat 9.2.1-1)
REM options -cpp -mtune=generic -march=x86-64 -g -O0 -fpre-include=/usr/include/finclude/math-vector-fortran.h
REM seed -403779223 321509413 1006389171 -1197962003 1788773934 -415584790 -1730919952 -141690706 1517985416 683511344 -1812166547 1486721255 -613084128 906617811 1211729478 -1138699379 -536412990 -1666741341 -66267079 1302821651 -1057986489 -1794015854 362254217 -1304857978 -513184979 206441746 305805178 -1259981209 -956725840 -639247109 -78357385 -2024071806 2121715249
REM
CELL 1.54180   50.00000   50.00000   50.00000   90.00000   90.00000   90.00000
LATT -1
SFAC C  
C      1  0.5689590000000  0.5459090000000  0.4779740000000 1.0
C      1  0.4692150000000  0.4979070000000  0.4152410000000 1.0
C      1  0.4389690000000  0.4912080000000  0.5749490000000 1.0
C      1  0.4117910000000  0.5832110000000  0.5273190000000 1.0
C      1  0.4735510000000  0.5544180000000  0.5404080000000 1.0
C      1  0.5753780000000  0.5162500000000  0.5196870000000 1.0
C      1  0.5383880000000  0.5146340000000  0.5920380000000 1.0
C      1  0.4854980000000  0.4980570000000  0.4955600000000 1.0
C      1  0.4681380000000  0.5378610000000  0.5119700000000 1.0
C      1  0.5541410000000  0.5660020000000  0.4974550000000 1.0
C      1  0.3899190000000  0.5156570000000  0.5477450000000 1.0
C      1  0.4622090000000  0.4814190000000  0.4770150000000 1.0
C      1  0.4794820000000  0.4520230000000  0.5672320000000 1.0
C      1  0.4093660000000  0.4700950000000  0.5178700000000 1.0
C      1  0.5652340000000  0.4856960000000  0.4743150000000 1.0
C      1  0.5296740000000  0.4126120000000  0.4783670000000 1.0
C      1  0.5423430000000  0.4498710000000  0.5855900000000 1.0
C      1  0.5070410000000  0.5721170000000  0.4415250000000 1.0
C      1  0.5177200000000  0.4909540000000  0.5048580000000 1.0
C      1  0.4637830000000  0.5679880000000  0.4431130000000 1.0
C      1  0.4931440000000  0.5591590000000  0.5060630000000 1.0
C      1  0.4060100000000  0.5385990000000  0.5451860000000 1.0
C      1  0.5608530000000  0.5195710000000  0.4944850000000 1.0
C      1  0.5321480000000  0.5504490000000  0.4633470000000 1.0
C      1  0.5046360000000  0.5210010000000  0.4479030000000 1.0
C      1  0.4557950000000  0.4941840000000  0.5359080000000 1.0
C      1  0.4293990000000  0.5031270000000  0.4709920000000 1.0
C      1  0.4698110000000  0.5442360000000  0.4259220000000 1.0
C      1  0.5000040000000  0.4300130000000  0.5682250000000 1.0
C      1  0.4981220000000  0.4996760000000  0.4015700000000 1.0
C      1  0.5038410000000  0.5176670000000  0.4790460000000 1.0
C      1  0.4229390000000  0.5136550000000  0.4989510000000 1.0
C      1  0.5224660000000  0.4283740000000  0.5034460000000 1.0
C      1  0.5744000000000  0.4493550000000  0.5000760000000 1.0
C      1  0.4857710000000  0.5803270000000  0.4854900000000 1.0
C      1  0.5720380000000  0.4399620000000  0.4708300000000 1.0
C      1  0.5443500000000  0.4747660000000  0.4930130000000 1.0
C      1  0.5291090000000  0.4556870000000  0.4339020000000 1.0
C      1  0.4747610000000  0.4937860000000  0.5575510000000 1.0
C      1  0.5361460000000  0.5617130000000  0.4317830000000 1.0
C      1  0.4944270000000  0.4625900000000  0.5424090000000 1.0
C      1  0.5523380000000  0.5184200000000  0.5619580000000 1.0
C      1  0.4959360000000  0.4155430000000  0.5153470000000 1.0
C      1  0.4409550000000  0.4653740000000  0.5301560000000 1.0
C      1  0.4639260000000  0.4740030000000  0.5800340000000 1.0
C      1  0.5674030000000  0.5151770000000  0.4620440000000 1.0
C      1  0.4911760000000  0.4756460000000  0.4256680000000 1.0
C      1  0.4608010000000  0.5758310000000  0.4719930000000 1.0
C      1  0.4784670000000  0.4538570000000  0.4415710000000 1.0
C      1  0.5604280000000  0.5122710000000  0.4337730000000 1.0
C      1  0.5614200000000  0.5517470000000  0.4471300000000 1.0
C      1  0.5367680000000  0.5523730000000  0.5739980000000 1.0
C      1  0.5790000000000  0.4897580000000  0.5308890000000 1.0
C      1  0.5912340000000  0.4689450000000  0.5137570000000 1.0
C      1  0.5150720000000  0.5219290000000  0.4056850000000 1.0
C      1  0.6154390000000  0.4746360000000  0.4993350000000 1.0
C      1  0.5053660000000  0.4964510000000  0.5612740000000 1.0
C      1  0.5435910000000  0.4861040000000  0.4287960000000 1.0
C      1  0.5636310000000  0.4400190000000  0.4215330000000 1.0
C      1  0.5095040000000  0.5854560000000  0.4704710000000 1.0
C      1  0.5191910000000  0.5262160000000  0.5590180000000 1.0
C      1  0.4604400000000  0.5181210000000  0.4324690000000 1.0
C      1  0.5156090000000  0.5456600000000  0.4901840000000 1.0
C      1  0.4363960000000  0.4256480000000  0.4768930000000 1.0
C      1  0.4339630000000  0.5868040000000  0.5435540000000 1.0
C      1  0.4674310000000  0.5369690000000  0.4782350000000 1.0
C      1  0.6118420000000  0.4721060000000  0.4718930000000 1.0
C      1  0.5203520000000  0.4337740000000  0.5881640000000 1.0
C      1  0.4471860000000  0.5631600000000  0.5520250000000 1.0
C      1  0.4228950000000  0.4796450000000  0.5542680000000 1.0
C      1  0.5126750000000  0.5043300000000  0.5916930000000 1.0
C      1  0.5520510000000  0.5587050000000  0.5257270000000 1.0
C      1  0.5646940000000  0.4893530000000  0.5558170000000 1.0
C      1  0.5115970000000  0.4264940000000  0.5418510000000 1.0
C      1  0.4173600000000  0.4445320000000  0.5059960000000 1.0
C      1  0.4307400000000  0.5406320000000  0.5603570000000 1.0
C      1  0.4511880000000  0.4602700000000  0.4451380000000 1.0
C      1  0.4018920000000  0.4951970000000  0.5115550000000 1.0
C      1  0.5425720000000  0.5228520000000  0.4063200000000 1.0
C      1  0.3969390000000  0.4894910000000  0.5508100000000 1.0
C      1  0.4494760000000  0.4373370000000  0.5126160000000 1.0
C      1  0.5030390000000  0.5693210000000  0.5345210000000 1.0
C      1  0.4578710000000  0.5122740000000  0.4627470000000 1.0
C      1  0.4409740000000  0.5569630000000  0.4858000000000 1.0
C      1  0.5570260000000  0.4683640000000  0.5725230000000 1.0
C      1  0.4753770000000  0.4291000000000  0.4914290000000 1.0
C      1  0.5471950000000  0.4472560000000  0.5128810000000 1.0
C      1  0.5319520000000  0.5187100000000  0.4988690000000 1.0
C      1  0.4849700000000  0.4731640000000  0.5188780000000 1.0
C      1  0.5133680000000  0.4440810000000  0.4157210000000 1.0
C      1  0.5138410000000  0.4593850000000  0.4949330000000 1.0
C      1  0.5491270000000  0.4339030000000  0.4506620000000 1.0
C      1  0.4505460000000  0.4095280000000  0.5277000000000 1.0
C      1  0.5642530000000  0.5353160000000  0.5380180000000 1.0
C      1  0.5618800000000  0.4637820000000  0.4126280000000 1.0
C      1  0.5967650000000  0.5317610000000  0.3936870000000 1.0
C      1  0.4264020000000  0.4771400000000  0.4597470000000 1.0
C      1  0.4729020000000  0.3976840000000  0.5266090000000 1.0
C      1  0.4061700000000  0.5557590000000  0.5213360000000 1.0
C      1  0.4426970000000  0.4527090000000  0.4755090000000 1.0
C      1  0.4895240000000  0.5494710000000  0.4601420000000 1.0
C      1  0.5741770000000  0.5248060000000  0.4064820000000 1.0
C      1  0.5229250000000  0.4727850000000  0.5494620000000 1.0
C      1  0.4825110000000  0.4590040000000  0.4897590000000 1.0
C      1  0.5294220000000  0.5700890000000  0.5389270000000 1.0
C      1  0.4493400000000  0.5143180000000  0.5173510000000 1.0
C      1  0.5142570000000  0.4937180000000  0.4374750000000 1.0
C      1  0.4893090000000  0.4335040000000  0.4600790000000 1.0
C      1  0.5309280000000  0.4468170000000  0.5381530000000 1.0
C      1  0.5845670000000  0.4667340000000  0.4651840000000 1.0
C      1  0.5345680000000  0.5837010000000  0.4851810000000 1.0
C      1  0.5164940000000  0.4247240000000  0.4556750000000 1.0
C      1  0.4712180000000  0.5268330000000  0.5840610000000 1.0
C      1  0.5014380000000  0.5440950000000  0.4227960000000 1.0
C      1  0.4204890000000  0.5445870000000  0.4995390000000 1.0
C      1  0.5110520000000  0.5610290000000  0.5768120000000 1.0
C      1  0.4890410000000  0.5415510000000  0.5639020000000 1.0
C      1  0.4445320000000  0.5200070000000  0.5754690000000 1.0
C      1  0.4879370000000  0.5134050000000  0.6030240000000 1.0
END
