TITL C-2782240-8521-117 0.00312813113890853 125000 -639.119713649214 0 0 111 (C1) n - 1
REM
REM in /home/nfs/bkarasulu/CARBON/AIRSS/Generating-Clusters/REBO/Higher-Symm/SD-CG/HFTN-CG
REM
REM
REM
REM
REM
REM ./C.cell (12c818d87b63d06a65506943cc24bca4)
REM
REM compiler GCC version 9.2.1 20190827 (Red Hat 9.2.1-1)
REM options -cpp -mtune=generic -march=x86-64 -g -O0 -fpre-include=/usr/include/finclude/math-vector-fortran.h
REM seed 1529014581 -671766651 -802148354 1212612216 228048056 -2036501976 379106682 -2049326745 -1493839463 -86035112 72713273 1973832409 749994736 -1196826641 1030536818 -1310676978 1764385882 1347891816 274043792 484789372 122642293 211769366 2037602063 -469314557 -561450817 1742950083 1246585810 -1953512246 -1430468232 -360552817 -1571511376 2038811786 1767764649
REM
CELL 1.54180   50.00000   50.00000   50.00000   90.00000   90.00000   90.00000
LATT -1
SFAC C  
C      1  0.5675300000000  0.4973220000000  0.5774110000000 1.0
C      1  0.5642070000000  0.5607660000000  0.4736760000000 1.0
C      1  0.5678400000000  0.4244760000000  0.4898870000000 1.0
C      1  0.4438700000000  0.4838430000000  0.5673020000000 1.0
C      1  0.4343440000000  0.5695680000000  0.4826300000000 1.0
C      1  0.4295520000000  0.4559370000000  0.4604210000000 1.0
C      1  0.5442520000000  0.4427610000000  0.5358610000000 1.0
C      1  0.5340590000000  0.5647010000000  0.5613610000000 1.0
C      1  0.5323830000000  0.5034640000000  0.4142010000000 1.0
C      1  0.4657150000000  0.4270310000000  0.5266670000000 1.0
C      1  0.4573980000000  0.5559530000000  0.5454690000000 1.0
C      1  0.4682430000000  0.5164530000000  0.4338000000000 1.0
C      1  0.5818230000000  0.4457220000000  0.4909270000000 1.0
C      1  0.5599440000000  0.5191880000000  0.5609680000000 1.0
C      1  0.5602690000000  0.5414750000000  0.4538100000000 1.0
C      1  0.4366620000000  0.4432310000000  0.4872430000000 1.0
C      1  0.4380180000000  0.5093810000000  0.5550210000000 1.0
C      1  0.4432050000000  0.5490650000000  0.4649990000000 1.0
C      1  0.4229050000000  0.4878340000000  0.5123160000000 1.0
C      1  0.4236410000000  0.5195070000000  0.5016280000000 1.0
C      1  0.4278100000000  0.4938540000000  0.4797130000000 1.0
C      1  0.5666700000000  0.4839790000000  0.5237600000000 1.0
C      1  0.5635650000000  0.5044660000000  0.4961420000000 1.0
C      1  0.5655010000000  0.4718390000000  0.4937560000000 1.0
C      1  0.4766150000000  0.5706750000000  0.4618400000000 1.0
C      1  0.4755820000000  0.4304810000000  0.4492810000000 1.0
C      1  0.4645520000000  0.4858400000000  0.5891270000000 1.0
C      1  0.5284680000000  0.5712010000000  0.4591870000000 1.0
C      1  0.5309420000000  0.4329900000000  0.4401030000000 1.0
C      1  0.5225400000000  0.4930380000000  0.5908790000000 1.0
C      1  0.5149940000000  0.5654200000000  0.4352580000000 1.0
C      1  0.5217320000000  0.4210040000000  0.4637950000000 1.0
C      1  0.5072980000000  0.5159440000000  0.5986650000000 1.0
C      1  0.4868620000000  0.5724930000000  0.4352860000000 1.0
C      1  0.4941200000000  0.4230700000000  0.4687050000000 1.0
C      1  0.4789930000000  0.5119820000000  0.5939020000000 1.0
C      1  0.4513080000000  0.5257000000000  0.4838210000000 1.0
C      1  0.4515160000000  0.4724380000000  0.4893600000000 1.0
C      1  0.4499350000000  0.5030190000000  0.5263560000000 1.0
C      1  0.5548720000000  0.5097420000000  0.4647020000000 1.0
C      1  0.5381730000000  0.4614160000000  0.4836760000000 1.0
C      1  0.5502980000000  0.5097620000000  0.5337070000000 1.0
C      1  0.4433370000000  0.5364140000000  0.5214750000000 1.0
C      1  0.4488110000000  0.5047890000000  0.4569270000000 1.0
C      1  0.4428040000000  0.4638800000000  0.5215960000000 1.0
C      1  0.5523350000000  0.5317010000000  0.5122010000000 1.0
C      1  0.5558870000000  0.4920600000000  0.4367210000000 1.0
C      1  0.5637820000000  0.4626300000000  0.5440830000000 1.0
C      1  0.5191750000000  0.5102990000000  0.4448250000000 1.0
C      1  0.5193510000000  0.4565460000000  0.5296360000000 1.0
C      1  0.5077660000000  0.5448810000000  0.5523360000000 1.0
C      1  0.4887750000000  0.5050840000000  0.4565210000000 1.0
C      1  0.4869510000000  0.4534050000000  0.5208500000000 1.0
C      1  0.4818110000000  0.5373150000000  0.5321400000000 1.0
C      1  0.5628230000000  0.4696550000000  0.5716820000000 1.0
C      1  0.5550700000000  0.5613520000000  0.5007220000000 1.0
C      1  0.5551700000000  0.4707930000000  0.4121050000000 1.0
C      1  0.4494410000000  0.4610970000000  0.5495570000000 1.0
C      1  0.4428280000000  0.5672130000000  0.5100000000000 1.0
C      1  0.4374640000000  0.4775760000000  0.4436530000000 1.0
C      1  0.4859570000000  0.4108360000000  0.5487560000000 1.0
C      1  0.4774550000000  0.5782430000000  0.5579250000000 1.0
C      1  0.4772150000000  0.5143510000000  0.4050190000000 1.0
C      1  0.5148010000000  0.4168430000000  0.5435550000000 1.0
C      1  0.5091930000000  0.5859700000000  0.5515910000000 1.0
C      1  0.5068190000000  0.5026480000000  0.3950090000000 1.0
C      1  0.5428090000000  0.4546570000000  0.5859570000000 1.0
C      1  0.5378390000000  0.5807970000000  0.5114600000000 1.0
C      1  0.5324700000000  0.4668170000000  0.3966930000000 1.0
C      1  0.4683340000000  0.4438590000000  0.5625530000000 1.0
C      1  0.4632240000000  0.5849470000000  0.5185440000000 1.0
C      1  0.4485470000000  0.4739470000000  0.4171930000000 1.0
C      1  0.5555930000000  0.5248190000000  0.4280160000000 1.0
C      1  0.5540200000000  0.4171660000000  0.5365390000000 1.0
C      1  0.5575650000000  0.5459050000000  0.5658410000000 1.0
C      1  0.4517650000000  0.5438710000000  0.4397260000000 1.0
C      1  0.4412210000000  0.4264640000000  0.5078120000000 1.0
C      1  0.4369340000000  0.5359670000000  0.5609410000000 1.0
C      1  0.4745100000000  0.4764870000000  0.4689640000000 1.0
C      1  0.4756500000000  0.4842810000000  0.5301780000000 1.0
C      1  0.4784960000000  0.5347250000000  0.5009340000000 1.0
C      1  0.5246920000000  0.4794590000000  0.4581710000000 1.0
C      1  0.5254170000000  0.4896530000000  0.5341280000000 1.0
C      1  0.5360490000000  0.5305350000000  0.4840000000000 1.0
C      1  0.5108870000000  0.5340550000000  0.3990100000000 1.0
C      1  0.5212690000000  0.4179380000000  0.5139380000000 1.0
C      1  0.5076710000000  0.5711480000000  0.5823120000000 1.0
C      1  0.4813990000000  0.5447910000000  0.3943480000000 1.0
C      1  0.4895610000000  0.4051660000000  0.5151750000000 1.0
C      1  0.4788570000000  0.5532450000000  0.5789450000000 1.0
C      1  0.5204430000000  0.5541360000000  0.4801870000000 1.0
C      1  0.5231270000000  0.4595710000000  0.4348180000000 1.0
C      1  0.5119000000000  0.4838770000000  0.5621940000000 1.0
C      1  0.4913160000000  0.5599360000000  0.4880690000000 1.0
C      1  0.4722170000000  0.4578100000000  0.4448820000000 1.0
C      1  0.4822990000000  0.4918330000000  0.5597030000000 1.0
C      1  0.5128890000000  0.5883340000000  0.5221590000000 1.0
C      1  0.5056200000000  0.4658270000000  0.4104950000000 1.0
C      1  0.5160740000000  0.4563110000000  0.5764290000000 1.0
C      1  0.4895250000000  0.5822440000000  0.5085170000000 1.0
C      1  0.4783860000000  0.4681130000000  0.4167340000000 1.0
C      1  0.4927480000000  0.4407110000000  0.5744040000000 1.0
C      1  0.5362800000000  0.4283390000000  0.4896560000000 1.0
C      1  0.5154800000000  0.5389040000000  0.5849800000000 1.0
C      1  0.5193360000000  0.5390150000000  0.4261540000000 1.0
C      1  0.4886990000000  0.4310870000000  0.4950720000000 1.0
C      1  0.4753060000000  0.5250030000000  0.5633470000000 1.0
C      1  0.4734820000000  0.5669890000000  0.4106160000000 1.0
C      1  0.5041420000000  0.4786270000000  0.4821870000000 1.0
C      1  0.4906230000000  0.5094280000000  0.4894230000000 1.0
C      1  0.5020120000000  0.4895950000000  0.5130940000000 1.0
END
