TITL C-2782239-8622-1221 0.00236953100646799 125000 -1003.56304408575 0 0 174 (C1) n - 1
REM
REM in /home/nfs/bkarasulu/CARBON/AIRSS/Generating-Clusters/REBO/Higher-Symm/SD-CG/HFTN-CG
REM
REM
REM
REM
REM
REM ./C.cell (12c818d87b63d06a65506943cc24bca4)
REM
REM compiler GCC version 9.2.1 20190827 (Red Hat 9.2.1-1)
REM options -cpp -mtune=generic -march=x86-64 -g -O0 -fpre-include=/usr/include/finclude/math-vector-fortran.h
REM seed 1248067588 1637078083 35736329 -1965638411 526519063 -1441514292 -1729799329 -302742565 1811844398 347687840 916356767 -118467194 140676164 -1931907062 1294339956 -1418643847 -510246102 -1371738261 421129465 -886175509 -256928517 -431254825 -1772938564 645998429 1535714149 987015542 20798322 753848493 153803008 -2031613179 748205536 1172409097 1644371329
REM
CELL 1.54180   50.00000   50.00000   50.00000   90.00000   90.00000   90.00000
LATT -1
SFAC C  
C      1  0.5014640000000  0.5526690000000  0.5450440000000 1.0
C      1  0.4640960000000  0.4924560000000  0.4279140000000 1.0
C      1  0.5248770000000  0.4649950000000  0.4973800000000 1.0
C      1  0.4797580000000  0.4429870000000  0.4173070000000 1.0
C      1  0.5294630000000  0.4579310000000  0.4193000000000 1.0
C      1  0.5481800000000  0.4314740000000  0.4171030000000 1.0
C      1  0.4941600000000  0.5642680000000  0.5015150000000 1.0
C      1  0.5541320000000  0.4633840000000  0.4819540000000 1.0
C      1  0.4531190000000  0.4175430000000  0.5115520000000 1.0
C      1  0.5211800000000  0.4515790000000  0.4667920000000 1.0
C      1  0.4745500000000  0.5529070000000  0.4452900000000 1.0
C      1  0.3635760000000  0.4758600000000  0.4644030000000 1.0
C      1  0.4946980000000  0.4505200000000  0.4961300000000 1.0
C      1  0.5196990000000  0.4810500000000  0.5228200000000 1.0
C      1  0.4369560000000  0.4393020000000  0.5192140000000 1.0
C      1  0.5121950000000  0.5420850000000  0.5157580000000 1.0
C      1  0.5435670000000  0.5591750000000  0.5894750000000 1.0
C      1  0.5498580000000  0.4374260000000  0.5452120000000 1.0
C      1  0.4455280000000  0.5984900000000  0.4881760000000 1.0
C      1  0.4600560000000  0.5040810000000  0.5867140000000 1.0
C      1  0.4881210000000  0.4193790000000  0.4407850000000 1.0
C      1  0.5103790000000  0.5803150000000  0.5269040000000 1.0
C      1  0.4560080000000  0.4096310000000  0.4382280000000 1.0
C      1  0.5137860000000  0.5146030000000  0.5022920000000 1.0
C      1  0.4468680000000  0.5339520000000  0.4016580000000 1.0
C      1  0.4363150000000  0.5130980000000  0.5383210000000 1.0
C      1  0.5939270000000  0.5252380000000  0.4770600000000 1.0
C      1  0.5399740000000  0.5197610000000  0.5927470000000 1.0
C      1  0.4928630000000  0.4479430000000  0.4546470000000 1.0
C      1  0.5152340000000  0.4524620000000  0.6033460000000 1.0
C      1  0.5355930000000  0.5081730000000  0.5608920000000 1.0
C      1  0.4126530000000  0.4408390000000  0.5042650000000 1.0
C      1  0.4896080000000  0.5583340000000  0.5861980000000 1.0
C      1  0.5299850000000  0.5223290000000  0.3861790000000 1.0
C      1  0.5468520000000  0.5619000000000  0.5415830000000 1.0
C      1  0.4897900000000  0.4969770000000  0.5187250000000 1.0
C      1  0.4243850000000  0.4837850000000  0.5254000000000 1.0
C      1  0.4737780000000  0.5866430000000  0.4394040000000 1.0
C      1  0.5223980000000  0.5488980000000  0.4409360000000 1.0
C      1  0.5391320000000  0.5553990000000  0.5148060000000 1.0
C      1  0.5289170000000  0.4238170000000  0.5642570000000 1.0
C      1  0.5660040000000  0.5848990000000  0.5151070000000 1.0
C      1  0.4864200000000  0.5037500000000  0.4068860000000 1.0
C      1  0.4188570000000  0.5075080000000  0.4711460000000 1.0
C      1  0.5669220000000  0.5070250000000  0.5661870000000 1.0
C      1  0.4976880000000  0.4018030000000  0.4687720000000 1.0
C      1  0.4831840000000  0.6233100000000  0.4746800000000 1.0
C      1  0.4983680000000  0.5977710000000  0.4603260000000 1.0
C      1  0.5638620000000  0.5274780000000  0.4665380000000 1.0
C      1  0.4928740000000  0.3941760000000  0.5363610000000 1.0
C      1  0.5147190000000  0.5895400000000  0.4885060000000 1.0
C      1  0.5463670000000  0.5220530000000  0.4939420000000 1.0
C      1  0.6028360000000  0.5479680000000  0.4985430000000 1.0
C      1  0.4597940000000  0.5287700000000  0.5363840000000 1.0
C      1  0.5794220000000  0.4685020000000  0.4987530000000 1.0
C      1  0.4942790000000  0.4704630000000  0.4055540000000 1.0
C      1  0.5861550000000  0.4439210000000  0.5149930000000 1.0
C      1  0.4586620000000  0.5557540000000  0.5765100000000 1.0
C      1  0.5796180000000  0.4829590000000  0.4402120000000 1.0
C      1  0.4569650000000  0.4637650000000  0.5140620000000 1.0
C      1  0.5829580000000  0.5168820000000  0.4397570000000 1.0
C      1  0.4646760000000  0.5420460000000  0.5109960000000 1.0
C      1  0.5311250000000  0.4024270000000  0.4763680000000 1.0
C      1  0.5616900000000  0.4588730000000  0.4303860000000 1.0
C      1  0.4316330000000  0.5559260000000  0.4589220000000 1.0
C      1  0.4848150000000  0.5006630000000  0.5496630000000 1.0
C      1  0.4211760000000  0.5107830000000  0.5857450000000 1.0
C      1  0.4646330000000  0.5253670000000  0.4807850000000 1.0
C      1  0.5226280000000  0.4582050000000  0.5435620000000 1.0
C      1  0.4342870000000  0.5033850000000  0.4041860000000 1.0
C      1  0.5285820000000  0.5025900000000  0.4740700000000 1.0
C      1  0.4780470000000  0.5353850000000  0.4095040000000 1.0
C      1  0.4122260000000  0.4325780000000  0.5540990000000 1.0
C      1  0.5421650000000  0.4090890000000  0.5081560000000 1.0
C      1  0.4208860000000  0.4261760000000  0.4799970000000 1.0
C      1  0.4368960000000  0.4805580000000  0.5842050000000 1.0
C      1  0.3941170000000  0.5150260000000  0.5870390000000 1.0
C      1  0.5404140000000  0.5957160000000  0.5215860000000 1.0
C      1  0.4006940000000  0.5556640000000  0.4842030000000 1.0
C      1  0.5451870000000  0.5636340000000  0.4884850000000 1.0
C      1  0.5222200000000  0.5696160000000  0.4173150000000 1.0
C      1  0.3915000000000  0.4921610000000  0.5247690000000 1.0
C      1  0.4900350000000  0.5661370000000  0.4174760000000 1.0
C      1  0.4742580000000  0.4710910000000  0.4868360000000 1.0
C      1  0.4438060000000  0.4742470000000  0.4092730000000 1.0
C      1  0.5055390000000  0.5012410000000  0.4490630000000 1.0
C      1  0.5494580000000  0.4131370000000  0.4567790000000 1.0
C      1  0.5672440000000  0.4604990000000  0.5809550000000 1.0
C      1  0.4592700000000  0.5028440000000  0.5058860000000 1.0
C      1  0.4841430000000  0.6215810000000  0.5034740000000 1.0
C      1  0.5835670000000  0.5359360000000  0.5631410000000 1.0
C      1  0.5053230000000  0.5785880000000  0.5662010000000 1.0
C      1  0.5174920000000  0.5441830000000  0.6005000000000 1.0
C      1  0.6084200000000  0.5044120000000  0.4576410000000 1.0
C      1  0.5471300000000  0.5773290000000  0.4099310000000 1.0
C      1  0.4889360000000  0.6018550000000  0.5533890000000 1.0
C      1  0.5798190000000  0.5562300000000  0.5199810000000 1.0
C      1  0.4564540000000  0.4524580000000  0.5836820000000 1.0
C      1  0.5303410000000  0.4884240000000  0.5948610000000 1.0
C      1  0.6007340000000  0.5335320000000  0.5349300000000 1.0
C      1  0.4632150000000  0.4206700000000  0.5733090000000 1.0
C      1  0.5367860000000  0.4651840000000  0.5704940000000 1.0
C      1  0.5458060000000  0.4908800000000  0.4050350000000 1.0
C      1  0.4596970000000  0.4494120000000  0.4566970000000 1.0
C      1  0.5542090000000  0.5225400000000  0.4071670000000 1.0
C      1  0.4439780000000  0.4080950000000  0.4859640000000 1.0
C      1  0.6021990000000  0.4875430000000  0.4873760000000 1.0
C      1  0.4268400000000  0.5763410000000  0.4850300000000 1.0
C      1  0.4977900000000  0.3975880000000  0.5027230000000 1.0
C      1  0.3864530000000  0.4730660000000  0.4762680000000 1.0
C      1  0.5373410000000  0.4998740000000  0.4351370000000 1.0
C      1  0.4106040000000  0.4195650000000  0.4192680000000 1.0
C      1  0.4472750000000  0.5195760000000  0.4320320000000 1.0
C      1  0.5239990000000  0.4714740000000  0.3895910000000 1.0
C      1  0.5832260000000  0.4804070000000  0.5699040000000 1.0
C      1  0.5584180000000  0.4863960000000  0.5143430000000 1.0
C      1  0.5460350000000  0.4601570000000  0.6060990000000 1.0
C      1  0.5165480000000  0.4260440000000  0.4943680000000 1.0
C      1  0.5362120000000  0.5723220000000  0.5656950000000 1.0
C      1  0.6056090000000  0.4716530000000  0.4573370000000 1.0
C      1  0.4815900000000  0.4244190000000  0.5131150000000 1.0
C      1  0.4378450000000  0.5496890000000  0.4977230000000 1.0
C      1  0.5114150000000  0.6114750000000  0.5132730000000 1.0
C      1  0.6052370000000  0.4517880000000  0.5346110000000 1.0
C      1  0.4974020000000  0.5300680000000  0.4369840000000 1.0
C      1  0.4938930000000  0.5247910000000  0.5889590000000 1.0
C      1  0.4070850000000  0.5191190000000  0.5236880000000 1.0
C      1  0.5499660000000  0.4421700000000  0.4555830000000 1.0
C      1  0.4610030000000  0.6055280000000  0.5127110000000 1.0
C      1  0.5089560000000  0.4379630000000  0.5790560000000 1.0
C      1  0.3979700000000  0.5315690000000  0.4786910000000 1.0
C      1  0.4299030000000  0.5195830000000  0.4995620000000 1.0
C      1  0.4282090000000  0.4465780000000  0.4583310000000 1.0
C      1  0.5456990000000  0.5306790000000  0.4392220000000 1.0
C      1  0.5846730000000  0.5046890000000  0.5382800000000 1.0
C      1  0.4693310000000  0.4800110000000  0.4538930000000 1.0
C      1  0.5780690000000  0.5400780000000  0.4178230000000 1.0
C      1  0.4866390000000  0.4973710000000  0.6026770000000 1.0
C      1  0.4512310000000  0.4475600000000  0.4135960000000 1.0
C      1  0.4862840000000  0.4489920000000  0.5573930000000 1.0
C      1  0.5114970000000  0.5016350000000  0.3876830000000 1.0
C      1  0.5523480000000  0.4847990000000  0.4591920000000 1.0
C      1  0.4839730000000  0.5315900000000  0.5571420000000 1.0
C      1  0.4598030000000  0.6060630000000  0.4636940000000 1.0
C      1  0.5214620000000  0.5634120000000  0.4674600000000 1.0
C      1  0.4336230000000  0.4300960000000  0.4312650000000 1.0
C      1  0.4449210000000  0.5323850000000  0.5834690000000 1.0
C      1  0.4362130000000  0.4804540000000  0.4947680000000 1.0
C      1  0.4880330000000  0.5664490000000  0.4704790000000 1.0
C      1  0.4582890000000  0.4867080000000  0.5582040000000 1.0
C      1  0.4854820000000  0.4701570000000  0.5820400000000 1.0
C      1  0.4414910000000  0.5286540000000  0.4594100000000 1.0
C      1  0.6071100000000  0.5149850000000  0.5069040000000 1.0
C      1  0.5234390000000  0.4072210000000  0.5350440000000 1.0
C      1  0.4510370000000  0.5741740000000  0.5555690000000 1.0
C      1  0.4996460000000  0.4715420000000  0.6189350000000 1.0
C      1  0.4636670000000  0.4013860000000  0.4664340000000 1.0
C      1  0.5724980000000  0.5665850000000  0.4138340000000 1.0
C      1  0.5041910000000  0.4701830000000  0.4364810000000 1.0
C      1  0.4758630000000  0.4038560000000  0.5556110000000 1.0
C      1  0.5024380000000  0.4329830000000  0.5357650000000 1.0
C      1  0.5634500000000  0.4280510000000  0.5221300000000 1.0
C      1  0.4639950000000  0.5948890000000  0.5399770000000 1.0
C      1  0.4348050000000  0.4440450000000  0.5587410000000 1.0
C      1  0.5669090000000  0.5400200000000  0.5883940000000 1.0
C      1  0.4596800000000  0.4598110000000  0.5446660000000 1.0
C      1  0.4182400000000  0.4745080000000  0.4697480000000 1.0
C      1  0.5649830000000  0.5254530000000  0.5195110000000 1.0
C      1  0.4830930000000  0.5008780000000  0.4741000000000 1.0
C      1  0.5403170000000  0.5046630000000  0.5307600000000 1.0
C      1  0.3988150000000  0.4674890000000  0.5044570000000 1.0
C      1  0.6013640000000  0.4768410000000  0.5466530000000 1.0
C      1  0.5079250000000  0.4923480000000  0.5693790000000 1.0
C      1  0.5695670000000  0.5812260000000  0.4841500000000 1.0
END
