TITL C-2782231-7322-769 0.0105496272608974 125000 -998.279032163353 0 0 174 (C1) n - 1
REM
REM in /home/nfs/bkarasulu/CARBON/AIRSS/Generating-Clusters/REBO/Higher-Symm/SD-CG/HFTN-CG
REM
REM
REM
REM
REM
REM ./C.cell (12c818d87b63d06a65506943cc24bca4)
REM
REM compiler GCC version 9.2.1 20190827 (Red Hat 9.2.1-1)
REM options -cpp -mtune=generic -march=x86-64 -g -O0 -fpre-include=/usr/include/finclude/math-vector-fortran.h
REM seed -861507523 762527365 -220103774 -1748333756 534047344 -742098257 2121358126 -296191696 1465985667 974614798 1387835960 2074921885 1038176826 562551883 -650554925 -1587912115 -1853492801 -82500535 -1235252746 -529877655 2077612265 1222835725 1166069813 1467190614 329793429 -1270259141 -1276623653 1730547562 -1899113986 -973441372 61464794 -622884115 -1793219233
REM
CELL 1.54180   50.00000   50.00000   50.00000   90.00000   90.00000   90.00000
LATT -1
SFAC C  
C      1  0.4972050000000  0.5205270000000  0.4882910000000 1.0
C      1  0.4735570000000  0.5073350000000  0.4992550000000 1.0
C      1  0.4831870000000  0.4792040000000  0.4970870000000 1.0
C      1  0.5119850000000  0.4780260000000  0.4958440000000 1.0
C      1  0.5213160000000  0.5047680000000  0.4931670000000 1.0
C      1  0.5054910000000  0.4344350000000  0.5158500000000 1.0
C      1  0.5579530000000  0.4810080000000  0.5106480000000 1.0
C      1  0.5329580000000  0.5509220000000  0.5122880000000 1.0
C      1  0.4635540000000  0.5444360000000  0.5135470000000 1.0
C      1  0.4452120000000  0.4766950000000  0.5164220000000 1.0
C      1  0.5319390000000  0.4790790000000  0.5304790000000 1.0
C      1  0.5281860000000  0.5212750000000  0.5286140000000 1.0
C      1  0.4884510000000  0.5290930000000  0.5293080000000 1.0
C      1  0.4684570000000  0.4921400000000  0.5354570000000 1.0
C      1  0.4953310000000  0.4630360000000  0.5312600000000 1.0
C      1  0.5208520000000  0.5898680000000  0.5326100000000 1.0
C      1  0.3966200000000  0.5425530000000  0.5356670000000 1.0
C      1  0.4357620000000  0.4305330000000  0.5344230000000 1.0
C      1  0.5433740000000  0.4125960000000  0.5355670000000 1.0
C      1  0.5941540000000  0.5139650000000  0.5320750000000 1.0
C      1  0.5499890000000  0.4403180000000  0.4819310000000 1.0
C      1  0.5715860000000  0.5263890000000  0.4767450000000 1.0
C      1  0.4981400000000  0.5880220000000  0.4850080000000 1.0
C      1  0.4229310000000  0.5234010000000  0.4808810000000 1.0
C      1  0.4579090000000  0.4317970000000  0.4780170000000 1.0
C      1  0.5773060000000  0.4551640000000  0.4754220000000 1.0
C      1  0.5698380000000  0.5572090000000  0.4787240000000 1.0
C      1  0.4692550000000  0.5820780000000  0.4822700000000 1.0
C      1  0.4169900000000  0.4941690000000  0.4764880000000 1.0
C      1  0.4777470000000  0.4074700000000  0.4789650000000 1.0
C      1  0.5919170000000  0.5070900000000  0.5650930000000 1.0
C      1  0.5206220000000  0.5885620000000  0.5666100000000 1.0
C      1  0.4189120000000  0.5465560000000  0.5594620000000 1.0
C      1  0.4336610000000  0.4356250000000  0.5680580000000 1.0
C      1  0.5388130000000  0.4134200000000  0.5692610000000 1.0
C      1  0.5570080000000  0.4324480000000  0.4433640000000 1.0
C      1  0.5748950000000  0.5370420000000  0.4376270000000 1.0
C      1  0.4982730000000  0.5936540000000  0.4455830000000 1.0
C      1  0.4122010000000  0.5241640000000  0.4349850000000 1.0
C      1  0.4614180000000  0.4225910000000  0.4383940000000 1.0
C      1  0.5249800000000  0.6058810000000  0.4618240000000 1.0
C      1  0.4157990000000  0.5459550000000  0.4574550000000 1.0
C      1  0.4345990000000  0.4316930000000  0.4535140000000 1.0
C      1  0.5422250000000  0.4122830000000  0.4639270000000 1.0
C      1  0.5933300000000  0.5163200000000  0.4532470000000 1.0
C      1  0.5676110000000  0.4989160000000  0.4079350000000 1.0
C      1  0.5284460000000  0.5792910000000  0.4116550000000 1.0
C      1  0.4370280000000  0.5548860000000  0.4078250000000 1.0
C      1  0.4466680000000  0.4573120000000  0.4074940000000 1.0
C      1  0.5244030000000  0.4174520000000  0.4097070000000 1.0
C      1  0.5356620000000  0.6009920000000  0.5105640000000 1.0
C      1  0.3949500000000  0.5569820000000  0.5104540000000 1.0
C      1  0.4181500000000  0.4473620000000  0.5145980000000 1.0
C      1  0.5256420000000  0.3993690000000  0.5125950000000 1.0
C      1  0.5969040000000  0.4896290000000  0.5130830000000 1.0
C      1  0.5539520000000  0.4382760000000  0.5870400000000 1.0
C      1  0.5736990000000  0.5293080000000  0.5833670000000 1.0
C      1  0.4918100000000  0.5793010000000  0.5822260000000 1.0
C      1  0.4235390000000  0.5163620000000  0.5725120000000 1.0
C      1  0.4611530000000  0.4289260000000  0.5870570000000 1.0
C      1  0.4693810000000  0.4603220000000  0.4759750000000 1.0
C      1  0.5220890000000  0.4544900000000  0.4787230000000 1.0
C      1  0.5459990000000  0.5102010000000  0.4738840000000 1.0
C      1  0.5139820000000  0.5680030000000  0.4663440000000 1.0
C      1  0.4505170000000  0.5288460000000  0.4674460000000 1.0
C      1  0.6016780000000  0.4738870000000  0.4844440000000 1.0
C      1  0.5579080000000  0.5833890000000  0.4965740000000 1.0
C      1  0.4388050000000  0.5749490000000  0.4957980000000 1.0
C      1  0.4079820000000  0.4636270000000  0.4865160000000 1.0
C      1  0.5046540000000  0.3931710000000  0.4923240000000 1.0
C      1  0.5444970000000  0.5425150000000  0.5828670000000 1.0
C      1  0.4705220000000  0.5549820000000  0.5809500000000 1.0
C      1  0.4385420000000  0.4931890000000  0.5833380000000 1.0
C      1  0.4922080000000  0.4381880000000  0.5874200000000 1.0
C      1  0.5552270000000  0.4706920000000  0.5860460000000 1.0
C      1  0.5850010000000  0.4510190000000  0.4441730000000 1.0
C      1  0.5750720000000  0.5687530000000  0.4491210000000 1.0
C      1  0.4651940000000  0.5905830000000  0.4517210000000 1.0
C      1  0.4125720000000  0.4945560000000  0.4445460000000 1.0
C      1  0.4805260000000  0.3964600000000  0.4486400000000 1.0
C      1  0.5366340000000  0.5528140000000  0.4825090000000 1.0
C      1  0.4674090000000  0.5495050000000  0.4851060000000 1.0
C      1  0.4446580000000  0.4793620000000  0.4867180000000 1.0
C      1  0.4998400000000  0.4321360000000  0.4852210000000 1.0
C      1  0.5542970000000  0.4798860000000  0.4795310000000 1.0
C      1  0.5467920000000  0.5705110000000  0.4319160000000 1.0
C      1  0.4509000000000  0.5687490000000  0.4307040000000 1.0
C      1  0.4344800000000  0.4751340000000  0.4282540000000 1.0
C      1  0.5030540000000  0.4134040000000  0.4300890000000 1.0
C      1  0.5706200000000  0.4774150000000  0.4285810000000 1.0
C      1  0.3860890000000  0.5139830000000  0.5354610000000 1.0
C      1  0.4488670000000  0.4042060000000  0.5285890000000 1.0
C      1  0.5718650000000  0.4181170000000  0.5287870000000 1.0
C      1  0.5997590000000  0.5419430000000  0.5262950000000 1.0
C      1  0.4920810000000  0.6012190000000  0.5341140000000 1.0
C      1  0.5339880000000  0.5043420000000  0.5778270000000 1.0
C      1  0.5065360000000  0.5324760000000  0.5755680000000 1.0
C      1  0.4709020000000  0.5154590000000  0.5758860000000 1.0
C      1  0.4781600000000  0.4779540000000  0.5858160000000 1.0
C      1  0.5159690000000  0.4692770000000  0.5791780000000 1.0
C      1  0.4897240000000  0.4349950000000  0.4528170000000 1.0
C      1  0.5480050000000  0.4643860000000  0.4500690000000 1.0
C      1  0.5444280000000  0.5432210000000  0.4514220000000 1.0
C      1  0.4692610000000  0.5510070000000  0.4511150000000 1.0
C      1  0.4505220000000  0.4875840000000  0.4542770000000 1.0
C      1  0.4636830000000  0.4999310000000  0.6054860000000 1.0
C      1  0.4984420000000  0.4647180000000  0.6079950000000 1.0
C      1  0.5310430000000  0.4853110000000  0.6053920000000 1.0
C      1  0.5238480000000  0.5245070000000  0.6034020000000 1.0
C      1  0.4848700000000  0.5319930000000  0.6019210000000 1.0
C      1  0.5430180000000  0.5666550000000  0.5583830000000 1.0
C      1  0.4465020000000  0.5593380000000  0.5567870000000 1.0
C      1  0.4300940000000  0.4667930000000  0.5633920000000 1.0
C      1  0.5078530000000  0.4186960000000  0.5640940000000 1.0
C      1  0.5771340000000  0.4790720000000  0.5610420000000 1.0
C      1  0.5139160000000  0.4673220000000  0.3870490000000 1.0
C      1  0.5253420000000  0.4962310000000  0.3876620000000 1.0
C      1  0.5017360000000  0.5166820000000  0.3886550000000 1.0
C      1  0.4757190000000  0.5005650000000  0.3861200000000 1.0
C      1  0.4833720000000  0.4707170000000  0.3899790000000 1.0
C      1  0.5581670000000  0.5089660000000  0.5262870000000 1.0
C      1  0.5053150000000  0.5571180000000  0.5260380000000 1.0
C      1  0.4500450000000  0.5159430000000  0.5224360000000 1.0
C      1  0.4640090000000  0.4530200000000  0.5290270000000 1.0
C      1  0.5318450000000  0.4470280000000  0.5293850000000 1.0
C      1  0.5857980000000  0.4386040000000  0.5284770000000 1.0
C      1  0.5855670000000  0.5622060000000  0.5265530000000 1.0
C      1  0.4683860000000  0.5957270000000  0.5315160000000 1.0
C      1  0.3948910000000  0.4911100000000  0.5346090000000 1.0
C      1  0.4728040000000  0.3974450000000  0.5312420000000 1.0
C      1  0.4763770000000  0.4820550000000  0.4213040000000 1.0
C      1  0.5096970000000  0.4776890000000  0.4192730000000 1.0
C      1  0.5245570000000  0.5069580000000  0.4196610000000 1.0
C      1  0.5021070000000  0.5326710000000  0.4186030000000 1.0
C      1  0.4731470000000  0.5152170000000  0.4164250000000 1.0
C      1  0.4836530000000  0.4663690000000  0.4472670000000 1.0
C      1  0.5169530000000  0.4637760000000  0.4473420000000 1.0
C      1  0.5258120000000  0.5182310000000  0.4479500000000 1.0
C      1  0.5000180000000  0.5512810000000  0.4442280000000 1.0
C      1  0.4690180000000  0.5111810000000  0.4476840000000 1.0
C      1  0.4255900000000  0.5202470000000  0.5387280000000 1.0
C      1  0.4654800000000  0.4411260000000  0.5580470000000 1.0
C      1  0.5434290000000  0.4451210000000  0.5579240000000 1.0
C      1  0.5626640000000  0.5209300000000  0.5547950000000 1.0
C      1  0.4970920000000  0.5667820000000  0.5538260000000 1.0
C      1  0.4182360000000  0.4722390000000  0.5353100000000 1.0
C      1  0.4987730000000  0.4098900000000  0.5353570000000 1.0
C      1  0.5818420000000  0.4684650000000  0.5314140000000 1.0
C      1  0.5550840000000  0.5698330000000  0.5280530000000 1.0
C      1  0.4506320000000  0.5710740000000  0.5274430000000 1.0
C      1  0.5972590000000  0.5067600000000  0.4846600000000 1.0
C      1  0.5170470000000  0.6108230000000  0.4909790000000 1.0
C      1  0.4147240000000  0.5551210000000  0.4902300000000 1.0
C      1  0.4253770000000  0.4351660000000  0.4850690000000 1.0
C      1  0.5496670000000  0.4103180000000  0.4962410000000 1.0
C      1  0.4579240000000  0.4350390000000  0.4102330000000 1.0
C      1  0.5479490000000  0.4243610000000  0.4148560000000 1.0
C      1  0.5702800000000  0.5237600000000  0.4100780000000 1.0
C      1  0.5057500000000  0.5893210000000  0.4167360000000 1.0
C      1  0.4201710000000  0.5334640000000  0.4105380000000 1.0
C      1  0.5040410000000  0.4506510000000  0.5578950000000 1.0
C      1  0.5455030000000  0.4849970000000  0.5566930000000 1.0
C      1  0.5271410000000  0.5388410000000  0.5538760000000 1.0
C      1  0.4685630000000  0.5353430000000  0.5527060000000 1.0
C      1  0.4597360000000  0.4802870000000  0.5610280000000 1.0
C      1  0.4176910000000  0.4612570000000  0.4539970000000 1.0
C      1  0.5127190000000  0.4014720000000  0.4605030000000 1.0
C      1  0.5942080000000  0.4832140000000  0.4524910000000 1.0
C      1  0.5511390000000  0.5887740000000  0.4633230000000 1.0
C      1  0.4368870000000  0.5723810000000  0.4616070000000 1.0
C      1  0.4959850000000  0.5221790000000  0.4583050000000 1.0
C      1  0.4991190000000  0.5004610000000  0.6111890000000 1.0
C      1  0.5004590000000  0.4985620000000  0.5667480000000 1.0
C      1  0.5025980000000  0.4974970000000  0.5323850000000 1.0
END
