TITL C-2782240-8521-1472 -0.00294664631846475 125000 -866.108528991948 0 0 147 (C1) n - 1
REM
REM in /home/nfs/bkarasulu/CARBON/AIRSS/Generating-Clusters/REBO/Higher-Symm/SD-CG/HFTN-CG
REM
REM
REM
REM
REM
REM ./C.cell (12c818d87b63d06a65506943cc24bca4)
REM
REM compiler GCC version 9.2.1 20190827 (Red Hat 9.2.1-1)
REM options -cpp -mtune=generic -march=x86-64 -g -O0 -fpre-include=/usr/include/finclude/math-vector-fortran.h
REM seed -629357772 1916778271 551295048 1553738411 1536849339 -1255041916 396929658 -1497527865 436703279 966528785 -1771333602 -823674909 489548286 247513930 1595055332 1008258698 -2044564701 342965887 1931544100 -1296471203 -1649142888 1810452645 2136211788 -2017714540 1891592949 478873018 -918641438 1464986554 876543177 -1342232554 -1122000717 -626857789 -372968467
REM
CELL 1.54180   50.00000   50.00000   50.00000   90.00000   90.00000   90.00000
LATT -1
SFAC C  
C      1  0.5509840000000  0.5154070000000  0.4243410000000 1.0
C      1  0.5311370000000  0.4302410000000  0.5205100000000 1.0
C      1  0.5397310000000  0.5555480000000  0.5442090000000 1.0
C      1  0.4649320000000  0.5145990000000  0.4302320000000 1.0
C      1  0.4843760000000  0.4355740000000  0.5302420000000 1.0
C      1  0.4627790000000  0.5521810000000  0.5418640000000 1.0
C      1  0.5403510000000  0.4895370000000  0.4377800000000 1.0
C      1  0.5307080000000  0.5519800000000  0.5131110000000 1.0
C      1  0.5391900000000  0.4410520000000  0.5484170000000 1.0
C      1  0.4580780000000  0.4842650000000  0.4294710000000 1.0
C      1  0.4816530000000  0.5700550000000  0.5341300000000 1.0
C      1  0.4632150000000  0.4478920000000  0.5498290000000 1.0
C      1  0.5913930000000  0.5431970000000  0.4705500000000 1.0
C      1  0.5833580000000  0.4432550000000  0.4946690000000 1.0
C      1  0.5792570000000  0.5092150000000  0.5534320000000 1.0
C      1  0.4191540000000  0.5454830000000  0.4479820000000 1.0
C      1  0.4105250000000  0.4363860000000  0.4705930000000 1.0
C      1  0.4180640000000  0.5140980000000  0.5630840000000 1.0
C      1  0.5867970000000  0.4552350000000  0.4700660000000 1.0
C      1  0.5857910000000  0.5571520000000  0.4941130000000 1.0
C      1  0.5773310000000  0.4841030000000  0.5522400000000 1.0
C      1  0.4162330000000  0.4501550000000  0.4499940000000 1.0
C      1  0.4107210000000  0.5584330000000  0.4682910000000 1.0
C      1  0.4166650000000  0.4886540000000  0.5640940000000 1.0
C      1  0.5625680000000  0.4524730000000  0.5787790000000 1.0
C      1  0.5565420000000  0.5934040000000  0.5134800000000 1.0
C      1  0.5577110000000  0.4656470000000  0.3957460000000 1.0
C      1  0.4390290000000  0.4505690000000  0.5813210000000 1.0
C      1  0.4398530000000  0.5909080000000  0.5057470000000 1.0
C      1  0.4434270000000  0.4491860000000  0.4181080000000 1.0
C      1  0.5655550000000  0.5488920000000  0.5768050000000 1.0
C      1  0.5628310000000  0.4036000000000  0.5119420000000 1.0
C      1  0.5653210000000  0.5435270000000  0.4000950000000 1.0
C      1  0.4468690000000  0.5508470000000  0.5781980000000 1.0
C      1  0.4472150000000  0.4078440000000  0.5085720000000 1.0
C      1  0.4429530000000  0.5453960000000  0.4175620000000 1.0
C      1  0.5483000000000  0.4524210000000  0.4255010000000 1.0
C      1  0.5478210000000  0.4840440000000  0.5791650000000 1.0
C      1  0.5415580000000  0.5865720000000  0.4836310000000 1.0
C      1  0.4540150000000  0.4374130000000  0.4488250000000 1.0
C      1  0.4524920000000  0.4830190000000  0.5806210000000 1.0
C      1  0.4497030000000  0.5737690000000  0.4774220000000 1.0
C      1  0.5547060000000  0.5545940000000  0.4306670000000 1.0
C      1  0.5492390000000  0.5180770000000  0.5795260000000 1.0
C      1  0.5436710000000  0.4108540000000  0.4846250000000 1.0
C      1  0.4561100000000  0.5603560000000  0.4468000000000 1.0
C      1  0.4540990000000  0.5170130000000  0.5799080000000 1.0
C      1  0.4514860000000  0.4228760000000  0.4779790000000 1.0
C      1  0.4351270000000  0.5261370000000  0.4992480000000 1.0
C      1  0.4401060000000  0.4845120000000  0.4769570000000 1.0
C      1  0.4363360000000  0.4846640000000  0.5228570000000 1.0
C      1  0.5603070000000  0.5265950000000  0.4971240000000 1.0
C      1  0.5607180000000  0.4852080000000  0.4742210000000 1.0
C      1  0.5528310000000  0.4851530000000  0.5206380000000 1.0
C      1  0.4349210000000  0.4701590000000  0.4998980000000 1.0
C      1  0.4411470000000  0.5118080000000  0.4764980000000 1.0
C      1  0.4373710000000  0.5120710000000  0.5223280000000 1.0
C      1  0.5547320000000  0.4709850000000  0.4972730000000 1.0
C      1  0.5639790000000  0.5127600000000  0.4735740000000 1.0
C      1  0.5568800000000  0.5122850000000  0.5204220000000 1.0
C      1  0.5681170000000  0.5315780000000  0.4486020000000 1.0
C      1  0.5511420000000  0.4394810000000  0.4989770000000 1.0
C      1  0.5525710000000  0.5269200000000  0.5468240000000 1.0
C      1  0.4471400000000  0.5280640000000  0.4527210000000 1.0
C      1  0.4287310000000  0.4405980000000  0.4966890000000 1.0
C      1  0.4453710000000  0.5253930000000  0.5480280000000 1.0
C      1  0.5637230000000  0.4671360000000  0.4482600000000 1.0
C      1  0.5536600000000  0.5585260000000  0.4944310000000 1.0
C      1  0.5472860000000  0.4711670000000  0.5475720000000 1.0
C      1  0.4426270000000  0.4693000000000  0.4521440000000 1.0
C      1  0.4273850000000  0.5549510000000  0.4955100000000 1.0
C      1  0.4421820000000  0.4735520000000  0.5496080000000 1.0
C      1  0.5715850000000  0.4383780000000  0.5499190000000 1.0
C      1  0.5781560000000  0.5743800000000  0.5214900000000 1.0
C      1  0.5726610000000  0.4869580000000  0.3885540000000 1.0
C      1  0.4326410000000  0.4353960000000  0.5515120000000 1.0
C      1  0.4227680000000  0.5727470000000  0.5241470000000 1.0
C      1  0.4274890000000  0.4792550000000  0.4165790000000 1.0
C      1  0.5723600000000  0.5615930000000  0.5479910000000 1.0
C      1  0.5796690000000  0.4264260000000  0.5234950000000 1.0
C      1  0.5710470000000  0.5130700000000  0.3985760000000 1.0
C      1  0.4337020000000  0.5632000000000  0.5493270000000 1.0
C      1  0.4272100000000  0.4237650000000  0.5261910000000 1.0
C      1  0.4332940000000  0.5127700000000  0.4168760000000 1.0
C      1  0.5255070000000  0.4659510000000  0.4045440000000 1.0
C      1  0.5329070000000  0.4478300000000  0.5870740000000 1.0
C      1  0.5262850000000  0.5988530000000  0.5182270000000 1.0
C      1  0.4699030000000  0.4573420000000  0.4027210000000 1.0
C      1  0.4683040000000  0.4472030000000  0.5892870000000 1.0
C      1  0.4647340000000  0.6027950000000  0.5186030000000 1.0
C      1  0.5330000000000  0.5474860000000  0.4059580000000 1.0
C      1  0.5368940000000  0.5558350000000  0.5840930000000 1.0
C      1  0.5342660000000  0.3908490000000  0.5172990000000 1.0
C      1  0.4725390000000  0.5488530000000  0.4113590000000 1.0
C      1  0.4749180000000  0.5614170000000  0.5832070000000 1.0
C      1  0.4739240000000  0.3987920000000  0.5196140000000 1.0
C      1  0.5190870000000  0.5625120000000  0.4751270000000 1.0
C      1  0.5187960000000  0.4562830000000  0.4628930000000 1.0
C      1  0.5122410000000  0.4899560000000  0.5621960000000 1.0
C      1  0.4876260000000  0.5566690000000  0.4870470000000 1.0
C      1  0.4870710000000  0.4654890000000  0.4548290000000 1.0
C      1  0.4806830000000  0.4836130000000  0.5523920000000 1.0
C      1  0.5160640000000  0.4291550000000  0.4788240000000 1.0
C      1  0.5222760000000  0.5328550000000  0.4599690000000 1.0
C      1  0.5151720000000  0.5232930000000  0.5598270000000 1.0
C      1  0.4853180000000  0.4434440000000  0.4802430000000 1.0
C      1  0.4903130000000  0.5423080000000  0.4567170000000 1.0
C      1  0.4839490000000  0.5168850000000  0.5537590000000 1.0
C      1  0.5194580000000  0.4821880000000  0.4821870000000 1.0
C      1  0.5140300000000  0.4850080000000  0.5303490000000 1.0
C      1  0.5215110000000  0.5244370000000  0.5063780000000 1.0
C      1  0.4788050000000  0.4924760000000  0.4709420000000 1.0
C      1  0.4759260000000  0.4815130000000  0.5187650000000 1.0
C      1  0.4797060000000  0.5290070000000  0.5033810000000 1.0
C      1  0.5228140000000  0.5107170000000  0.4814090000000 1.0
C      1  0.5168130000000  0.5128810000000  0.5300120000000 1.0
C      1  0.5128100000000  0.4706580000000  0.5078800000000 1.0
C      1  0.4803980000000  0.5191440000000  0.4753820000000 1.0
C      1  0.4773200000000  0.5113750000000  0.5239280000000 1.0
C      1  0.4759130000000  0.4717600000000  0.4926850000000 1.0
C      1  0.4813750000000  0.4444470000000  0.4295660000000 1.0
C      1  0.4842980000000  0.4739400000000  0.5851900000000 1.0
C      1  0.4771530000000  0.5868730000000  0.4930820000000 1.0
C      1  0.5146800000000  0.4489330000000  0.4311670000000 1.0
C      1  0.5167690000000  0.4749320000000  0.5902310000000 1.0
C      1  0.5084450000000  0.5905360000000  0.4912190000000 1.0
C      1  0.4876850000000  0.5642620000000  0.4341480000000 1.0
C      1  0.4852960000000  0.5307580000000  0.5848770000000 1.0
C      1  0.4818810000000  0.4116330000000  0.4895440000000 1.0
C      1  0.5208420000000  0.5568750000000  0.4356510000000 1.0
C      1  0.5189820000000  0.5304350000000  0.5907940000000 1.0
C      1  0.5129380000000  0.3978650000000  0.4917610000000 1.0
C      1  0.5102650000000  0.4900450000000  0.3990560000000 1.0
C      1  0.5166350000000  0.4266540000000  0.5685230000000 1.0
C      1  0.5129320000000  0.5981840000000  0.5433840000000 1.0
C      1  0.4788780000000  0.4883890000000  0.4034300000000 1.0
C      1  0.4840060000000  0.4284390000000  0.5693350000000 1.0
C      1  0.4797130000000  0.6009120000000  0.5459660000000 1.0
C      1  0.5207160000000  0.5187130000000  0.4084880000000 1.0
C      1  0.5222250000000  0.5746880000000  0.5634130000000 1.0
C      1  0.5229640000000  0.4050820000000  0.5428180000000 1.0
C      1  0.4879200000000  0.5210150000000  0.4081920000000 1.0
C      1  0.4910140000000  0.5811760000000  0.5712740000000 1.0
C      1  0.4913820000000  0.4067440000000  0.5447620000000 1.0
C      1  0.5056910000000  0.4442280000000  0.5143120000000 1.0
C      1  0.5137490000000  0.4880460000000  0.4393310000000 1.0
C      1  0.5046690000000  0.5654220000000  0.5220510000000 1.0
END
