TITL C-2782233-7966-1198 3.77529776905033e-05 125000 -1022.29247456485 0 0 174 (C1) n - 1
REM
REM in /home/nfs/bkarasulu/CARBON/AIRSS/Generating-Clusters/REBO/Higher-Symm/SD-CG/HFTN-CG
REM
REM
REM
REM
REM
REM ./C.cell (12c818d87b63d06a65506943cc24bca4)
REM
REM compiler GCC version 9.2.1 20190827 (Red Hat 9.2.1-1)
REM options -cpp -mtune=generic -march=x86-64 -g -O0 -fpre-include=/usr/include/finclude/math-vector-fortran.h
REM seed 2078183934 -303356248 -411549346 -1586613082 -1223328242 -1616556613 -1196831553 -1483513466 -221700138 -6768617 -1085191234 340431546 -1272438159 1112943256 -1047648655 1850627478 -42679045 -717577926 -2016574654 764116862 836780923 -820166161 517345105 869977753 -1471160931 -621722718 125890516 -59204297 1362472509 229833485 -144030800 -1716409040 -433680478
REM
CELL 1.54180   50.00000   50.00000   50.00000   90.00000   90.00000   90.00000
LATT -1
SFAC C  
C      1  0.4780990000000  0.4035750000000  0.4605350000000 1.0
C      1  0.4787980000000  0.4089050000000  0.5541470000000 1.0
C      1  0.4823780000000  0.4810710000000  0.6107110000000 1.0
C      1  0.4789740000000  0.5680080000000  0.5793000000000 1.0
C      1  0.4765850000000  0.6061590000000  0.4944740000000 1.0
C      1  0.4787400000000  0.5614500000000  0.4107760000000 1.0
C      1  0.4766460000000  0.4701830000000  0.3988410000000 1.0
C      1  0.5534990000000  0.5695030000000  0.4482000000000 1.0
C      1  0.5535680000000  0.5013810000000  0.4124490000000 1.0
C      1  0.5537340000000  0.4330020000000  0.4420520000000 1.0
C      1  0.5534930000000  0.4132340000000  0.5169860000000 1.0
C      1  0.5558490000000  0.4579370000000  0.5782560000000 1.0
C      1  0.5557740000000  0.5349460000000  0.5823910000000 1.0
C      1  0.5533160000000  0.5853400000000  0.5229040000000 1.0
C      1  0.5193070000000  0.5891870000000  0.5230460000000 1.0
C      1  0.5201490000000  0.5749220000000  0.4422640000000 1.0
C      1  0.5198040000000  0.5011000000000  0.4072680000000 1.0
C      1  0.5196400000000  0.4295110000000  0.4419800000000 1.0
C      1  0.5193560000000  0.4131830000000  0.5205420000000 1.0
C      1  0.5219500000000  0.4625010000000  0.5790600000000 1.0
C      1  0.5218690000000  0.5373410000000  0.5860610000000 1.0
C      1  0.5582930000000  0.5936310000000  0.4655860000000 1.0
C      1  0.5577280000000  0.5301980000000  0.4045210000000 1.0
C      1  0.5584300000000  0.4434900000000  0.4141690000000 1.0
C      1  0.5575150000000  0.3985110000000  0.4910520000000 1.0
C      1  0.5580770000000  0.4285830000000  0.5746030000000 1.0
C      1  0.5613480000000  0.5124200000000  0.6019800000000 1.0
C      1  0.5611700000000  0.5856710000000  0.5531030000000 1.0
C      1  0.5023840000000  0.4986070000000  0.5354230000000 1.0
C      1  0.5014140000000  0.5290620000000  0.5263350000000 1.0
C      1  0.4935560000000  0.5431030000000  0.5012130000000 1.0
C      1  0.4963260000000  0.5309680000000  0.4697740000000 1.0
C      1  0.5025760000000  0.4922780000000  0.4622490000000 1.0
C      1  0.5026170000000  0.4687270000000  0.4848300000000 1.0
C      1  0.5036320000000  0.4729090000000  0.5186570000000 1.0
C      1  0.4642620000000  0.4069010000000  0.4341550000000 1.0
C      1  0.4617230000000  0.3911740000000  0.5360510000000 1.0
C      1  0.4577460000000  0.4622190000000  0.6053400000000 1.0
C      1  0.4627060000000  0.5581400000000  0.6021420000000 1.0
C      1  0.4627750000000  0.6145760000000  0.5198890000000 1.0
C      1  0.4651900000000  0.5856460000000  0.4221660000000 1.0
C      1  0.4567090000000  0.4833900000000  0.3786320000000 1.0
C      1  0.4363430000000  0.4830050000000  0.5584910000000 1.0
C      1  0.4317920000000  0.5348730000000  0.5488720000000 1.0
C      1  0.4258720000000  0.5634140000000  0.5000900000000 1.0
C      1  0.4327600000000  0.5375200000000  0.4474920000000 1.0
C      1  0.4230240000000  0.4851350000000  0.4358680000000 1.0
C      1  0.4252220000000  0.4467630000000  0.4728740000000 1.0
C      1  0.4217320000000  0.4452740000000  0.5226680000000 1.0
C      1  0.5486140000000  0.4843880000000  0.5984540000000 1.0
C      1  0.5459360000000  0.5663000000000  0.5734050000000 1.0
C      1  0.5431870000000  0.5961510000000  0.4922490000000 1.0
C      1  0.5449030000000  0.5532520000000  0.4201530000000 1.0
C      1  0.5437930000000  0.4695920000000  0.4052110000000 1.0
C      1  0.5448930000000  0.4097050000000  0.4652210000000 1.0
C      1  0.5457210000000  0.4147190000000  0.5500870000000 1.0
C      1  0.5107000000000  0.4722480000000  0.3964020000000 1.0
C      1  0.5121380000000  0.4028950000000  0.4583350000000 1.0
C      1  0.5126440000000  0.4062390000000  0.5509600000000 1.0
C      1  0.5160920000000  0.4775620000000  0.6066470000000 1.0
C      1  0.5130040000000  0.5679130000000  0.5831940000000 1.0
C      1  0.5105380000000  0.6056920000000  0.4963330000000 1.0
C      1  0.5128520000000  0.5630790000000  0.4133310000000 1.0
C      1  0.5719170000000  0.4509780000000  0.4593970000000 1.0
C      1  0.5732640000000  0.4361710000000  0.5117450000000 1.0
C      1  0.5740440000000  0.4692780000000  0.5571050000000 1.0
C      1  0.5733810000000  0.5248930000000  0.5591640000000 1.0
C      1  0.5714680000000  0.5602230000000  0.5181080000000 1.0
C      1  0.5679860000000  0.5475810000000  0.4647040000000 1.0
C      1  0.5696860000000  0.5003550000000  0.4385430000000 1.0
C      1  0.5208350000000  0.5479610000000  0.4833390000000 1.0
C      1  0.5235200000000  0.5175710000000  0.4563330000000 1.0
C      1  0.5289180000000  0.4775430000000  0.4541940000000 1.0
C      1  0.5285910000000  0.4529170000000  0.4950390000000 1.0
C      1  0.5311080000000  0.4602360000000  0.5284430000000 1.0
C      1  0.5295810000000  0.5009000000000  0.5505810000000 1.0
C      1  0.5284770000000  0.5396900000000  0.5326450000000 1.0
C      1  0.5517330000000  0.5084840000000  0.4649870000000 1.0
C      1  0.5549140000000  0.4762920000000  0.4714950000000 1.0
C      1  0.5596560000000  0.4650820000000  0.5014660000000 1.0
C      1  0.5575100000000  0.4793760000000  0.5317280000000 1.0
C      1  0.5557310000000  0.5107500000000  0.5359970000000 1.0
C      1  0.5533380000000  0.5336270000000  0.5141880000000 1.0
C      1  0.5466330000000  0.5337230000000  0.4851020000000 1.0
C      1  0.4815870000000  0.4533280000000  0.5266890000000 1.0
C      1  0.4817020000000  0.4963700000000  0.5599080000000 1.0
C      1  0.4807750000000  0.5296030000000  0.5507630000000 1.0
C      1  0.4696300000000  0.5615920000000  0.5075460000000 1.0
C      1  0.4775610000000  0.5327600000000  0.4438120000000 1.0
C      1  0.4795040000000  0.4983180000000  0.4439740000000 1.0
C      1  0.4795110000000  0.4516330000000  0.4743410000000 1.0
C      1  0.4594840000000  0.5803430000000  0.4852770000000 1.0
C      1  0.4591570000000  0.5348440000000  0.4176900000000 1.0
C      1  0.4637910000000  0.4715240000000  0.4301950000000 1.0
C      1  0.4636330000000  0.4240800000000  0.4815860000000 1.0
C      1  0.4655390000000  0.4376300000000  0.5489590000000 1.0
C      1  0.4650360000000  0.4970620000000  0.5871510000000 1.0
C      1  0.4634540000000  0.5588810000000  0.5503500000000 1.0
C      1  0.4897370000000  0.4643750000000  0.5678250000000 1.0
C      1  0.4888420000000  0.5288480000000  0.5825570000000 1.0
C      1  0.4860360000000  0.5825920000000  0.5274820000000 1.0
C      1  0.4884880000000  0.5643690000000  0.4494160000000 1.0
C      1  0.4864910000000  0.5061230000000  0.4132000000000 1.0
C      1  0.4875310000000  0.4399560000000  0.4468870000000 1.0
C      1  0.4882220000000  0.4252920000000  0.5130930000000 1.0
C      1  0.5874520000000  0.4769080000000  0.4483510000000 1.0
C      1  0.5893610000000  0.4443560000000  0.4847070000000 1.0
C      1  0.5888490000000  0.4545500000000  0.5326700000000 1.0
C      1  0.5894480000000  0.4971600000000  0.5561330000000 1.0
C      1  0.5891580000000  0.5422810000000  0.5377430000000 1.0
C      1  0.5859230000000  0.5536700000000  0.4905100000000 1.0
C      1  0.5853200000000  0.5253200000000  0.4516800000000 1.0
C      1  0.4548120000000  0.5886250000000  0.5356280000000 1.0
C      1  0.4601220000000  0.5810550000000  0.4524700000000 1.0
C      1  0.4575150000000  0.5055740000000  0.4003270000000 1.0
C      1  0.4597130000000  0.4373580000000  0.4294870000000 1.0
C      1  0.4595810000000  0.4083950000000  0.5111110000000 1.0
C      1  0.4586820000000  0.4551230000000  0.5764210000000 1.0
C      1  0.4576700000000  0.5286350000000  0.5954400000000 1.0
C      1  0.4024110000000  0.4708930000000  0.5173040000000 1.0
C      1  0.4180380000000  0.4965560000000  0.5340010000000 1.0
C      1  0.4182150000000  0.5271610000000  0.5187290000000 1.0
C      1  0.4178300000000  0.5339560000000  0.4869940000000 1.0
C      1  0.4146410000000  0.5137760000000  0.4619770000000 1.0
C      1  0.3977760000000  0.4862600000000  0.4586530000000 1.0
C      1  0.4006790000000  0.4641060000000  0.4829440000000 1.0
C      1  0.4513600000000  0.4671950000000  0.4760610000000 1.0
C      1  0.4472570000000  0.4609690000000  0.5084950000000 1.0
C      1  0.4587080000000  0.4779220000000  0.5330080000000 1.0
C      1  0.4505540000000  0.5106170000000  0.5338450000000 1.0
C      1  0.4510850000000  0.5339160000000  0.5087050000000 1.0
C      1  0.4497680000000  0.5269720000000  0.4751760000000 1.0
C      1  0.4449330000000  0.4964980000000  0.4599190000000 1.0
C      1  0.4354680000000  0.5632830000000  0.5304650000000 1.0
C      1  0.4359260000000  0.5636410000000  0.4673090000000 1.0
C      1  0.4340930000000  0.5127470000000  0.4240240000000 1.0
C      1  0.4354270000000  0.4555940000000  0.4415920000000 1.0
C      1  0.4334920000000  0.4255410000000  0.4975280000000 1.0
C      1  0.4359220000000  0.4502950000000  0.5511800000000 1.0
C      1  0.4388810000000  0.5133800000000  0.5719660000000 1.0
C      1  0.5238320000000  0.5754860000000  0.4743210000000 1.0
C      1  0.5250900000000  0.5277130000000  0.4274140000000 1.0
C      1  0.5261070000000  0.4596860000000  0.4309170000000 1.0
C      1  0.5263650000000  0.4233780000000  0.4894510000000 1.0
C      1  0.5280650000000  0.4429730000000  0.5525140000000 1.0
C      1  0.5286820000000  0.5048320000000  0.5803990000000 1.0
C      1  0.5275690000000  0.5656500000000  0.5462170000000 1.0
C      1  0.4978800000000  0.4052380000000  0.4881820000000 1.0
C      1  0.4998060000000  0.4318670000000  0.5679750000000 1.0
C      1  0.5015730000000  0.5063140000000  0.6001990000000 1.0
C      1  0.4986920000000  0.5770460000000  0.5546960000000 1.0
C      1  0.4947200000000  0.5908680000000  0.4699240000000 1.0
C      1  0.4981630000000  0.5343170000000  0.4095950000000 1.0
C      1  0.4963220000000  0.4516790000000  0.4184690000000 1.0
C      1  0.6069930000000  0.4983370000000  0.5327880000000 1.0
C      1  0.6069960000000  0.5250950000000  0.5219880000000 1.0
C      1  0.6054850000000  0.5322130000000  0.4940460000000 1.0
C      1  0.6051940000000  0.5151620000000  0.4706990000000 1.0
C      1  0.6062710000000  0.4862550000000  0.4688650000000 1.0
C      1  0.6071240000000  0.4671090000000  0.4905960000000 1.0
C      1  0.6066370000000  0.4730590000000  0.5188700000000 1.0
C      1  0.4544050000000  0.5712370000000  0.6232420000000 1.0
C      1  0.4580170000000  0.6391310000000  0.5278810000000 1.0
C      1  0.4585140000000  0.6073940000000  0.4090160000000 1.0
C      1  0.4455350000000  0.4783780000000  0.3558980000000 1.0
C      1  0.4570640000000  0.3878360000000  0.4175990000000 1.0
C      1  0.4516760000000  0.3675190000000  0.5408190000000 1.0
C      1  0.4401920000000  0.4546250000000  0.6232900000000 1.0
C      1  0.5154110000000  0.5049200000000  0.4978280000000 1.0
C      1  0.4367010000000  0.4980390000000  0.4987620000000 1.0
C      1  0.4888910000000  0.5037330000000  0.4980320000000 1.0
C      1  0.5400770000000  0.4979730000000  0.5016200000000 1.0
C      1  0.4111860000000  0.4923680000000  0.4952020000000 1.0
C      1  0.4635490000000  0.4975480000000  0.4984960000000 1.0
END
