TITL C-2782230-7391-1243 0.00495795733499616 125000 -868.436236994899 0 0 153 (C1) n - 1
REM
REM in /home/nfs/bkarasulu/CARBON/AIRSS/Generating-Clusters/REBO/Higher-Symm/SD-CG/HFTN-CG
REM
REM
REM
REM
REM
REM ./C.cell (12c818d87b63d06a65506943cc24bca4)
REM
REM compiler GCC version 9.2.1 20190827 (Red Hat 9.2.1-1)
REM options -cpp -mtune=generic -march=x86-64 -g -O0 -fpre-include=/usr/include/finclude/math-vector-fortran.h
REM seed -215613178 1681491109 -1878720609 341495455 -74608613 1159098314 -1651224808 666469586 -1290472128 -177909595 202441224 -886250801 1913200489 1371153635 -92067876 -1826559338 -1369984994 970771026 -1500907444 1090158938 1769328545 -417915358 -1802401491 -526279374 -480346891 -687002871 24768852 -181477879 -885087248 -1555060807 -1350687561 5450956 -1800019321
REM
CELL 1.54180   50.00000   50.00000   50.00000   90.00000   90.00000   90.00000
LATT -1
SFAC C  
C      1  0.5529560000000  0.4752490000000  0.4416980000000 1.0
C      1  0.4848060000000  0.5533700000000  0.4439460000000 1.0
C      1  0.4685510000000  0.4617640000000  0.4293110000000 1.0
C      1  0.5139930000000  0.4132020000000  0.4708700000000 1.0
C      1  0.5763600000000  0.5475830000000  0.4681190000000 1.0
C      1  0.4010480000000  0.5445560000000  0.4734250000000 1.0
C      1  0.5829000000000  0.5412330000000  0.5510360000000 1.0
C      1  0.4185090000000  0.5601780000000  0.5936150000000 1.0
C      1  0.4765690000000  0.4160510000000  0.5508080000000 1.0
C      1  0.4687030000000  0.5437280000000  0.5896580000000 1.0
C      1  0.4753940000000  0.4621470000000  0.5795870000000 1.0
C      1  0.5569720000000  0.5018610000000  0.5779600000000 1.0
C      1  0.4080920000000  0.5098300000000  0.5456310000000 1.0
C      1  0.5422080000000  0.4190220000000  0.5434370000000 1.0
C      1  0.5419560000000  0.5770670000000  0.5439020000000 1.0
C      1  0.4805950000000  0.4758670000000  0.4872990000000 1.0
C      1  0.5310840000000  0.4938970000000  0.4886540000000 1.0
C      1  0.4896380000000  0.5215280000000  0.4908500000000 1.0
C      1  0.5251000000000  0.6128410000000  0.5380860000000 1.0
C      1  0.3826020000000  0.4573820000000  0.5298760000000 1.0
C      1  0.5680120000000  0.4555160000000  0.5544330000000 1.0
C      1  0.5956490000000  0.5133170000000  0.4748930000000 1.0
C      1  0.4378020000000  0.5794200000000  0.4884670000000 1.0
C      1  0.4645130000000  0.4056360000000  0.4688210000000 1.0
C      1  0.5215240000000  0.5360320000000  0.4716970000000 1.0
C      1  0.4575380000000  0.5003270000000  0.4664550000000 1.0
C      1  0.5252450000000  0.4604170000000  0.4663720000000 1.0
C      1  0.4167290000000  0.4699440000000  0.4882110000000 1.0
C      1  0.5761630000000  0.4398600000000  0.4965230000000 1.0
C      1  0.5206140000000  0.5970030000000  0.4885510000000 1.0
C      1  0.3933670000000  0.5278310000000  0.5620090000000 1.0
C      1  0.5557410000000  0.4016960000000  0.5607650000000 1.0
C      1  0.5647660000000  0.5910940000000  0.5598550000000 1.0
C      1  0.5011080000000  0.5497030000000  0.5032260000000 1.0
C      1  0.4528720000000  0.4839040000000  0.5058890000000 1.0
C      1  0.5345240000000  0.4705330000000  0.5100470000000 1.0
C      1  0.5206020000000  0.5687650000000  0.4693400000000 1.0
C      1  0.4427700000000  0.4735550000000  0.4687000000000 1.0
C      1  0.5534200000000  0.4568430000000  0.4776410000000 1.0
C      1  0.4495500000000  0.5449040000000  0.5209960000000 1.0
C      1  0.4783680000000  0.4409940000000  0.5058080000000 1.0
C      1  0.5660760000000  0.5117040000000  0.5237350000000 1.0
C      1  0.4888060000000  0.4043710000000  0.4932350000000 1.0
C      1  0.5912240000000  0.5382650000000  0.4966630000000 1.0
C      1  0.4102200000000  0.5679960000000  0.4948850000000 1.0
C      1  0.4619950000000  0.4482040000000  0.4662530000000 1.0
C      1  0.5656260000000  0.4875210000000  0.4702250000000 1.0
C      1  0.4806080000000  0.5573120000000  0.4770640000000 1.0
C      1  0.5398740000000  0.4175360000000  0.4538150000000 1.0
C      1  0.5342470000000  0.5503480000000  0.4365900000000 1.0
C      1  0.4302850000000  0.5183760000000  0.4436460000000 1.0
C      1  0.5603970000000  0.5510440000000  0.4985030000000 1.0
C      1  0.4151820000000  0.5358970000000  0.5029620000000 1.0
C      1  0.5162020000000  0.4215600000000  0.5022550000000 1.0
C      1  0.5844060000000  0.4805870000000  0.5399520000000 1.0
C      1  0.4731650000000  0.5867610000000  0.5467990000000 1.0
C      1  0.4444790000000  0.4293140000000  0.5317180000000 1.0
C      1  0.4430970000000  0.4242390000000  0.4520060000000 1.0
C      1  0.5983950000000  0.4815430000000  0.4684910000000 1.0
C      1  0.4669520000000  0.5856690000000  0.4762500000000 1.0
C      1  0.4225070000000  0.5236690000000  0.4138610000000 1.0
C      1  0.5195170000000  0.4317940000000  0.4322940000000 1.0
C      1  0.5394210000000  0.5362380000000  0.4055820000000 1.0
C      1  0.4725810000000  0.5204810000000  0.4103600000000 1.0
C      1  0.5207900000000  0.4764180000000  0.4086890000000 1.0
C      1  0.5013930000000  0.5252740000000  0.4093020000000 1.0
C      1  0.4998080000000  0.4502610000000  0.5943200000000 1.0
C      1  0.5412930000000  0.5156870000000  0.6006140000000 1.0
C      1  0.4619310000000  0.5155080000000  0.5969900000000 1.0
C      1  0.4360690000000  0.5009260000000  0.5851320000000 1.0
C      1  0.5245350000000  0.4514080000000  0.5838560000000 1.0
C      1  0.5309910000000  0.5431010000000  0.5914760000000 1.0
C      1  0.5179320000000  0.5031670000000  0.5385190000000 1.0
C      1  0.4855900000000  0.5117020000000  0.5391020000000 1.0
C      1  0.4867990000000  0.4740050000000  0.5515990000000 1.0
C      1  0.5121760000000  0.5558820000000  0.4039940000000 1.0
C      1  0.4449700000000  0.5000660000000  0.4112620000000 1.0
C      1  0.5417970000000  0.4501080000000  0.4126800000000 1.0
C      1  0.5078430000000  0.5307370000000  0.5531750000000 1.0
C      1  0.4584140000000  0.4919200000000  0.5445470000000 1.0
C      1  0.5194220000000  0.4745080000000  0.5517710000000 1.0
C      1  0.4818730000000  0.4802560000000  0.4531130000000 1.0
C      1  0.5268340000000  0.4927260000000  0.4548860000000 1.0
C      1  0.4924650000000  0.5239770000000  0.4587800000000 1.0
C      1  0.5612780000000  0.5768330000000  0.5158220000000 1.0
C      1  0.4031520000000  0.5097340000000  0.5175820000000 1.0
C      1  0.5410900000000  0.4125510000000  0.5156600000000 1.0
C      1  0.4460130000000  0.5370470000000  0.3973440000000 1.0
C      1  0.5095990000000  0.4447140000000  0.4022150000000 1.0
C      1  0.5270330000000  0.5043000000000  0.4060340000000 1.0
C      1  0.5073150000000  0.4633900000000  0.4373570000000 1.0
C      1  0.5229370000000  0.5179920000000  0.4362420000000 1.0
C      1  0.4641500000000  0.5192850000000  0.4405530000000 1.0
C      1  0.4249540000000  0.4342830000000  0.5042300000000 1.0
C      1  0.5990110000000  0.4691190000000  0.5114100000000 1.0
C      1  0.4791670000000  0.5990910000000  0.5166980000000 1.0
C      1  0.5526920000000  0.5655820000000  0.4607740000000 1.0
C      1  0.4133220000000  0.5176150000000  0.4672690000000 1.0
C      1  0.5589550000000  0.4014450000000  0.4724770000000 1.0
C      1  0.4735650000000  0.5085030000000  0.5115990000000 1.0
C      1  0.4871560000000  0.4701460000000  0.5204320000000 1.0
C      1  0.5372390000000  0.5108190000000  0.5163230000000 1.0
C      1  0.5809770000000  0.5711220000000  0.5428140000000 1.0
C      1  0.3989200000000  0.5473010000000  0.5801080000000 1.0
C      1  0.5684110000000  0.3854750000000  0.5769880000000 1.0
C      1  0.4793270000000  0.5575960000000  0.5604360000000 1.0
C      1  0.4612420000000  0.4439960000000  0.5574860000000 1.0
C      1  0.5794830000000  0.5071530000000  0.5550050000000 1.0
C      1  0.5708530000000  0.4986890000000  0.4316010000000 1.0
C      1  0.4544650000000  0.5621580000000  0.4418830000000 1.0
C      1  0.4779450000000  0.4360310000000  0.4287560000000 1.0
C      1  0.4955670000000  0.4486040000000  0.4725620000000 1.0
C      1  0.5505340000000  0.5179460000000  0.4738180000000 1.0
C      1  0.4583900000000  0.5311560000000  0.4781830000000 1.0
C      1  0.5109290000000  0.6042930000000  0.5178020000000 1.0
C      1  0.4018880000000  0.4545480000000  0.5130210000000 1.0
C      1  0.5840560000000  0.4434040000000  0.5280510000000 1.0
C      1  0.5568830000000  0.4427040000000  0.4404610000000 1.0
C      1  0.5075390000000  0.5708490000000  0.4317730000000 1.0
C      1  0.4437810000000  0.4738790000000  0.4192490000000 1.0
C      1  0.4421560000000  0.5559070000000  0.4663450000000 1.0
C      1  0.4880910000000  0.4208000000000  0.4543000000000 1.0
C      1  0.5749460000000  0.5204530000000  0.4499520000000 1.0
C      1  0.4925390000000  0.4030500000000  0.5671030000000 1.0
C      1  0.5569720000000  0.5356860000000  0.5701410000000 1.0
C      1  0.4449780000000  0.5615100000000  0.5987430000000 1.0
C      1  0.4532630000000  0.4217220000000  0.4941260000000 1.0
C      1  0.5921600000000  0.4994630000000  0.5055990000000 1.0
C      1  0.4569260000000  0.5736220000000  0.5130310000000 1.0
C      1  0.5325620000000  0.5385100000000  0.5027740000000 1.0
C      1  0.4417980000000  0.5160550000000  0.5107800000000 1.0
C      1  0.5109970000000  0.4511910000000  0.5093140000000 1.0
C      1  0.4496620000000  0.4627570000000  0.5313490000000 1.0
C      1  0.5545340000000  0.4701890000000  0.5264920000000 1.0
C      1  0.4855100000000  0.5610580000000  0.5271120000000 1.0
C      1  0.5316790000000  0.5524830000000  0.5578790000000 1.0
C      1  0.4326470000000  0.5014800000000  0.5570580000000 1.0
C      1  0.5303970000000  0.4421640000000  0.5534850000000 1.0
C      1  0.5629670000000  0.4121780000000  0.4974530000000 1.0
C      1  0.5505790000000  0.5875930000000  0.4866530000000 1.0
C      1  0.4088760000000  0.4990140000000  0.4892140000000 1.0
C      1  0.6050980000000  0.4526720000000  0.4839500000000 1.0
C      1  0.4887670000000  0.6085220000000  0.4853590000000 1.0
C      1  0.4207700000000  0.4405320000000  0.4713490000000 1.0
C      1  0.4312930000000  0.4549410000000  0.4420700000000 1.0
C      1  0.5819490000000  0.4529030000000  0.4592000000000 1.0
C      1  0.4960760000000  0.5888680000000  0.4582800000000 1.0
C      1  0.3899350000000  0.5858880000000  0.5078370000000 1.0
C      1  0.4687600000000  0.4072890000000  0.5208810000000 1.0
C      1  0.5973630000000  0.5267290000000  0.5254800000000 1.0
C      1  0.4610340000000  0.4832140000000  0.5951980000000 1.0
C      1  0.5468740000000  0.4733360000000  0.5718490000000 1.0
C      1  0.5009230000000  0.5451510000000  0.5822090000000 1.0
END
