TITL C-2782229-3092-601 -0.000493838357858102 125000 -269.659872802458 0 0 46 (C1) n - 1
REM
REM in /home/nfs/bkarasulu/CARBON/AIRSS/Generating-Clusters/REBO/Higher-Symm/SD-CG/HFTN-CG
REM
REM
REM
REM
REM
REM ./C.cell (12c818d87b63d06a65506943cc24bca4)
REM
REM compiler GCC version 9.2.1 20190827 (Red Hat 9.2.1-1)
REM options -cpp -mtune=generic -march=x86-64 -g -O0 -fpre-include=/usr/include/finclude/math-vector-fortran.h
REM seed 1843759400 2134857699 1342068112 834908194 -539208978 1450010966 -1000418830 1786380167 -549741757 -2066151023 221705865 -1590722498 -1912470270 1776386209 992621266 1299748924 -1745406795 -1989131806 -1248025668 -1428836275 1800997912 -1544993084 746391239 474425168 505658035 -1377465651 -1992801741 -562269786 1872393226 -1264008583 -8094509 -1004037160 876988102
REM
CELL 1.54180   50.00000   50.00000   50.00000   90.00000   90.00000   90.00000
LATT -1
SFAC C  
C      1  0.4385160000000  0.5177730000000  0.5239760000000 1.0
C      1  0.5459840000000  0.5461890000000  0.5239360000000 1.0
C      1  0.5150460000000  0.4388310000000  0.5213160000000 1.0
C      1  0.5117230000000  0.4736090000000  0.5018590000000 1.0
C      1  0.4701870000000  0.5038990000000  0.5039950000000 1.0
C      1  0.5207810000000  0.5241620000000  0.5021760000000 1.0
C      1  0.4797060000000  0.5242620000000  0.5203160000000 1.0
C      1  0.5332920000000  0.5068880000000  0.5195710000000 1.0
C      1  0.4889160000000  0.4716980000000  0.5182410000000 1.0
C      1  0.5497630000000  0.5014560000000  0.4705320000000 1.0
C      1  0.4795130000000  0.4548750000000  0.4674910000000 1.0
C      1  0.4757970000000  0.5387220000000  0.4719730000000 1.0
C      1  0.4653160000000  0.5532390000000  0.4968850000000 1.0
C      1  0.5657730000000  0.5056170000000  0.4962780000000 1.0
C      1  0.4709090000000  0.4457170000000  0.4938380000000 1.0
C      1  0.4551270000000  0.5093920000000  0.5479480000000 1.0
C      1  0.5305590000000  0.5350260000000  0.5476860000000 1.0
C      1  0.5148650000000  0.4575470000000  0.5450420000000 1.0
C      1  0.4971080000000  0.5464380000000  0.5049040000000 1.0
C      1  0.5447100000000  0.4815180000000  0.5047270000000 1.0
C      1  0.4586740000000  0.4727950000000  0.5061370000000 1.0
C      1  0.5360360000000  0.4748840000000  0.4555240000000 1.0
C      1  0.4634780000000  0.4778200000000  0.4561660000000 1.0
C      1  0.5006950000000  0.5426260000000  0.4544140000000 1.0
C      1  0.4450240000000  0.5443920000000  0.5144660000000 1.0
C      1  0.5664900000000  0.5283060000000  0.5134270000000 1.0
C      1  0.4887290000000  0.4321810000000  0.5113410000000 1.0
C      1  0.5021690000000  0.5193570000000  0.4363570000000 1.0
C      1  0.5141760000000  0.4881700000000  0.4339680000000 1.0
C      1  0.4806290000000  0.4929450000000  0.4368580000000 1.0
C      1  0.5434480000000  0.4576480000000  0.4840010000000 1.0
C      1  0.4451510000000  0.4859660000000  0.4785510000000 1.0
C      1  0.5150600000000  0.5556260000000  0.4783870000000 1.0
C      1  0.5337910000000  0.5619110000000  0.5024750000000 1.0
C      1  0.5350670000000  0.4366520000000  0.5003530000000 1.0
C      1  0.4304440000000  0.5005790000000  0.5017670000000 1.0
C      1  0.4770090000000  0.5099470000000  0.4771400000000 1.0
C      1  0.5238220000000  0.5144030000000  0.4755780000000 1.0
C      1  0.5070520000000  0.4670870000000  0.4705530000000 1.0
C      1  0.4797080000000  0.5290300000000  0.5497460000000 1.0
C      1  0.5356040000000  0.5040230000000  0.5489910000000 1.0
C      1  0.4861100000000  0.4691160000000  0.5480170000000 1.0
C      1  0.4632040000000  0.4832900000000  0.5574800000000 1.0
C      1  0.5042160000000  0.5411230000000  0.5581280000000 1.0
C      1  0.5338040000000  0.4763900000000  0.5563970000000 1.0
C      1  0.5016220000000  0.4983040000000  0.4702640000000 1.0
END
