TITL C-2782240-8521-92 -0.00341604682423499 125000 -1094.69389621622 0 0 190 (C1) n - 1
REM
REM in /home/nfs/bkarasulu/CARBON/AIRSS/Generating-Clusters/REBO/Higher-Symm/SD-CG/HFTN-CG
REM
REM
REM
REM
REM
REM ./C.cell (12c818d87b63d06a65506943cc24bca4)
REM
REM compiler GCC version 9.2.1 20190827 (Red Hat 9.2.1-1)
REM options -cpp -mtune=generic -march=x86-64 -g -O0 -fpre-include=/usr/include/finclude/math-vector-fortran.h
REM seed -769088454 -1691013041 944672195 132701088 6145410 330007874 -1903461841 1903583809 1825009768 130309052 -501259601 -1147820383 -971544941 -801546706 -1975835034 -1091920880 -582794418 614340052 -184447856 -1681445604 -592894362 253555657 -1883808978 -1541817194 1699948022 -1382692719 -981554948 198196500 -1725193592 536656241 -1727153786 -647729350 -64491598
REM
CELL 1.54180   50.00000   50.00000   50.00000   90.00000   90.00000   90.00000
LATT -1
SFAC C  
C      1  0.5041110000000  0.6033480000000  0.5174450000000 1.0
C      1  0.5256130000000  0.6025530000000  0.4904730000000 1.0
C      1  0.4918990000000  0.6068420000000  0.4853020000000 1.0
C      1  0.5037380000000  0.3895860000000  0.5126310000000 1.0
C      1  0.5216100000000  0.4001350000000  0.4850000000000 1.0
C      1  0.4892140000000  0.3895130000000  0.4817840000000 1.0
C      1  0.4948030000000  0.4800370000000  0.5374580000000 1.0
C      1  0.5404320000000  0.4792480000000  0.4855840000000 1.0
C      1  0.4633150000000  0.4860680000000  0.4734630000000 1.0
C      1  0.4880580000000  0.5122200000000  0.5419300000000 1.0
C      1  0.5399790000000  0.5105090000000  0.4861520000000 1.0
C      1  0.4638580000000  0.5178060000000  0.4715280000000 1.0
C      1  0.4088520000000  0.5664830000000  0.5493360000000 1.0
C      1  0.5909120000000  0.5642010000000  0.5555280000000 1.0
C      1  0.4905250000000  0.5608250000000  0.4012190000000 1.0
C      1  0.4103570000000  0.4295750000000  0.5437040000000 1.0
C      1  0.5839370000000  0.4379170000000  0.5572860000000 1.0
C      1  0.4963650000000  0.4331020000000  0.4092640000000 1.0
C      1  0.5888560000000  0.5163070000000  0.5243810000000 1.0
C      1  0.4668390000000  0.5230080000000  0.4132700000000 1.0
C      1  0.4332650000000  0.5126920000000  0.5636260000000 1.0
C      1  0.5894760000000  0.4821080000000  0.5258880000000 1.0
C      1  0.4747130000000  0.4899480000000  0.4108890000000 1.0
C      1  0.4367730000000  0.4788990000000  0.5691220000000 1.0
C      1  0.4785580000000  0.3910110000000  0.4242360000000 1.0
C      1  0.4531790000000  0.4021100000000  0.5454180000000 1.0
C      1  0.5737180000000  0.4047510000000  0.5209480000000 1.0
C      1  0.4813480000000  0.6032380000000  0.4281940000000 1.0
C      1  0.4513640000000  0.5915630000000  0.5465130000000 1.0
C      1  0.5724380000000  0.5946850000000  0.5222670000000 1.0
C      1  0.4217660000000  0.5773000000000  0.4712710000000 1.0
C      1  0.5083750000000  0.5727730000000  0.5762350000000 1.0
C      1  0.5639650000000  0.5720460000000  0.4370210000000 1.0
C      1  0.4267490000000  0.4268920000000  0.4716720000000 1.0
C      1  0.5133650000000  0.4245290000000  0.5782610000000 1.0
C      1  0.5591490000000  0.4240420000000  0.4413010000000 1.0
C      1  0.5333900000000  0.4444120000000  0.4677870000000 1.0
C      1  0.4528780000000  0.4521460000000  0.4919080000000 1.0
C      1  0.5126370000000  0.4481760000000  0.5483820000000 1.0
C      1  0.5371620000000  0.5543180000000  0.4651480000000 1.0
C      1  0.4541810000000  0.5569900000000  0.4827280000000 1.0
C      1  0.5137650000000  0.5476550000000  0.5457270000000 1.0
C      1  0.5239180000000  0.5760720000000  0.5197000000000 1.0
C      1  0.5188970000000  0.5896220000000  0.4618970000000 1.0
C      1  0.4712660000000  0.5879200000000  0.5012370000000 1.0
C      1  0.5269170000000  0.4075270000000  0.5236170000000 1.0
C      1  0.5065260000000  0.4165690000000  0.4584780000000 1.0
C      1  0.4713970000000  0.4089630000000  0.5003230000000 1.0
C      1  0.5039640000000  0.4545250000000  0.5905490000000 1.0
C      1  0.5716480000000  0.4489060000000  0.4575740000000 1.0
C      1  0.4188240000000  0.4572370000000  0.4626980000000 1.0
C      1  0.5062710000000  0.5422820000000  0.5883880000000 1.0
C      1  0.5759180000000  0.5511300000000  0.4570470000000 1.0
C      1  0.4164240000000  0.5477580000000  0.4558920000000 1.0
C      1  0.4105620000000  0.5126810000000  0.4207720000000 1.0
C      1  0.4724450000000  0.5175300000000  0.6148960000000 1.0
C      1  0.6094130000000  0.5150570000000  0.4706020000000 1.0
C      1  0.4133730000000  0.4812580000000  0.4195830000000 1.0
C      1  0.4746980000000  0.4868760000000  0.6144530000000 1.0
C      1  0.6080410000000  0.4838690000000  0.4710510000000 1.0
C      1  0.4429290000000  0.4778960000000  0.4066250000000 1.0
C      1  0.4505810000000  0.4909140000000  0.5951880000000 1.0
C      1  0.6096990000000  0.4907090000000  0.5020210000000 1.0
C      1  0.4385550000000  0.5093550000000  0.4075780000000 1.0
C      1  0.4490480000000  0.5243370000000  0.5917750000000 1.0
C      1  0.6118370000000  0.5227760000000  0.5007480000000 1.0
C      1  0.4803280000000  0.5875200000000  0.4059080000000 1.0
C      1  0.4250560000000  0.5877320000000  0.5613490000000 1.0
C      1  0.5931830000000  0.5900490000000  0.5422520000000 1.0
C      1  0.4862920000000  0.4085020000000  0.4044170000000 1.0
C      1  0.4219510000000  0.4021660000000  0.5488940000000 1.0
C      1  0.5889580000000  0.4111250000000  0.5458120000000 1.0
C      1  0.5439980000000  0.4366490000000  0.5557740000000 1.0
C      1  0.5249800000000  0.4441420000000  0.4365480000000 1.0
C      1  0.4306500000000  0.4365630000000  0.5101510000000 1.0
C      1  0.5401740000000  0.5638140000000  0.5540250000000 1.0
C      1  0.5275830000000  0.5560350000000  0.4331920000000 1.0
C      1  0.4311110000000  0.5630650000000  0.5072180000000 1.0
C      1  0.5109680000000  0.5370910000000  0.4108250000000 1.0
C      1  0.4052010000000  0.5420710000000  0.5306260000000 1.0
C      1  0.5773850000000  0.5370070000000  0.5609190000000 1.0
C      1  0.5138250000000  0.4612760000000  0.4108200000000 1.0
C      1  0.4157690000000  0.4600600000000  0.5293930000000 1.0
C      1  0.5620540000000  0.4641870000000  0.5575750000000 1.0
C      1  0.4154770000000  0.4750500000000  0.4889660000000 1.0
C      1  0.5242780000000  0.4767030000000  0.5820070000000 1.0
C      1  0.5571700000000  0.4760490000000  0.4450610000000 1.0
C      1  0.4163070000000  0.5242460000000  0.4774600000000 1.0
C      1  0.5316430000000  0.5261360000000  0.5806980000000 1.0
C      1  0.5578450000000  0.5269920000000  0.4409570000000 1.0
C      1  0.5054410000000  0.4881450000000  0.3969670000000 1.0
C      1  0.4088470000000  0.4823610000000  0.5508440000000 1.0
C      1  0.5919220000000  0.4752200000000  0.5591780000000 1.0
C      1  0.5180100000000  0.5170930000000  0.3893950000000 1.0
C      1  0.4059440000000  0.5136570000000  0.5462100000000 1.0
C      1  0.5893990000000  0.5070310000000  0.5571730000000 1.0
C      1  0.4659460000000  0.5515710000000  0.4312680000000 1.0
C      1  0.4547610000000  0.5381490000000  0.5548260000000 1.0
C      1  0.5704430000000  0.5423970000000  0.5126970000000 1.0
C      1  0.4669080000000  0.4694780000000  0.4372870000000 1.0
C      1  0.4570190000000  0.4536180000000  0.5598850000000 1.0
C      1  0.5703340000000  0.4603990000000  0.5092060000000 1.0
C      1  0.4812570000000  0.4395430000000  0.4992850000000 1.0
C      1  0.5247580000000  0.4394800000000  0.5208950000000 1.0
C      1  0.5003720000000  0.4441360000000  0.4759950000000 1.0
C      1  0.4798220000000  0.5550540000000  0.5035570000000 1.0
C      1  0.5089920000000  0.5491000000000  0.5133430000000 1.0
C      1  0.5040680000000  0.5590170000000  0.4652540000000 1.0
C      1  0.4522390000000  0.5231080000000  0.4429420000000 1.0
C      1  0.4724540000000  0.5127170000000  0.5697900000000 1.0
C      1  0.5703430000000  0.5203760000000  0.4889090000000 1.0
C      1  0.4435260000000  0.4920510000000  0.4487460000000 1.0
C      1  0.4760140000000  0.4807130000000  0.5629260000000 1.0
C      1  0.5720950000000  0.4869600000000  0.4893690000000 1.0
C      1  0.5517900000000  0.4706930000000  0.6003100000000 1.0
C      1  0.5611500000000  0.4725970000000  0.4112920000000 1.0
C      1  0.3847610000000  0.4673620000000  0.4961490000000 1.0
C      1  0.5525140000000  0.5370100000000  0.6036750000000 1.0
C      1  0.5667050000000  0.5277080000000  0.4076830000000 1.0
C      1  0.3861250000000  0.5301130000000  0.4919770000000 1.0
C      1  0.4750130000000  0.5967990000000  0.5328100000000 1.0
C      1  0.5503080000000  0.5835530000000  0.5027630000000 1.0
C      1  0.4913900000000  0.6054860000000  0.4526270000000 1.0
C      1  0.4758030000000  0.3961820000000  0.5299790000000 1.0
C      1  0.5499490000000  0.4124510000000  0.4989740000000 1.0
C      1  0.4843160000000  0.3936420000000  0.4502520000000 1.0
C      1  0.5962450000000  0.4700600000000  0.4495000000000 1.0
C      1  0.4008870000000  0.4683210000000  0.4409320000000 1.0
C      1  0.4990560000000  0.4728740000000  0.6149750000000 1.0
C      1  0.5970510000000  0.5279890000000  0.4487440000000 1.0
C      1  0.3980730000000  0.5265050000000  0.4420040000000 1.0
C      1  0.4966370000000  0.5320720000000  0.6157140000000 1.0
C      1  0.4753810000000  0.5237720000000  0.5166250000000 1.0
C      1  0.5191600000000  0.5198270000000  0.5055470000000 1.0
C      1  0.4937590000000  0.5274400000000  0.4725070000000 1.0
C      1  0.4816730000000  0.4712820000000  0.5117240000000 1.0
C      1  0.5304950000000  0.4637920000000  0.5087590000000 1.0
C      1  0.4926010000000  0.4771330000000  0.4717490000000 1.0
C      1  0.5580830000000  0.4399180000000  0.4865780000000 1.0
C      1  0.4497470000000  0.4494710000000  0.4587720000000 1.0
C      1  0.4858690000000  0.4421780000000  0.5668170000000 1.0
C      1  0.5606840000000  0.5590060000000  0.4852770000000 1.0
C      1  0.4457760000000  0.5613650000000  0.4525960000000 1.0
C      1  0.4853480000000  0.5500620000000  0.5637520000000 1.0
C      1  0.4444380000000  0.4340420000000  0.5416660000000 1.0
C      1  0.5638770000000  0.4362770000000  0.5278360000000 1.0
C      1  0.4910040000000  0.4454850000000  0.4391130000000 1.0
C      1  0.4403530000000  0.5597360000000  0.5376310000000 1.0
C      1  0.5640580000000  0.5638010000000  0.5346980000000 1.0
C      1  0.4943100000000  0.5638830000000  0.4349820000000 1.0
C      1  0.5290390000000  0.4863460000000  0.6203390000000 1.0
C      1  0.5900650000000  0.4846840000000  0.4245820000000 1.0
C      1  0.3842190000000  0.4830550000000  0.4657960000000 1.0
C      1  0.5282670000000  0.5203500000000  0.6200340000000 1.0
C      1  0.5913190000000  0.5134490000000  0.4243480000000 1.0
C      1  0.3806930000000  0.5145630000000  0.4627080000000 1.0
C      1  0.5453690000000  0.5895690000000  0.4461560000000 1.0
C      1  0.4411390000000  0.5925240000000  0.4932980000000 1.0
C      1  0.5178290000000  0.5892700000000  0.5500660000000 1.0
C      1  0.5381300000000  0.4089300000000  0.4500280000000 1.0
C      1  0.4413790000000  0.4083650000000  0.4944500000000 1.0
C      1  0.5300410000000  0.4055590000000  0.5553820000000 1.0
C      1  0.5268460000000  0.4843760000000  0.4321460000000 1.0
C      1  0.4256630000000  0.4898050000000  0.5154920000000 1.0
C      1  0.5416110000000  0.4856780000000  0.5566250000000 1.0
C      1  0.5267520000000  0.5160690000000  0.4324660000000 1.0
C      1  0.4225040000000  0.5207340000000  0.5105070000000 1.0
C      1  0.5497650000000  0.5174250000000  0.5572680000000 1.0
C      1  0.5396830000000  0.5642050000000  0.5877270000000 1.0
C      1  0.5548130000000  0.5560550000000  0.4136710000000 1.0
C      1  0.4019310000000  0.5584270000000  0.4916760000000 1.0
C      1  0.5413270000000  0.4412210000000  0.5895160000000 1.0
C      1  0.5525260000000  0.4436990000000  0.4182970000000 1.0
C      1  0.4014750000000  0.4379280000000  0.4924610000000 1.0
C      1  0.5755180000000  0.5176740000000  0.5877410000000 1.0
C      1  0.5493990000000  0.5143140000000  0.3869700000000 1.0
C      1  0.3838440000000  0.5177550000000  0.5201090000000 1.0
C      1  0.5765380000000  0.4853760000000  0.5880230000000 1.0
C      1  0.5400910000000  0.4859680000000  0.3944470000000 1.0
C      1  0.3869030000000  0.4861230000000  0.5245070000000 1.0
C      1  0.5244640000000  0.5248780000000  0.4628770000000 1.0
C      1  0.4499860000000  0.5289820000000  0.4984140000000 1.0
C      1  0.5218380000000  0.5156070000000  0.5381480000000 1.0
C      1  0.5210200000000  0.4749820000000  0.4614620000000 1.0
C      1  0.4523030000000  0.4818490000000  0.5028340000000 1.0
C      1  0.5245710000000  0.4823210000000  0.5313970000000 1.0
C      1  0.5136420000000  0.5033930000000  0.5938500000000 1.0
C      1  0.4165180000000  0.4968860000000  0.4641620000000 1.0
C      1  0.5681860000000  0.5024720000000  0.4592670000000 1.0
C      1  0.4918710000000  0.5016350000000  0.4964020000000 1.0
END
