TITL C-2782230-7391-354 0.00102686803479367 125000 -228.494333372614 0 0 45 (C1) n - 1
REM
REM in /home/nfs/bkarasulu/CARBON/AIRSS/Generating-Clusters/REBO/Higher-Symm/SD-CG/HFTN-CG
REM
REM
REM
REM
REM
REM ./C.cell (12c818d87b63d06a65506943cc24bca4)
REM
REM compiler GCC version 9.2.1 20190827 (Red Hat 9.2.1-1)
REM options -cpp -mtune=generic -march=x86-64 -g -O0 -fpre-include=/usr/include/finclude/math-vector-fortran.h
REM seed 426011420 -485974024 -1779001248 -316771301 1989672451 -2109335814 -294249471 -2081615249 -1795654860 -2004511668 1004249629 -1959755212 -160330487 726552914 1539379178 1640313253 1758800864 2039616252 1682653031 1482767377 1086860509 663163761 921359956 177673329 -81135361 -632209696 36865732 303681775 690590515 228389894 161487905 213225045 1797768802
REM
CELL 1.54180   50.00000   50.00000   50.00000   90.00000   90.00000   90.00000
LATT -1
SFAC C  
C      1  0.4789920000000  0.4814980000000  0.5479720000000 1.0
C      1  0.5188970000000  0.4802580000000  0.5472780000000 1.0
C      1  0.5221830000000  0.5175840000000  0.5489460000000 1.0
C      1  0.4824080000000  0.5213310000000  0.5477580000000 1.0
C      1  0.4689860000000  0.4895310000000  0.4502260000000 1.0
C      1  0.5116080000000  0.4690540000000  0.4503390000000 1.0
C      1  0.5320050000000  0.5117070000000  0.4504030000000 1.0
C      1  0.4893960000000  0.5321330000000  0.4504360000000 1.0
C      1  0.5470620000000  0.4606810000000  0.4800910000000 1.0
C      1  0.5404390000000  0.5469550000000  0.4803300000000 1.0
C      1  0.4541260000000  0.5406020000000  0.4803450000000 1.0
C      1  0.4607990000000  0.4541360000000  0.4800870000000 1.0
C      1  0.5457920000000  0.4604330000000  0.5254000000000 1.0
C      1  0.5401690000000  0.5455050000000  0.5258320000000 1.0
C      1  0.4552170000000  0.5404470000000  0.5255770000000 1.0
C      1  0.4599070000000  0.4551560000000  0.5247970000000 1.0
C      1  0.5153920000000  0.5315590000000  0.4389420000000 1.0
C      1  0.4696550000000  0.5155260000000  0.4387550000000 1.0
C      1  0.4856500000000  0.4697150000000  0.4387810000000 1.0
C      1  0.5313820000000  0.4857500000000  0.4388350000000 1.0
C      1  0.5150460000000  0.5426050000000  0.5568100000000 1.0
C      1  0.4747410000000  0.5102600000000  0.5707990000000 1.0
C      1  0.4854760000000  0.4586250000000  0.5591540000000 1.0
C      1  0.5277060000000  0.4950800000000  0.5710810000000 1.0
C      1  0.4485130000000  0.5143600000000  0.4885520000000 1.0
C      1  0.4869430000000  0.4485440000000  0.4887080000000 1.0
C      1  0.5525280000000  0.4869050000000  0.4885490000000 1.0
C      1  0.5142000000000  0.5526210000000  0.4885380000000 1.0
C      1  0.4491590000000  0.5139490000000  0.5180030000000 1.0
C      1  0.4866420000000  0.4488670000000  0.5182140000000 1.0
C      1  0.5518450000000  0.4869230000000  0.5179430000000 1.0
C      1  0.5137520000000  0.5517100000000  0.5179000000000 1.0
C      1  0.4735030000000  0.4924320000000  0.5199510000000 1.0
C      1  0.5082870000000  0.4730510000000  0.5201440000000 1.0
C      1  0.5273830000000  0.5081550000000  0.5201210000000 1.0
C      1  0.4925880000000  0.5274910000000  0.5203100000000 1.0
C      1  0.4707210000000  0.4928130000000  0.4804050000000 1.0
C      1  0.5084140000000  0.4706850000000  0.4805730000000 1.0
C      1  0.5301850000000  0.5083670000000  0.4805980000000 1.0
C      1  0.4926630000000  0.5301600000000  0.4807300000000 1.0
C      1  0.4768050000000  0.5519300000000  0.5021210000000 1.0
C      1  0.4490060000000  0.4768350000000  0.5016740000000 1.0
C      1  0.5244910000000  0.4489760000000  0.5018570000000 1.0
C      1  0.5517340000000  0.5242860000000  0.5021610000000 1.0
C      1  0.5004490000000  0.5003540000000  0.4984110000000 1.0
END
