TITL C-2782234-8014-138 0.423008225781278 125000 -317.695377781596 0 0 57 (C1) n - 1
REM
REM in /home/nfs/bkarasulu/CARBON/AIRSS/Generating-Clusters/REBO/Higher-Symm/SD-CG/HFTN-CG
REM
REM
REM
REM
REM
REM ./C.cell (12c818d87b63d06a65506943cc24bca4)
REM
REM compiler GCC version 9.2.1 20190827 (Red Hat 9.2.1-1)
REM options -cpp -mtune=generic -march=x86-64 -g -O0 -fpre-include=/usr/include/finclude/math-vector-fortran.h
REM seed -1816941891 -131437966 -430817203 -1286980552 21261243 -1564290722 1066216111 -1492682072 184926479 -436232556 818269863 154027268 -2021057009 -1309667500 -1066154730 -1785295223 1122067530 1753208023 341005768 817425144 -1684691122 -1302787307 668991552 1392789092 -2136156392 -1627876043 1682830623 -152740922 -1287060251 -829950016 1550727661 -675997785 -1515259382
REM
CELL 1.54180   50.00000   50.00000   50.00000   90.00000   90.00000   90.00000
LATT -1
SFAC C  
C      1  0.5623480000000  0.5132830000000  0.4649240000000 1.0
C      1  0.5216770000000  0.4908350000000  0.5575960000000 1.0
C      1  0.5316270000000  0.5586450000000  0.4722930000000 1.0
C      1  0.5555090000000  0.4489170000000  0.5292510000000 1.0
C      1  0.4519990000000  0.4951430000000  0.4407190000000 1.0
C      1  0.4678680000000  0.5103670000000  0.5217150000000 1.0
C      1  0.5482040000000  0.4602720000000  0.4782850000000 1.0
C      1  0.5320480000000  0.4813630000000  0.4344190000000 1.0
C      1  0.4639160000000  0.4856980000000  0.5069080000000 1.0
C      1  0.5022080000000  0.5606760000000  0.5256090000000 1.0
C      1  0.5441300000000  0.4873090000000  0.4633500000000 1.0
C      1  0.4752470000000  0.4713140000000  0.5474510000000 1.0
C      1  0.4753790000000  0.4294290000000  0.4754800000000 1.0
C      1  0.5246760000000  0.4432670000000  0.4775250000000 1.0
C      1  0.5024590000000  0.4497970000000  0.4966690000000 1.0
C      1  0.4324570000000  0.5187080000000  0.5371130000000 1.0
C      1  0.4312790000000  0.5161300000000  0.5047590000000 1.0
C      1  0.4681840000000  0.5538610000000  0.4739580000000 1.0
C      1  0.5746590000000  0.5138000000000  0.5307370000000 1.0
C      1  0.4889810000000  0.4368240000000  0.5212550000000 1.0
C      1  0.4875060000000  0.4771730000000  0.4905770000000 1.0
C      1  0.4343880000000  0.4859770000000  0.4917000000000 1.0
C      1  0.4662120000000  0.5240900000000  0.4021580000000 1.0
C      1  0.5312400000000  0.4595280000000  0.5506040000000 1.0
C      1  0.5043070000000  0.4799260000000  0.4353360000000 1.0
C      1  0.4858170000000  0.5306580000000  0.5048870000000 1.0
C      1  0.5139750000000  0.4859000000000  0.5086830000000 1.0
C      1  0.4765950000000  0.5326150000000  0.4506780000000 1.0
C      1  0.4751270000000  0.5150040000000  0.4778890000000 1.0
C      1  0.4517300000000  0.4668690000000  0.5399950000000 1.0
C      1  0.5564460000000  0.5376460000000  0.4756250000000 1.0
C      1  0.5158260000000  0.5654320000000  0.5506510000000 1.0
C      1  0.5180380000000  0.5287360000000  0.4813950000000 1.0
C      1  0.5699880000000  0.4892140000000  0.5176060000000 1.0
C      1  0.5660210000000  0.4607150000000  0.5010140000000 1.0
C      1  0.4482160000000  0.5420460000000  0.4914660000000 1.0
C      1  0.4551830000000  0.4950110000000  0.4691120000000 1.0
C      1  0.4650340000000  0.5178580000000  0.4283890000000 1.0
C      1  0.4531900000000  0.5424640000000  0.5244900000000 1.0
C      1  0.5557180000000  0.5350300000000  0.5323120000000 1.0
C      1  0.5139670000000  0.5306490000000  0.5209700000000 1.0
C      1  0.5415550000000  0.5460530000000  0.5540910000000 1.0
C      1  0.5030550000000  0.4650320000000  0.5335090000000 1.0
C      1  0.4942950000000  0.4857750000000  0.4600350000000 1.0
C      1  0.4989860000000  0.5559370000000  0.4737000000000 1.0
C      1  0.4756620000000  0.5625120000000  0.5121660000000 1.0
C      1  0.4619710000000  0.5169300000000  0.5536620000000 1.0
C      1  0.5391730000000  0.4789330000000  0.5238190000000 1.0
C      1  0.5180660000000  0.4997400000000  0.4792190000000 1.0
C      1  0.5013030000000  0.4292660000000  0.4624120000000 1.0
C      1  0.5056200000000  0.4184170000000  0.4378250000000 1.0
C      1  0.4442970000000  0.4586210000000  0.5094360000000 1.0
C      1  0.5162060000000  0.5157720000000  0.5480480000000 1.0
C      1  0.5410160000000  0.5378050000000  0.5050380000000 1.0
C      1  0.5121100000000  0.5390100000000  0.5707150000000 1.0
C      1  0.4652700000000  0.4361490000000  0.5015250000000 1.0
C      1  0.4820360000000  0.5258720000000  0.5692450000000 1.0
END
