TITL C-2782234-8014-123 -0.0022845001784594 125000 -200.502519672448 0 0 36 (C2v) n - 1
REM
REM in /home/nfs/bkarasulu/CARBON/AIRSS/Generating-Clusters/REBO/Higher-Symm/SD-CG/HFTN-CG
REM
REM
REM
REM
REM
REM ./C.cell (12c818d87b63d06a65506943cc24bca4)
REM
REM compiler GCC version 9.2.1 20190827 (Red Hat 9.2.1-1)
REM options -cpp -mtune=generic -march=x86-64 -g -O0 -fpre-include=/usr/include/finclude/math-vector-fortran.h
REM seed 1827872247 940656822 -532585900 1085823894 462877577 -2022585009 467722715 -1343693853 -25058885 -327224617 -1432751559 277034819 1954845204 -2017429 -2082944970 1321287443 1031044766 1696978355 1201366397 456280697 -1424921101 -447428274 1909585974 680426402 1101575596 934605329 -1032252870 -1017820314 -1903004693 -1444995631 649770395 -1593266440 1441562673
REM
CELL 1.54180   50.00000   50.00000   50.00000   90.00000   90.00000   90.00000
LATT -1
SFAC C  
C      1  0.5261040000000  0.5342840000000  0.5354820000000 1.0
C      1  0.4739430000000  0.4661090000000  0.5355010000000 1.0
C      1  0.4740860000000  0.5343930000000  0.5354910000000 1.0
C      1  0.5259610000000  0.4660000000000  0.5354920000000 1.0
C      1  0.4706750000000  0.4605490000000  0.4989470000000 1.0
C      1  0.5293600000000  0.5398340000000  0.4989250000000 1.0
C      1  0.5291930000000  0.4604260000000  0.4989370000000 1.0
C      1  0.4708420000000  0.5399570000000  0.4989350000000 1.0
C      1  0.4576130000000  0.4864710000000  0.5156910000000 1.0
C      1  0.5424280000000  0.5139170000000  0.5156730000000 1.0
C      1  0.5423700000000  0.4862930000000  0.5156770000000 1.0
C      1  0.4576710000000  0.5140940000000  0.5156880000000 1.0
C      1  0.4435050000000  0.4723620000000  0.4433110000000 1.0
C      1  0.5565100000000  0.5280050000000  0.4432840000000 1.0
C      1  0.5563930000000  0.4721250000000  0.4432920000000 1.0
C      1  0.4436220000000  0.5282420000000  0.4433030000000 1.0
C      1  0.5167930000000  0.5332550000000  0.4732260000000 1.0
C      1  0.4832330000000  0.4671200000000  0.4732410000000 1.0
C      1  0.4833720000000  0.5333250000000  0.4732320000000 1.0
C      1  0.5166540000000  0.4670500000000  0.4732350000000 1.0
C      1  0.4856330000000  0.4401110000000  0.5192910000000 1.0
C      1  0.5144090000000  0.5602780000000  0.5192690000000 1.0
C      1  0.5141560000000  0.4400510000000  0.5192860000000 1.0
C      1  0.4858850000000  0.5603380000000  0.5192740000000 1.0
C      1  0.4633400000000  0.5154770000000  0.4574200000000 1.0
C      1  0.5366800000000  0.4848940000000  0.4574110000000 1.0
C      1  0.5367440000000  0.5153230000000  0.4574070000000 1.0
C      1  0.4632760000000  0.4850480000000  0.4574240000000 1.0
C      1  0.4999830000000  0.4804380000000  0.5438100000000 1.0
C      1  0.5000660000000  0.5199570000000  0.5438040000000 1.0
C      1  0.5000340000000  0.5002050000000  0.5947980000000 1.0
C      1  0.5000200000000  0.5001940000000  0.5156400000000 1.0
C      1  0.5000060000000  0.5001820000000  0.4330690000000 1.0
C      1  0.5000150000000  0.5001900000000  0.4881910000000 1.0
C      1  0.5000110000000  0.5001860000000  0.4593640000000 1.0
C      1  0.5000290000000  0.5002010000000  0.5690300000000 1.0
END
