TITL C-2782236-320-848 -0.00667942580700316 125000 -881.589143165226 0 0 150 (C1) n - 1
REM
REM in /home/nfs/bkarasulu/CARBON/AIRSS/Generating-Clusters/REBO/Higher-Symm/SD-CG/HFTN-CG
REM
REM
REM
REM
REM
REM ./C.cell (12c818d87b63d06a65506943cc24bca4)
REM
REM compiler GCC version 9.2.1 20190827 (Red Hat 9.2.1-1)
REM options -cpp -mtune=generic -march=x86-64 -g -O0 -fpre-include=/usr/include/finclude/math-vector-fortran.h
REM seed 2111520081 1661249053 -1686976934 -318829594 -1636033721 1311798559 1512331475 1502231501 83871005 -146806181 1845608200 261847567 118182112 -751943443 -1773722081 1282831183 2114403294 -410959763 -2064397578 -1073357467 -1342712083 344171504 -1856047737 -829483434 30424675 -100628074 -1606307507 1954900296 -1316942192 1426410846 -1548769261 180317217 798191440
REM
CELL 1.54180   50.00000   50.00000   50.00000   90.00000   90.00000   90.00000
LATT -1
SFAC C  
C      1  0.5548670000000  0.4387190000000  0.4868490000000 1.0
C      1  0.5302750000000  0.5788200000000  0.4832620000000 1.0
C      1  0.4145890000000  0.4836270000000  0.4866890000000 1.0
C      1  0.5619050000000  0.5668260000000  0.4850330000000 1.0
C      1  0.5293920000000  0.4169220000000  0.4807300000000 1.0
C      1  0.4091140000000  0.5168120000000  0.4810270000000 1.0
C      1  0.5651050000000  0.4699790000000  0.4642560000000 1.0
C      1  0.4928270000000  0.5650400000000  0.4591150000000 1.0
C      1  0.4420680000000  0.4650520000000  0.4644300000000 1.0
C      1  0.5599620000000  0.5302570000000  0.4638620000000 1.0
C      1  0.4904790000000  0.4334350000000  0.4576010000000 1.0
C      1  0.4445130000000  0.5376430000000  0.4578140000000 1.0
C      1  0.4028190000000  0.5172470000000  0.5201940000000 1.0
C      1  0.5343840000000  0.4084230000000  0.5192170000000 1.0
C      1  0.5639140000000  0.5739510000000  0.5240660000000 1.0
C      1  0.4051120000000  0.4841650000000  0.5250330000000 1.0
C      1  0.5356670000000  0.5898180000000  0.5210910000000 1.0
C      1  0.5614100000000  0.4256260000000  0.5238230000000 1.0
C      1  0.5332300000000  0.4139850000000  0.5493680000000 1.0
C      1  0.5639160000000  0.5687790000000  0.5548850000000 1.0
C      1  0.4110940000000  0.5147540000000  0.5497150000000 1.0
C      1  0.5372580000000  0.5849680000000  0.5514310000000 1.0
C      1  0.5610040000000  0.4276190000000  0.5551390000000 1.0
C      1  0.4096840000000  0.4840710000000  0.5558900000000 1.0
C      1  0.5400860000000  0.5539010000000  0.4246620000000 1.0
C      1  0.4319170000000  0.5116030000000  0.4238040000000 1.0
C      1  0.5206680000000  0.4410790000000  0.4241660000000 1.0
C      1  0.5481680000000  0.4570950000000  0.4232430000000 1.0
C      1  0.4334240000000  0.4815820000000  0.4245630000000 1.0
C      1  0.5106660000000  0.5667910000000  0.4217290000000 1.0
C      1  0.5384270000000  0.4613550000000  0.5053150000000 1.0
C      1  0.5146390000000  0.5564630000000  0.5010630000000 1.0
C      1  0.4425270000000  0.4858770000000  0.5046850000000 1.0
C      1  0.5442310000000  0.5466760000000  0.5025310000000 1.0
C      1  0.5173200000000  0.4390610000000  0.5000980000000 1.0
C      1  0.4358870000000  0.5153470000000  0.4980350000000 1.0
C      1  0.5801660000000  0.4480060000000  0.5073060000000 1.0
C      1  0.5087310000000  0.5957930000000  0.5039300000000 1.0
C      1  0.4149470000000  0.4568720000000  0.5072350000000 1.0
C      1  0.5840850000000  0.5542140000000  0.5059660000000 1.0
C      1  0.5081970000000  0.4002870000000  0.5018960000000 1.0
C      1  0.4087560000000  0.5443870000000  0.5011250000000 1.0
C      1  0.5668010000000  0.4794690000000  0.5777970000000 1.0
C      1  0.4854370000000  0.5665720000000  0.5711500000000 1.0
C      1  0.4530690000000  0.4527190000000  0.5756860000000 1.0
C      1  0.5680980000000  0.5133860000000  0.5758160000000 1.0
C      1  0.4809790000000  0.4344420000000  0.5723140000000 1.0
C      1  0.4568310000000  0.5491840000000  0.5694130000000 1.0
C      1  0.4517470000000  0.4400100000000  0.5457480000000 1.0
C      1  0.5765620000000  0.4863220000000  0.5477420000000 1.0
C      1  0.4734550000000  0.5730470000000  0.5421200000000 1.0
C      1  0.4449240000000  0.5563510000000  0.5387780000000 1.0
C      1  0.5765510000000  0.5188280000000  0.5434840000000 1.0
C      1  0.4794370000000  0.4227790000000  0.5410660000000 1.0
C      1  0.4531010000000  0.5174060000000  0.5819900000000 1.0
C      1  0.5108350000000  0.4461860000000  0.5844940000000 1.0
C      1  0.5408330000000  0.5329070000000  0.5847880000000 1.0
C      1  0.4497330000000  0.4843220000000  0.5891270000000 1.0
C      1  0.5135530000000  0.5527130000000  0.5850010000000 1.0
C      1  0.5414290000000  0.4598170000000  0.5905150000000 1.0
C      1  0.4634460000000  0.5982840000000  0.4599600000000 1.0
C      1  0.4351180000000  0.4206870000000  0.4603030000000 1.0
C      1  0.6061320000000  0.4834160000000  0.4636840000000 1.0
C      1  0.4607970000000  0.4037700000000  0.4599550000000 1.0
C      1  0.4385400000000  0.5795510000000  0.4570560000000 1.0
C      1  0.6006340000000  0.5138500000000  0.4608950000000 1.0
C      1  0.5975040000000  0.4696990000000  0.4874070000000 1.0
C      1  0.4837610000000  0.5973320000000  0.4808470000000 1.0
C      1  0.4260010000000  0.4331100000000  0.4852650000000 1.0
C      1  0.5939880000000  0.5293920000000  0.4847880000000 1.0
C      1  0.4820500000000  0.4020390000000  0.4801610000000 1.0
C      1  0.4253190000000  0.5650940000000  0.4795940000000 1.0
C      1  0.4724080000000  0.5163540000000  0.5289410000000 1.0
C      1  0.4988030000000  0.4672510000000  0.5309900000000 1.0
C      1  0.5275520000000  0.5144460000000  0.5347420000000 1.0
C      1  0.4725010000000  0.4853550000000  0.5374820000000 1.0
C      1  0.5007690000000  0.5315280000000  0.5313900000000 1.0
C      1  0.5266500000000  0.4815980000000  0.5376550000000 1.0
C      1  0.4528470000000  0.5499650000000  0.4884420000000 1.0
C      1  0.4791140000000  0.4344730000000  0.4898060000000 1.0
C      1  0.5662110000000  0.5147670000000  0.4936960000000 1.0
C      1  0.4527420000000  0.4495590000000  0.4929340000000 1.0
C      1  0.4779690000000  0.5663040000000  0.4894790000000 1.0
C      1  0.5690070000000  0.4843740000000  0.4950790000000 1.0
C      1  0.6173390000000  0.5136780000000  0.5172010000000 1.0
C      1  0.4308210000000  0.5927500000000  0.5095150000000 1.0
C      1  0.4557460000000  0.3922810000000  0.5115310000000 1.0
C      1  0.6167670000000  0.4861040000000  0.5183560000000 1.0
C      1  0.4322430000000  0.4065080000000  0.5144190000000 1.0
C      1  0.4552530000000  0.6057030000000  0.5093820000000 1.0
C      1  0.5294540000000  0.5172460000000  0.4611180000000 1.0
C      1  0.4686140000000  0.5145890000000  0.4554400000000 1.0
C      1  0.4920680000000  0.4636240000000  0.4631930000000 1.0
C      1  0.5380900000000  0.4844100000000  0.4632600000000 1.0
C      1  0.4671290000000  0.4805690000000  0.4549060000000 1.0
C      1  0.4981810000000  0.5321450000000  0.4578440000000 1.0
C      1  0.4238560000000  0.5679660000000  0.5191130000000 1.0
C      1  0.4806990000000  0.3999950000000  0.5198750000000 1.0
C      1  0.5975690000000  0.5311060000000  0.5244270000000 1.0
C      1  0.4282810000000  0.4316290000000  0.5249360000000 1.0
C      1  0.4789840000000  0.5970530000000  0.5203970000000 1.0
C      1  0.5959350000000  0.4704300000000  0.5271060000000 1.0
C      1  0.4801940000000  0.5538360000000  0.4129720000000 1.0
C      1  0.4554760000000  0.4580960000000  0.4136650000000 1.0
C      1  0.5555450000000  0.4902820000000  0.4197580000000 1.0
C      1  0.4878200000000  0.4473630000000  0.4175890000000 1.0
C      1  0.4505010000000  0.5365590000000  0.4099850000000 1.0
C      1  0.5550060000000  0.5245720000000  0.4156250000000 1.0
C      1  0.4194160000000  0.4885050000000  0.4547410000000 1.0
C      1  0.5481260000000  0.4421940000000  0.4538650000000 1.0
C      1  0.5220380000000  0.5763430000000  0.4522580000000 1.0
C      1  0.4172930000000  0.5219700000000  0.4512100000000 1.0
C      1  0.5521280000000  0.5614070000000  0.4546820000000 1.0
C      1  0.5197750000000  0.4232330000000  0.4515110000000 1.0
C      1  0.4239700000000  0.4703330000000  0.5749740000000 1.0
C      1  0.5664700000000  0.4454970000000  0.5754490000000 1.0
C      1  0.5162230000000  0.5810330000000  0.5693000000000 1.0
C      1  0.4285870000000  0.5304160000000  0.5644740000000 1.0
C      1  0.5672820000000  0.5472480000000  0.5715910000000 1.0
C      1  0.5111160000000  0.4195930000000  0.5652700000000 1.0
C      1  0.5005310000000  0.4738720000000  0.4342270000000 1.0
C      1  0.5263230000000  0.5167160000000  0.4263610000000 1.0
C      1  0.4714560000000  0.5150580000000  0.4204860000000 1.0
C      1  0.4993780000000  0.5290850000000  0.4236890000000 1.0
C      1  0.5253020000000  0.4871060000000  0.4352050000000 1.0
C      1  0.4729630000000  0.4847170000000  0.4220240000000 1.0
C      1  0.4686260000000  0.5119450000000  0.4893900000000 1.0
C      1  0.5017740000000  0.4681070000000  0.4911830000000 1.0
C      1  0.5254570000000  0.5188460000000  0.4951180000000 1.0
C      1  0.4756450000000  0.4819320000000  0.4979310000000 1.0
C      1  0.4947810000000  0.5302700000000  0.4919320000000 1.0
C      1  0.5264000000000  0.4880090000000  0.4914860000000 1.0
C      1  0.4390640000000  0.4442340000000  0.4389070000000 1.0
C      1  0.5819080000000  0.4849950000000  0.4406790000000 1.0
C      1  0.4727200000000  0.5765540000000  0.4366980000000 1.0
C      1  0.4459970000000  0.5584180000000  0.4330200000000 1.0
C      1  0.5771680000000  0.5181320000000  0.4383890000000 1.0
C      1  0.4673730000000  0.4269850000000  0.4357250000000 1.0
C      1  0.4513530000000  0.5345850000000  0.5174220000000 1.0
C      1  0.4927270000000  0.4403340000000  0.5190290000000 1.0
C      1  0.5536200000000  0.5241880000000  0.5228670000000 1.0
C      1  0.4528850000000  0.4628850000000  0.5242560000000 1.0
C      1  0.4896780000000  0.5587850000000  0.5195960000000 1.0
C      1  0.5566380000000  0.4762550000000  0.5257190000000 1.0
C      1  0.4985170000000  0.4690520000000  0.5631050000000 1.0
C      1  0.5297360000000  0.5087070000000  0.5667470000000 1.0
C      1  0.4787670000000  0.5168290000000  0.5612110000000 1.0
C      1  0.5063080000000  0.5296020000000  0.5649320000000 1.0
C      1  0.5273450000000  0.4798790000000  0.5714740000000 1.0
C      1  0.4748970000000  0.4860610000000  0.5708000000000 1.0
END
