TITL C-2782236-320-504 0.278544080459819 125000 -1174.19297251243 0 0 197 (C1) n - 1
REM
REM in /home/nfs/bkarasulu/CARBON/AIRSS/Generating-Clusters/REBO/Higher-Symm/SD-CG/HFTN-CG
REM
REM
REM
REM
REM
REM ./C.cell (12c818d87b63d06a65506943cc24bca4)
REM
REM compiler GCC version 9.2.1 20190827 (Red Hat 9.2.1-1)
REM options -cpp -mtune=generic -march=x86-64 -g -O0 -fpre-include=/usr/include/finclude/math-vector-fortran.h
REM seed -644683701 -1384130806 -231435270 554675067 -383617350 -1781198697 254499868 835575522 2122752501 1489035134 2130663668 1524101603 -1481030577 508472657 1857257918 -1596557533 684795846 -1014070821 -1416541927 1838591485 1762724294 -139084214 -1817477257 1919662576 -998392870 -1399750903 1095289294 -2048158841 711504746 1279063007 -1705374219 1943502699 1901580597
REM
CELL 1.54180   50.00000   50.00000   50.00000   90.00000   90.00000   90.00000
LATT -1
SFAC C  
C      1  0.5464230000000  0.4671350000000  0.5657850000000 1.0
C      1  0.5790060000000  0.4732830000000  0.4819400000000 1.0
C      1  0.5054460000000  0.4704850000000  0.4220110000000 1.0
C      1  0.4262930000000  0.4701690000000  0.4711080000000 1.0
C      1  0.4585560000000  0.4708290000000  0.5568870000000 1.0
C      1  0.5414310000000  0.5228640000000  0.4335130000000 1.0
C      1  0.5725170000000  0.5208560000000  0.5207510000000 1.0
C      1  0.4978740000000  0.5332950000000  0.5711840000000 1.0
C      1  0.4366860000000  0.5300950000000  0.5240570000000 1.0
C      1  0.4497100000000  0.5225290000000  0.4429680000000 1.0
C      1  0.4740500000000  0.5121040000000  0.4225420000000 1.0
C      1  0.4235930000000  0.5138040000000  0.5015210000000 1.0
C      1  0.4717080000000  0.5159030000000  0.5692200000000 1.0
C      1  0.5673230000000  0.5133600000000  0.5535260000000 1.0
C      1  0.5629830000000  0.5151770000000  0.4569610000000 1.0
C      1  0.4822560000000  0.4881420000000  0.5741300000000 1.0
C      1  0.4272490000000  0.4816600000000  0.5032730000000 1.0
C      1  0.4761950000000  0.4784890000000  0.4293700000000 1.0
C      1  0.5614400000000  0.4824030000000  0.4571280000000 1.0
C      1  0.5707700000000  0.4804840000000  0.5537540000000 1.0
C      1  0.5448210000000  0.5994190000000  0.5016300000000 1.0
C      1  0.5141230000000  0.5999420000000  0.4568540000000 1.0
C      1  0.4571460000000  0.6001260000000  0.4643580000000 1.0
C      1  0.4651990000000  0.5997500000000  0.5209480000000 1.0
C      1  0.5118340000000  0.5993700000000  0.5461610000000 1.0
C      1  0.5499930000000  0.4027550000000  0.4965320000000 1.0
C      1  0.5134420000000  0.4097370000000  0.5337830000000 1.0
C      1  0.4603210000000  0.4066370000000  0.5235470000000 1.0
C      1  0.4532740000000  0.4019330000000  0.4669230000000 1.0
C      1  0.5097370000000  0.4056670000000  0.4585500000000 1.0
C      1  0.5461340000000  0.4093680000000  0.5276390000000 1.0
C      1  0.5374950000000  0.4029850000000  0.4694100000000 1.0
C      1  0.4767860000000  0.4074640000000  0.4502310000000 1.0
C      1  0.4489880000000  0.4086870000000  0.4952630000000 1.0
C      1  0.4830570000000  0.4099400000000  0.5410120000000 1.0
C      1  0.5390750000000  0.5989600000000  0.4729820000000 1.0
C      1  0.5422930000000  0.6002170000000  0.5341820000000 1.0
C      1  0.4835360000000  0.5993020000000  0.5496050000000 1.0
C      1  0.4479620000000  0.5984670000000  0.4921190000000 1.0
C      1  0.4828420000000  0.5955610000000  0.4499840000000 1.0
C      1  0.6219150000000  0.4774490000000  0.4825030000000 1.0
C      1  0.5202230000000  0.4730960000000  0.3770170000000 1.0
C      1  0.3896650000000  0.4736940000000  0.4401990000000 1.0
C      1  0.4132610000000  0.4783180000000  0.5825110000000 1.0
C      1  0.5548270000000  0.4705130000000  0.6121160000000 1.0
C      1  0.6175020000000  0.5228560000000  0.5242760000000 1.0
C      1  0.5222560000000  0.5233980000000  0.6146280000000 1.0
C      1  0.3956140000000  0.5282900000000  0.5533860000000 1.0
C      1  0.4178510000000  0.5219670000000  0.4188240000000 1.0
C      1  0.5543200000000  0.5222960000000  0.3895860000000 1.0
C      1  0.5962910000000  0.4324490000000  0.4933960000000 1.0
C      1  0.5194760000000  0.4339370000000  0.4144020000000 1.0
C      1  0.4142290000000  0.4245090000000  0.4415730000000 1.0
C      1  0.4215860000000  0.4308370000000  0.5590880000000 1.0
C      1  0.5363080000000  0.4232310000000  0.5903150000000 1.0
C      1  0.5869790000000  0.5630060000000  0.5135170000000 1.0
C      1  0.5263090000000  0.5598450000000  0.5789000000000 1.0
C      1  0.4228610000000  0.5743290000000  0.5505270000000 1.0
C      1  0.4212590000000  0.5708110000000  0.4378670000000 1.0
C      1  0.5284730000000  0.5702650000000  0.4111030000000 1.0
C      1  0.5269140000000  0.4706250000000  0.6238860000000 1.0
C      1  0.6244370000000  0.4721950000000  0.5113550000000 1.0
C      1  0.5477250000000  0.4693260000000  0.3870210000000 1.0
C      1  0.4126320000000  0.4701520000000  0.4210370000000 1.0
C      1  0.3926230000000  0.4770740000000  0.5608870000000 1.0
C      1  0.5261900000000  0.5263290000000  0.3804390000000 1.0
C      1  0.6205300000000  0.5294080000000  0.4956890000000 1.0
C      1  0.5492960000000  0.5237810000000  0.6039850000000 1.0
C      1  0.4068250000000  0.5296380000000  0.5815800000000 1.0
C      1  0.3925800000000  0.5245090000000  0.4356240000000 1.0
C      1  0.5830330000000  0.4892960000000  0.5263450000000 1.0
C      1  0.5489560000000  0.4928660000000  0.4272710000000 1.0
C      1  0.4487600000000  0.4895730000000  0.4430370000000 1.0
C      1  0.4277070000000  0.4930160000000  0.5353480000000 1.0
C      1  0.5108880000000  0.4874130000000  0.5823770000000 1.0
C      1  0.5841300000000  0.5058770000000  0.4796460000000 1.0
C      1  0.5416680000000  0.5005950000000  0.5723300000000 1.0
C      1  0.4428350000000  0.5095960000000  0.5578460000000 1.0
C      1  0.4148760000000  0.5014280000000  0.4710970000000 1.0
C      1  0.5025830000000  0.5007870000000  0.4102400000000 1.0
C      1  0.4958270000000  0.5149300000000  0.4562120000000 1.0
C      1  0.4616360000000  0.5146810000000  0.5124650000000 1.0
C      1  0.4885880000000  0.5107590000000  0.5303650000000 1.0
C      1  0.5192400000000  0.5163000000000  0.5290120000000 1.0
C      1  0.5410670000000  0.5002950000000  0.4885780000000 1.0
C      1  0.4809220000000  0.4802430000000  0.5351130000000 1.0
C      1  0.4748390000000  0.4864840000000  0.5018450000000 1.0
C      1  0.4918430000000  0.4893230000000  0.4756040000000 1.0
C      1  0.5224520000000  0.5004400000000  0.4695110000000 1.0
C      1  0.5335400000000  0.4932440000000  0.5141320000000 1.0
C      1  0.5019500000000  0.4516990000000  0.3935370000000 1.0
C      1  0.4017990000000  0.4493720000000  0.4583860000000 1.0
C      1  0.4341000000000  0.4563700000000  0.5761200000000 1.0
C      1  0.5575310000000  0.4470920000000  0.5910950000000 1.0
C      1  0.6018010000000  0.4534220000000  0.4689780000000 1.0
C      1  0.5056500000000  0.5464790000000  0.6004720000000 1.0
C      1  0.4106100000000  0.5487500000000  0.5356860000000 1.0
C      1  0.4376710000000  0.5473210000000  0.4232160000000 1.0
C      1  0.5526660000000  0.5466380000000  0.4133040000000 1.0
C      1  0.5928980000000  0.5420980000000  0.5377260000000 1.0
C      1  0.4864830000000  0.5439580000000  0.5232420000000 1.0
C      1  0.5189800000000  0.5441280000000  0.5126850000000 1.0
C      1  0.5218400000000  0.5463260000000  0.4809220000000 1.0
C      1  0.4888450000000  0.5408190000000  0.4733920000000 1.0
C      1  0.4708270000000  0.5496560000000  0.4944090000000 1.0
C      1  0.4918770000000  0.4584660000000  0.4790990000000 1.0
C      1  0.5206970000000  0.4494550000000  0.4853710000000 1.0
C      1  0.5286070000000  0.4623000000000  0.5158370000000 1.0
C      1  0.5005880000000  0.4551860000000  0.5298660000000 1.0
C      1  0.4748900000000  0.4527230000000  0.5071750000000 1.0
C      1  0.6089370000000  0.4471770000000  0.5167480000000 1.0
C      1  0.5462530000000  0.4490290000000  0.4086280000000 1.0
C      1  0.4292490000000  0.4475550000000  0.4294980000000 1.0
C      1  0.4035720000000  0.4533580000000  0.5479600000000 1.0
C      1  0.5211950000000  0.4454700000000  0.6076490000000 1.0
C      1  0.6007310000000  0.5502650000000  0.4898200000000 1.0
C      1  0.5497500000000  0.5394640000000  0.5778510000000 1.0
C      1  0.4231620000000  0.5531720000000  0.5734040000000 1.0
C      1  0.4079650000000  0.5467770000000  0.4498810000000 1.0
C      1  0.5149880000000  0.5453280000000  0.3999700000000 1.0
C      1  0.4458970000000  0.5417800000000  0.5529990000000 1.0
C      1  0.5249280000000  0.5257100000000  0.5581610000000 1.0
C      1  0.5712920000000  0.5338510000000  0.4912390000000 1.0
C      1  0.5103750000000  0.5275270000000  0.4283980000000 1.0
C      1  0.4296560000000  0.5303880000000  0.4657210000000 1.0
C      1  0.4505020000000  0.4576940000000  0.4512980000000 1.0
C      1  0.5330990000000  0.4654380000000  0.4347440000000 1.0
C      1  0.5796170000000  0.4644630000000  0.5104100000000 1.0
C      1  0.5186900000000  0.4567050000000  0.5774810000000 1.0
C      1  0.4344330000000  0.4611010000000  0.5365570000000 1.0
C      1  0.4275650000000  0.4954480000000  0.4198050000000 1.0
C      1  0.3970480000000  0.5013740000000  0.5439010000000 1.0
C      1  0.5134350000000  0.4956710000000  0.6133700000000 1.0
C      1  0.6137070000000  0.4948030000000  0.5272390000000 1.0
C      1  0.5581460000000  0.4947970000000  0.3980250000000 1.0
C      1  0.4235920000000  0.5048790000000  0.5832930000000 1.0
C      1  0.3903950000000  0.4999980000000  0.4518550000000 1.0
C      1  0.5119790000000  0.5005940000000  0.3813000000000 1.0
C      1  0.6149610000000  0.5052380000000  0.4791260000000 1.0
C      1  0.5600780000000  0.4962480000000  0.6011950000000 1.0
C      1  0.4769560000000  0.5611290000000  0.5943750000000 1.0
C      1  0.5768430000000  0.5504340000000  0.5646310000000 1.0
C      1  0.5667970000000  0.5521890000000  0.4428350000000 1.0
C      1  0.4640160000000  0.5597740000000  0.4098020000000 1.0
C      1  0.4092360000000  0.5507550000000  0.5037320000000 1.0
C      1  0.4716990000000  0.4486540000000  0.4032360000000 1.0
C      1  0.5752380000000  0.4462580000000  0.4489510000000 1.0
C      1  0.5785150000000  0.4435990000000  0.5669100000000 1.0
C      1  0.4623650000000  0.4435150000000  0.5857730000000 1.0
C      1  0.4019210000000  0.4443570000000  0.4891960000000 1.0
C      1  0.4763350000000  0.4281720000000  0.5666550000000 1.0
C      1  0.5652290000000  0.4293160000000  0.5452370000000 1.0
C      1  0.5540100000000  0.4229420000000  0.4556220000000 1.0
C      1  0.4698040000000  0.4307900000000  0.4263400000000 1.0
C      1  0.4243750000000  0.4289710000000  0.4970970000000 1.0
C      1  0.4777350000000  0.5795750000000  0.4252810000000 1.0
C      1  0.5568050000000  0.5791120000000  0.4610770000000 1.0
C      1  0.5612340000000  0.5765610000000  0.5498350000000 1.0
C      1  0.4757370000000  0.5775220000000  0.5708100000000 1.0
C      1  0.4277050000000  0.5775960000000  0.4939140000000 1.0
C      1  0.4807540000000  0.4468510000000  0.4541350000000 1.0
C      1  0.4474880000000  0.4433580000000  0.5150790000000 1.0
C      1  0.5031620000000  0.4408820000000  0.5562520000000 1.0
C      1  0.5555100000000  0.4474230000000  0.5198000000000 1.0
C      1  0.5403530000000  0.4506740000000  0.4609180000000 1.0
C      1  0.4712580000000  0.5581360000000  0.5451400000000 1.0
C      1  0.4403620000000  0.5477490000000  0.4886370000000 1.0
C      1  0.5083610000000  0.5529880000000  0.4500490000000 1.0
C      1  0.5519210000000  0.5491500000000  0.4736400000000 1.0
C      1  0.5380940000000  0.5609550000000  0.5290170000000 1.0
C      1  0.5840890000000  0.4750580000000  0.4330370000000 1.0
C      1  0.4587300000000  0.4771840000000  0.4003530000000 1.0
C      1  0.3969190000000  0.4714420000000  0.4995360000000 1.0
C      1  0.4648130000000  0.4721980000000  0.5962340000000 1.0
C      1  0.5961260000000  0.4713210000000  0.5703940000000 1.0
C      1  0.5929670000000  0.5209870000000  0.5715910000000 1.0
C      1  0.4677200000000  0.5323090000000  0.5973950000000 1.0
C      1  0.3923780000000  0.5217780000000  0.4971110000000 1.0
C      1  0.4645450000000  0.5313240000000  0.3985030000000 1.0
C      1  0.5812640000000  0.5235500000000  0.4310210000000 1.0
C      1  0.5222610000000  0.5724430000000  0.5543840000000 1.0
C      1  0.5614310000000  0.5743250000000  0.5106490000000 1.0
C      1  0.5162600000000  0.5780100000000  0.4358240000000 1.0
C      1  0.4349060000000  0.5934080000000  0.4468790000000 1.0
C      1  0.4484970000000  0.5823410000000  0.5421090000000 1.0
C      1  0.5071140000000  0.4306520000000  0.4397480000000 1.0
C      1  0.5694750000000  0.4257750000000  0.4998010000000 1.0
C      1  0.5257510000000  0.4176390000000  0.5645430000000 1.0
C      1  0.4374860000000  0.4200640000000  0.5391140000000 1.0
C      1  0.4286820000000  0.4028030000000  0.4518830000000 1.0
C      1  0.3803520000000  0.4958600000000  0.4968550000000 1.0
C      1  0.4622230000000  0.5023320000000  0.6055990000000 1.0
C      1  0.5915920000000  0.4994480000000  0.4207840000000 1.0
C      1  0.4551060000000  0.5031430000000  0.3885960000000 1.0
C      1  0.6065790000000  0.4977410000000  0.5789640000000 1.0
C      1  0.4800710000000  0.5774780000000  0.5025700000000 1.0
C      1  0.5181710000000  0.4254620000000  0.5045960000000 1.0
END
