TITL C-2782230-7391-585 -2.9193162595247e-07 125000 -96.7952858728481 0 0 18 (Cs) n - 1
REM
REM in /home/nfs/bkarasulu/CARBON/AIRSS/Generating-Clusters/REBO/Higher-Symm/SD-CG/HFTN-CG
REM
REM
REM
REM
REM
REM ./C.cell (12c818d87b63d06a65506943cc24bca4)
REM
REM compiler GCC version 9.2.1 20190827 (Red Hat 9.2.1-1)
REM options -cpp -mtune=generic -march=x86-64 -g -O0 -fpre-include=/usr/include/finclude/math-vector-fortran.h
REM seed 1431413933 -993497532 1707135191 612874839 -1824584287 -1010004085 -1837270722 -650853045 569927275 -1771987826 1166853621 -972032780 1562362896 -1825306321 -1233790042 2098930918 -1368800925 -322106628 -1658363654 -1429990909 -1916356123 1700549459 -688307239 640317191 847522233 -727109374 1186797451 -1979605637 632900140 951602577 1064537334 -1090389049 724207647
REM
CELL 1.54180   50.00000   50.00000   50.00000   90.00000   90.00000   90.00000
LATT -1
SFAC C  
C      1  0.5402630000000  0.5143160000000  0.4635840000000 1.0
C      1  0.5202310000000  0.4585380000000  0.5326960000000 1.0
C      1  0.4781870000000  0.4912000000000  0.5208240000000 1.0
C      1  0.5563940000000  0.4747740000000  0.4964480000000 1.0
C      1  0.5207930000000  0.4396050000000  0.5522410000000 1.0
C      1  0.4648410000000  0.5270070000000  0.4903930000000 1.0
C      1  0.5885550000000  0.5178770000000  0.4341690000000 1.0
C      1  0.4127930000000  0.4999190000000  0.5464630000000 1.0
C      1  0.4460930000000  0.5447990000000  0.4817160000000 1.0
C      1  0.4041300000000  0.5234510000000  0.5264070000000 1.0
C      1  0.4340820000000  0.5105330000000  0.5240170000000 1.0
C      1  0.4900870000000  0.5256400000000  0.4783990000000 1.0
C      1  0.5147720000000  0.5221710000000  0.4689070000000 1.0
C      1  0.4588460000000  0.5094200000000  0.5120140000000 1.0
C      1  0.5699260000000  0.5108130000000  0.4514800000000 1.0
C      1  0.4975150000000  0.4743580000000  0.5281960000000 1.0
C      1  0.5601450000000  0.4924060000000  0.4759730000000 1.0
C      1  0.5423460000000  0.4631740000000  0.5160760000000 1.0
END
