TITL C-2782232-2968-74 -0.000965254922569108 125000 -1027.38035867439 0 0 177 (C1) n - 1
REM
REM in /home/nfs/bkarasulu/CARBON/AIRSS/Generating-Clusters/REBO/Higher-Symm/SD-CG/HFTN-CG
REM
REM
REM
REM
REM
REM ./C.cell (12c818d87b63d06a65506943cc24bca4)
REM
REM compiler GCC version 9.2.1 20190827 (Red Hat 9.2.1-1)
REM options -cpp -mtune=generic -march=x86-64 -g -O0 -fpre-include=/usr/include/finclude/math-vector-fortran.h
REM seed -2051913023 1844550536 -1339369121 -256950175 1050436138 1621092063 -1638342371 -1719382061 -1280509555 -1973536536 843911688 -16812359 290776812 -924387015 538429423 209733112 553524196 1651958655 -2014738939 438860373 1963898512 1622497655 156838278 -182603682 412199436 4552159 1173602909 1079888690 -1068739568 -81135063 1479809660 1428799477 -316795152
REM
CELL 1.54180   50.00000   50.00000   50.00000   90.00000   90.00000   90.00000
LATT -1
SFAC C  
C      1  0.4161990000000  0.4482760000000  0.4557230000000 1.0
C      1  0.5342370000000  0.5169540000000  0.4802390000000 1.0
C      1  0.5590070000000  0.4963820000000  0.4839150000000 1.0
C      1  0.5709530000000  0.5279240000000  0.4915610000000 1.0
C      1  0.5590620000000  0.4665170000000  0.4704190000000 1.0
C      1  0.4609650000000  0.3886670000000  0.4872350000000 1.0
C      1  0.6024340000000  0.4809530000000  0.4954390000000 1.0
C      1  0.5328650000000  0.5202300000000  0.4232910000000 1.0
C      1  0.6005920000000  0.5041300000000  0.5707260000000 1.0
C      1  0.5600640000000  0.4954210000000  0.4040430000000 1.0
C      1  0.4385460000000  0.4805540000000  0.5373620000000 1.0
C      1  0.5580140000000  0.4340730000000  0.5688370000000 1.0
C      1  0.5819170000000  0.4337650000000  0.4689350000000 1.0
C      1  0.5803920000000  0.5202750000000  0.4594030000000 1.0
C      1  0.5607450000000  0.5290870000000  0.4098480000000 1.0
C      1  0.4574710000000  0.4864200000000  0.4145550000000 1.0
C      1  0.4905470000000  0.4103630000000  0.5514660000000 1.0
C      1  0.4487000000000  0.5171570000000  0.4784370000000 1.0
C      1  0.4423280000000  0.5347000000000  0.4309570000000 1.0
C      1  0.4885840000000  0.3943680000000  0.4815580000000 1.0
C      1  0.4540480000000  0.5050410000000  0.4408600000000 1.0
C      1  0.4907340000000  0.4954480000000  0.5319800000000 1.0
C      1  0.5696830000000  0.5289710000000  0.5472850000000 1.0
C      1  0.4819720000000  0.5204480000000  0.4278460000000 1.0
C      1  0.4412440000000  0.4079940000000  0.4877700000000 1.0
C      1  0.3957290000000  0.4963240000000  0.4642550000000 1.0
C      1  0.5269930000000  0.5493800000000  0.5928650000000 1.0
C      1  0.4888200000000  0.5688970000000  0.5675190000000 1.0
C      1  0.5813490000000  0.4901430000000  0.5855850000000 1.0
C      1  0.4931370000000  0.4923460000000  0.4978350000000 1.0
C      1  0.4354120000000  0.5942160000000  0.5287030000000 1.0
C      1  0.4124640000000  0.5791570000000  0.5075320000000 1.0
C      1  0.5085300000000  0.6183160000000  0.4866320000000 1.0
C      1  0.4785270000000  0.5238400000000  0.4662290000000 1.0
C      1  0.4085180000000  0.5193450000000  0.5132350000000 1.0
C      1  0.5244200000000  0.5314680000000  0.3836190000000 1.0
C      1  0.4457140000000  0.5216840000000  0.5337410000000 1.0
C      1  0.4083410000000  0.5170140000000  0.5471440000000 1.0
C      1  0.4846360000000  0.5882120000000  0.5198280000000 1.0
C      1  0.4511960000000  0.4711090000000  0.5917150000000 1.0
C      1  0.4414010000000  0.5593460000000  0.4501700000000 1.0
C      1  0.4752670000000  0.4853090000000  0.6096370000000 1.0
C      1  0.4978110000000  0.4594920000000  0.4646430000000 1.0
C      1  0.5559730000000  0.5515010000000  0.5299370000000 1.0
C      1  0.5274910000000  0.5496940000000  0.5182840000000 1.0
C      1  0.5899690000000  0.4538080000000  0.5124480000000 1.0
C      1  0.5187970000000  0.4520830000000  0.5242070000000 1.0
C      1  0.5691290000000  0.4370190000000  0.4976360000000 1.0
C      1  0.5702770000000  0.5056080000000  0.5148940000000 1.0
C      1  0.4855950000000  0.5515260000000  0.4525580000000 1.0
C      1  0.3968530000000  0.4938800000000  0.4977120000000 1.0
C      1  0.4180010000000  0.5165360000000  0.4280070000000 1.0
C      1  0.5359650000000  0.4030390000000  0.5142810000000 1.0
C      1  0.5895330000000  0.4766540000000  0.4673720000000 1.0
C      1  0.5010650000000  0.5704550000000  0.4966590000000 1.0
C      1  0.4742460000000  0.4297530000000  0.5749700000000 1.0
C      1  0.4345570000000  0.5562290000000  0.5173520000000 1.0
C      1  0.5489000000000  0.5763510000000  0.4723710000000 1.0
C      1  0.5756140000000  0.5586170000000  0.5055530000000 1.0
C      1  0.4239730000000  0.4197500000000  0.5124840000000 1.0
C      1  0.5433460000000  0.5932660000000  0.5209170000000 1.0
C      1  0.4802450000000  0.5454000000000  0.4925080000000 1.0
C      1  0.5876860000000  0.4480370000000  0.5461510000000 1.0
C      1  0.4968700000000  0.5361200000000  0.3789770000000 1.0
C      1  0.5075080000000  0.3956340000000  0.5016210000000 1.0
C      1  0.5717430000000  0.4191100000000  0.5434920000000 1.0
C      1  0.5585490000000  0.5643650000000  0.4243610000000 1.0
C      1  0.5273820000000  0.5705310000000  0.5690500000000 1.0
C      1  0.5798180000000  0.5620140000000  0.4732920000000 1.0
C      1  0.4915010000000  0.5782550000000  0.4683800000000 1.0
C      1  0.5141580000000  0.4274020000000  0.4368980000000 1.0
C      1  0.4742360000000  0.4282530000000  0.4970600000000 1.0
C      1  0.4238440000000  0.4861460000000  0.4227900000000 1.0
C      1  0.5400500000000  0.5790030000000  0.4457920000000 1.0
C      1  0.5200070000000  0.5728030000000  0.4221770000000 1.0
C      1  0.4996670000000  0.4459650000000  0.4163960000000 1.0
C      1  0.5555570000000  0.5371840000000  0.5931220000000 1.0
C      1  0.6064500000000  0.5419960000000  0.4802580000000 1.0
C      1  0.4519580000000  0.4338120000000  0.4722050000000 1.0
C      1  0.5218080000000  0.4222380000000  0.4756470000000 1.0
C      1  0.4617600000000  0.4483520000000  0.5419620000000 1.0
C      1  0.6051850000000  0.5109160000000  0.4807690000000 1.0
C      1  0.5459350000000  0.4681860000000  0.4187110000000 1.0
C      1  0.4254870000000  0.5378420000000  0.4703250000000 1.0
C      1  0.4420420000000  0.5886190000000  0.4951850000000 1.0
C      1  0.4415560000000  0.4486500000000  0.5076450000000 1.0
C      1  0.5411810000000  0.4569010000000  0.5464900000000 1.0
C      1  0.5659150000000  0.4432280000000  0.4463460000000 1.0
C      1  0.4657290000000  0.5996120000000  0.5406550000000 1.0
C      1  0.5712390000000  0.5864660000000  0.5184970000000 1.0
C      1  0.4790760000000  0.4564310000000  0.4902740000000 1.0
C      1  0.4464300000000  0.5500160000000  0.5796760000000 1.0
C      1  0.5188610000000  0.4613020000000  0.4027060000000 1.0
C      1  0.5047020000000  0.5529310000000  0.5412140000000 1.0
C      1  0.4849410000000  0.5287730000000  0.5314050000000 1.0
C      1  0.4775220000000  0.4572420000000  0.5813550000000 1.0
C      1  0.4632610000000  0.5492470000000  0.5439050000000 1.0
C      1  0.4201020000000  0.5002920000000  0.5694460000000 1.0
C      1  0.5320100000000  0.5041180000000  0.3867720000000 1.0
C      1  0.5444760000000  0.5151050000000  0.5616980000000 1.0
C      1  0.5678560000000  0.4738250000000  0.5387750000000 1.0
C      1  0.5232790000000  0.4564930000000  0.6016100000000 1.0
C      1  0.4933750000000  0.4151190000000  0.4578310000000 1.0
C      1  0.4757940000000  0.5054900000000  0.5676580000000 1.0
C      1  0.5235270000000  0.4941260000000  0.5883640000000 1.0
C      1  0.4584670000000  0.5323470000000  0.6033300000000 1.0
C      1  0.4631350000000  0.5667420000000  0.5080450000000 1.0
C      1  0.4449650000000  0.5192830000000  0.5674150000000 1.0
C      1  0.5316390000000  0.5743010000000  0.4971800000000 1.0
C      1  0.4716360000000  0.5160610000000  0.5040400000000 1.0
C      1  0.4678730000000  0.4801390000000  0.5468100000000 1.0
C      1  0.5306750000000  0.4330020000000  0.5830020000000 1.0
C      1  0.5381260000000  0.5530450000000  0.4010700000000 1.0
C      1  0.4202230000000  0.4739930000000  0.4860920000000 1.0
C      1  0.5179730000000  0.5845000000000  0.5417660000000 1.0
C      1  0.5479950000000  0.4238420000000  0.4365960000000 1.0
C      1  0.4937080000000  0.4497780000000  0.5456140000000 1.0
C      1  0.4566580000000  0.4742130000000  0.5024590000000 1.0
C      1  0.4642700000000  0.5823230000000  0.4394210000000 1.0
C      1  0.4711400000000  0.4509310000000  0.4263550000000 1.0
C      1  0.4458180000000  0.5885680000000  0.4657820000000 1.0
C      1  0.5543720000000  0.5537760000000  0.5640580000000 1.0
C      1  0.4659100000000  0.4250860000000  0.4455370000000 1.0
C      1  0.5091660000000  0.4193620000000  0.5253610000000 1.0
C      1  0.4052460000000  0.5207410000000  0.4535110000000 1.0
C      1  0.4740090000000  0.5917770000000  0.5656180000000 1.0
C      1  0.4998750000000  0.4686670000000  0.6130040000000 1.0
C      1  0.4788510000000  0.5143250000000  0.6065100000000 1.0
C      1  0.4156360000000  0.4406560000000  0.4867880000000 1.0
C      1  0.5120350000000  0.6045350000000  0.5144830000000 1.0
C      1  0.4797820000000  0.5376790000000  0.5700390000000 1.0
C      1  0.4329020000000  0.4291500000000  0.5414160000000 1.0
C      1  0.5556880000000  0.5056260000000  0.5906300000000 1.0
C      1  0.5105540000000  0.4849130000000  0.3906350000000 1.0
C      1  0.5061150000000  0.5225370000000  0.5954890000000 1.0
C      1  0.4790150000000  0.4894390000000  0.4678520000000 1.0
C      1  0.4406940000000  0.4582650000000  0.4129200000000 1.0
C      1  0.5762260000000  0.4611340000000  0.5756330000000 1.0
C      1  0.4108440000000  0.4713220000000  0.5191900000000 1.0
C      1  0.4121990000000  0.5466770000000  0.4963010000000 1.0
C      1  0.4067330000000  0.4742680000000  0.4484400000000 1.0
C      1  0.4841870000000  0.4924060000000  0.4011530000000 1.0
C      1  0.5379730000000  0.4467510000000  0.4877270000000 1.0
C      1  0.4570350000000  0.4106180000000  0.5533770000000 1.0
C      1  0.5270840000000  0.4942780000000  0.4262250000000 1.0
C      1  0.4369170000000  0.5003870000000  0.5120390000000 1.0
C      1  0.5211020000000  0.5016880000000  0.5241530000000 1.0
C      1  0.4275380000000  0.4736920000000  0.5751000000000 1.0
C      1  0.5226420000000  0.5230430000000  0.5049070000000 1.0
C      1  0.5184080000000  0.4718910000000  0.4964020000000 1.0
C      1  0.4394280000000  0.4880160000000  0.4667820000000 1.0
C      1  0.5254250000000  0.4585730000000  0.4440910000000 1.0
C      1  0.4352460000000  0.4371820000000  0.4364560000000 1.0
C      1  0.4405070000000  0.5719010000000  0.5539430000000 1.0
C      1  0.4236660000000  0.5450760000000  0.5456400000000 1.0
C      1  0.4922440000000  0.5740740000000  0.4286660000000 1.0
C      1  0.5972900000000  0.4877280000000  0.4435570000000 1.0
C      1  0.5610880000000  0.4140720000000  0.5174060000000 1.0
C      1  0.5344230000000  0.5364750000000  0.4595300000000 1.0
C      1  0.4966660000000  0.6050660000000  0.4652380000000 1.0
C      1  0.5805180000000  0.5093170000000  0.4275550000000 1.0
C      1  0.5170500000000  0.5246640000000  0.5634960000000 1.0
C      1  0.4665330000000  0.4209910000000  0.5221380000000 1.0
C      1  0.4955010000000  0.4814080000000  0.5754910000000 1.0
C      1  0.5392310000000  0.4060500000000  0.4593730000000 1.0
C      1  0.4986850000000  0.4917300000000  0.4357850000000 1.0
C      1  0.5475230000000  0.4975130000000  0.5365380000000 1.0
C      1  0.5118960000000  0.4307420000000  0.5634840000000 1.0
C      1  0.5103410000000  0.5370580000000  0.4373820000000 1.0
C      1  0.5991920000000  0.4816690000000  0.5279030000000 1.0
C      1  0.4198800000000  0.4559500000000  0.5483250000000 1.0
C      1  0.5183820000000  0.4851040000000  0.4642260000000 1.0
C      1  0.5621850000000  0.5460260000000  0.4502450000000 1.0
C      1  0.5434350000000  0.4701490000000  0.5775940000000 1.0
C      1  0.4593850000000  0.4630820000000  0.4561350000000 1.0
C      1  0.5929060000000  0.5101120000000  0.5403730000000 1.0
C      1  0.4792040000000  0.5234800000000  0.3955010000000 1.0
END
