TITL C-2782232-2968-327 0.0022149351918321 125000 -554.352926263718 0 0 99 (C1) n - 1
REM
REM in /home/nfs/bkarasulu/CARBON/AIRSS/Generating-Clusters/REBO/Higher-Symm/SD-CG/HFTN-CG
REM
REM
REM
REM
REM
REM ./C.cell (12c818d87b63d06a65506943cc24bca4)
REM
REM compiler GCC version 9.2.1 20190827 (Red Hat 9.2.1-1)
REM options -cpp -mtune=generic -march=x86-64 -g -O0 -fpre-include=/usr/include/finclude/math-vector-fortran.h
REM seed -1934950078 -114112188 -1703126329 506466534 661372851 150031394 1050343344 -1430528762 -225902572 -2069741382 -1842245398 1934312134 -340833546 -666056447 1874453604 -1257857056 332693141 1495165032 892236705 -1574275819 670638873 -1693779756 498643018 2013211355 -605160133 -1522911837 1786256552 168685883 -1630168042 262606607 426104694 -1106442816 455079940
REM
CELL 1.54180   50.00000   50.00000   50.00000   90.00000   90.00000   90.00000
LATT -1
SFAC C  
C      1  0.5036210000000  0.5432160000000  0.4400880000000 1.0
C      1  0.4937270000000  0.4572700000000  0.4369400000000 1.0
C      1  0.5079190000000  0.5457240000000  0.5658290000000 1.0
C      1  0.4913910000000  0.4601730000000  0.5639770000000 1.0
C      1  0.4245660000000  0.5451620000000  0.5289710000000 1.0
C      1  0.5754130000000  0.4534530000000  0.5298910000000 1.0
C      1  0.4208280000000  0.5351000000000  0.4734900000000 1.0
C      1  0.5816350000000  0.4583780000000  0.4720190000000 1.0
C      1  0.5406110000000  0.5388910000000  0.5634780000000 1.0
C      1  0.4605910000000  0.4703540000000  0.5576710000000 1.0
C      1  0.5359880000000  0.5388900000000  0.4451880000000 1.0
C      1  0.4615400000000  0.4638560000000  0.4399000000000 1.0
C      1  0.5537440000000  0.4819780000000  0.5704200000000 1.0
C      1  0.4465710000000  0.5201370000000  0.5715330000000 1.0
C      1  0.5516650000000  0.4794060000000  0.4312380000000 1.0
C      1  0.4482050000000  0.5124990000000  0.4348620000000 1.0
C      1  0.5475090000000  0.4978790000000  0.4814150000000 1.0
C      1  0.4620750000000  0.4884210000000  0.4825730000000 1.0
C      1  0.5388810000000  0.4963250000000  0.5203360000000 1.0
C      1  0.4663930000000  0.4966970000000  0.5127460000000 1.0
C      1  0.5760840000000  0.4793870000000  0.5503160000000 1.0
C      1  0.4241130000000  0.5215150000000  0.5517750000000 1.0
C      1  0.5695190000000  0.4874510000000  0.4590830000000 1.0
C      1  0.4385260000000  0.5062620000000  0.4668750000000 1.0
C      1  0.4826750000000  0.4124270000000  0.4577490000000 1.0
C      1  0.5193550000000  0.5886170000000  0.4611430000000 1.0
C      1  0.4789260000000  0.4130450000000  0.5452080000000 1.0
C      1  0.5172530000000  0.5938250000000  0.5475380000000 1.0
C      1  0.4636640000000  0.5275420000000  0.5128790000000 1.0
C      1  0.5425240000000  0.4658640000000  0.5110590000000 1.0
C      1  0.4599310000000  0.5372020000000  0.4804360000000 1.0
C      1  0.5427600000000  0.4648670000000  0.4784150000000 1.0
C      1  0.5842480000000  0.4846370000000  0.4900020000000 1.0
C      1  0.4167240000000  0.5104640000000  0.4927870000000 1.0
C      1  0.5840110000000  0.4820640000000  0.5176850000000 1.0
C      1  0.4156320000000  0.5155920000000  0.5200770000000 1.0
C      1  0.5108880000000  0.5244110000000  0.5236800000000 1.0
C      1  0.4917920000000  0.4812570000000  0.5273930000000 1.0
C      1  0.5000320000000  0.5231820000000  0.4744870000000 1.0
C      1  0.4905730000000  0.4753020000000  0.4724860000000 1.0
C      1  0.4343510000000  0.4737960000000  0.5429470000000 1.0
C      1  0.5648000000000  0.5316250000000  0.5463800000000 1.0
C      1  0.4342030000000  0.4627100000000  0.4522870000000 1.0
C      1  0.5614030000000  0.5398860000000  0.4610290000000 1.0
C      1  0.4402890000000  0.4743380000000  0.5127040000000 1.0
C      1  0.5531190000000  0.5249380000000  0.5187550000000 1.0
C      1  0.4375830000000  0.4643890000000  0.4826920000000 1.0
C      1  0.5539010000000  0.5291030000000  0.4886230000000 1.0
C      1  0.5481640000000  0.4555520000000  0.4493220000000 1.0
C      1  0.4546130000000  0.5398230000000  0.4527710000000 1.0
C      1  0.5396030000000  0.4644370000000  0.5442330000000 1.0
C      1  0.4601720000000  0.5371980000000  0.5448480000000 1.0
C      1  0.5304320000000  0.4836850000000  0.4133470000000 1.0
C      1  0.4713600000000  0.5176550000000  0.4106440000000 1.0
C      1  0.5291780000000  0.4838150000000  0.5912260000000 1.0
C      1  0.4712120000000  0.5193390000000  0.5920120000000 1.0
C      1  0.4954470000000  0.5678900000000  0.5461400000000 1.0
C      1  0.5014560000000  0.4380850000000  0.5439250000000 1.0
C      1  0.4960580000000  0.5651180000000  0.4603250000000 1.0
C      1  0.5027560000000  0.4389520000000  0.4585230000000 1.0
C      1  0.4877500000000  0.5491840000000  0.4894330000000 1.0
C      1  0.5131130000000  0.4568250000000  0.4857860000000 1.0
C      1  0.4897790000000  0.5479890000000  0.5205120000000 1.0
C      1  0.5107150000000  0.4571050000000  0.5176150000000 1.0
C      1  0.4750610000000  0.5410990000000  0.4298000000000 1.0
C      1  0.5119920000000  0.4611390000000  0.4118620000000 1.0
C      1  0.4778600000000  0.5434240000000  0.5724430000000 1.0
C      1  0.5211700000000  0.4605910000000  0.5713390000000 1.0
C      1  0.5708340000000  0.4346700000000  0.4823390000000 1.0
C      1  0.4284320000000  0.5615760000000  0.4813240000000 1.0
C      1  0.5645310000000  0.4326230000000  0.5139260000000 1.0
C      1  0.4347300000000  0.5655390000000  0.5124250000000 1.0
C      1  0.4603030000000  0.5836660000000  0.5130500000000 1.0
C      1  0.5375820000000  0.4159040000000  0.5139840000000 1.0
C      1  0.4539900000000  0.5813160000000  0.4815300000000 1.0
C      1  0.5453700000000  0.4169170000000  0.4828900000000 1.0
C      1  0.4872800000000  0.5881860000000  0.4842570000000 1.0
C      1  0.5124380000000  0.4172900000000  0.4832160000000 1.0
C      1  0.4921300000000  0.5874220000000  0.5179550000000 1.0
C      1  0.5055690000000  0.4178460000000  0.5165280000000 1.0
C      1  0.5250990000000  0.5760320000000  0.5211930000000 1.0
C      1  0.4728800000000  0.4296000000000  0.5178000000000 1.0
C      1  0.5188710000000  0.5749970000000  0.4910840000000 1.0
C      1  0.4791000000000  0.4256870000000  0.4876570000000 1.0
C      1  0.4669390000000  0.4506430000000  0.4715360000000 1.0
C      1  0.5258660000000  0.5454000000000  0.4780700000000 1.0
C      1  0.4668800000000  0.4584150000000  0.5259180000000 1.0
C      1  0.5318930000000  0.5484230000000  0.5317480000000 1.0
C      1  0.4837580000000  0.4933390000000  0.5646020000000 1.0
C      1  0.5185010000000  0.5133240000000  0.5667730000000 1.0
C      1  0.4824640000000  0.4896970000000  0.4363520000000 1.0
C      1  0.5176140000000  0.5116590000000  0.4388450000000 1.0
C      1  0.4817970000000  0.5108370000000  0.4563860000000 1.0
C      1  0.5154550000000  0.4897270000000  0.4589080000000 1.0
C      1  0.4858130000000  0.5163180000000  0.5442350000000 1.0
C      1  0.5186030000000  0.4917570000000  0.5451540000000 1.0
C      1  0.5004890000000  0.5020520000000  0.5924120000000 1.0
C      1  0.5011950000000  0.5012800000000  0.4113200000000 1.0
C      1  0.5194870000000  0.5103020000000  0.4960340000000 1.0
END
