TITL C-2782238-9940-908 -0.0099371723217032 125000 -491.71989345216 0 0 86 (C1) n - 1
REM
REM in /home/nfs/bkarasulu/CARBON/AIRSS/Generating-Clusters/REBO/Higher-Symm/SD-CG/HFTN-CG
REM
REM
REM
REM
REM
REM ./C.cell (12c818d87b63d06a65506943cc24bca4)
REM
REM compiler GCC version 9.2.1 20190827 (Red Hat 9.2.1-1)
REM options -cpp -mtune=generic -march=x86-64 -g -O0 -fpre-include=/usr/include/finclude/math-vector-fortran.h
REM seed 798845382 1030892939 -745454157 -335861249 1295624922 -2098074342 1109036275 -2142523881 -265977001 1262277829 796846477 -1893322665 -1276537233 -365692027 1963959031 -905322882 636450040 -47954967 -1729203053 1204386333 -1233628771 952992931 -534956098 723478226 1934505171 -1625713892 1350836652 886719972 -2116880789 -1092888021 1304969040 1289123335 885862808
REM
CELL 1.54180   50.00000   50.00000   50.00000   90.00000   90.00000   90.00000
LATT -1
SFAC C  
C      1  0.5300310000000  0.5126850000000  0.5694340000000 1.0
C      1  0.5301860000000  0.4843340000000  0.5736280000000 1.0
C      1  0.5220740000000  0.5207510000000  0.5274790000000 1.0
C      1  0.5227830000000  0.4814940000000  0.5345950000000 1.0
C      1  0.4970960000000  0.5709480000000  0.5056400000000 1.0
C      1  0.4966240000000  0.4309760000000  0.5067190000000 1.0
C      1  0.4364130000000  0.5558410000000  0.4979200000000 1.0
C      1  0.4352200000000  0.4447110000000  0.5011720000000 1.0
C      1  0.5178430000000  0.5812850000000  0.5289470000000 1.0
C      1  0.5180370000000  0.4188630000000  0.5284750000000 1.0
C      1  0.5721100000000  0.5286320000000  0.5186700000000 1.0
C      1  0.5695810000000  0.4685450000000  0.5264840000000 1.0
C      1  0.5139390000000  0.5882180000000  0.4737940000000 1.0
C      1  0.5124740000000  0.4153280000000  0.4736170000000 1.0
C      1  0.4909440000000  0.5240400000000  0.4285950000000 1.0
C      1  0.4914300000000  0.4735510000000  0.4294830000000 1.0
C      1  0.4823650000000  0.5136770000000  0.5726790000000 1.0
C      1  0.4850620000000  0.4806610000000  0.5804030000000 1.0
C      1  0.4946150000000  0.4832200000000  0.4618730000000 1.0
C      1  0.4915350000000  0.5138610000000  0.4612900000000 1.0
C      1  0.4118980000000  0.5111160000000  0.4750340000000 1.0
C      1  0.4145180000000  0.4860670000000  0.4728680000000 1.0
C      1  0.4720420000000  0.4736650000000  0.5280420000000 1.0
C      1  0.4709280000000  0.5262810000000  0.5251410000000 1.0
C      1  0.5577600000000  0.4678090000000  0.4384110000000 1.0
C      1  0.5596100000000  0.5400170000000  0.4388750000000 1.0
C      1  0.4963620000000  0.5151330000000  0.5415250000000 1.0
C      1  0.4938700000000  0.4845230000000  0.5479850000000 1.0
C      1  0.4626380000000  0.5181960000000  0.4786760000000 1.0
C      1  0.4668940000000  0.4857270000000  0.4795680000000 1.0
C      1  0.5114790000000  0.6012230000000  0.5030050000000 1.0
C      1  0.5107820000000  0.4006690000000  0.5016990000000 1.0
C      1  0.4889450000000  0.4816900000000  0.5026530000000 1.0
C      1  0.4871690000000  0.5127640000000  0.5007980000000 1.0
C      1  0.5118940000000  0.4513030000000  0.4904610000000 1.0
C      1  0.5120740000000  0.5515280000000  0.4883330000000 1.0
C      1  0.5459780000000  0.5467920000000  0.5089080000000 1.0
C      1  0.5486770000000  0.4500050000000  0.5090390000000 1.0
C      1  0.4701340000000  0.5473000000000  0.4535480000000 1.0
C      1  0.4678910000000  0.4543980000000  0.4552130000000 1.0
C      1  0.5788160000000  0.5093710000000  0.4960180000000 1.0
C      1  0.5832080000000  0.4804260000000  0.5014730000000 1.0
C      1  0.5150730000000  0.5239670000000  0.4979180000000 1.0
C      1  0.5191280000000  0.4764140000000  0.5052620000000 1.0
C      1  0.5493850000000  0.5158390000000  0.5346240000000 1.0
C      1  0.5518920000000  0.4869110000000  0.5403380000000 1.0
C      1  0.5336780000000  0.4414350000000  0.5384540000000 1.0
C      1  0.5325230000000  0.5578180000000  0.5373640000000 1.0
C      1  0.4701740000000  0.5636720000000  0.5171320000000 1.0
C      1  0.4693210000000  0.4353460000000  0.5190320000000 1.0
C      1  0.5399220000000  0.5671390000000  0.4821020000000 1.0
C      1  0.5392750000000  0.4357140000000  0.4795440000000 1.0
C      1  0.5195930000000  0.5427570000000  0.4327740000000 1.0
C      1  0.5206920000000  0.4549900000000  0.4306610000000 1.0
C      1  0.4388740000000  0.5568480000000  0.5286810000000 1.0
C      1  0.4393180000000  0.4461140000000  0.5312430000000 1.0
C      1  0.5491770000000  0.4826080000000  0.4954300000000 1.0
C      1  0.5452830000000  0.5156650000000  0.4926540000000 1.0
C      1  0.4613590000000  0.4843290000000  0.4402280000000 1.0
C      1  0.4595640000000  0.5182840000000  0.4389240000000 1.0
C      1  0.4719290000000  0.5569940000000  0.5504970000000 1.0
C      1  0.4727420000000  0.4425340000000  0.5521560000000 1.0
C      1  0.5466010000000  0.4886410000000  0.4235210000000 1.0
C      1  0.5501980000000  0.5183310000000  0.4249290000000 1.0
C      1  0.4931570000000  0.5454060000000  0.5669020000000 1.0
C      1  0.4946290000000  0.4509870000000  0.5693430000000 1.0
C      1  0.5168980000000  0.4825160000000  0.4107170000000 1.0
C      1  0.5185910000000  0.5148900000000  0.4127990000000 1.0
C      1  0.4645420000000  0.5634240000000  0.4833240000000 1.0
C      1  0.4635970000000  0.4389470000000  0.4854410000000 1.0
C      1  0.5568970000000  0.5586310000000  0.4579640000000 1.0
C      1  0.5543770000000  0.4476240000000  0.4557320000000 1.0
C      1  0.4462680000000  0.5129350000000  0.5147790000000 1.0
C      1  0.4476870000000  0.4849690000000  0.5146150000000 1.0
C      1  0.4443810000000  0.5412980000000  0.5548130000000 1.0
C      1  0.4468490000000  0.4613910000000  0.5565660000000 1.0
C      1  0.4497660000000  0.5161030000000  0.5670830000000 1.0
C      1  0.4537380000000  0.4859590000000  0.5701650000000 1.0
C      1  0.5096240000000  0.5391180000000  0.4602670000000 1.0
C      1  0.5134480000000  0.4581060000000  0.4588960000000 1.0
C      1  0.5236600000000  0.4549440000000  0.5639620000000 1.0
C      1  0.5222530000000  0.5415760000000  0.5613540000000 1.0
C      1  0.4341010000000  0.5269250000000  0.4886220000000 1.0
C      1  0.4385390000000  0.4722350000000  0.4858880000000 1.0
C      1  0.4877310000000  0.4285420000000  0.4654020000000 1.0
C      1  0.4896380000000  0.5735030000000  0.4637270000000 1.0
END
