TITL C-2782229-3092-997 0.000675836584530742 125000 -378.567118846289 0 0 66 (C1) n - 1
REM
REM in /home/nfs/bkarasulu/CARBON/AIRSS/Generating-Clusters/REBO/Higher-Symm/SD-CG/HFTN-CG
REM
REM
REM
REM
REM
REM ./C.cell (12c818d87b63d06a65506943cc24bca4)
REM
REM compiler GCC version 9.2.1 20190827 (Red Hat 9.2.1-1)
REM options -cpp -mtune=generic -march=x86-64 -g -O0 -fpre-include=/usr/include/finclude/math-vector-fortran.h
REM seed -1463024322 -965217151 149452930 954460057 985665085 -996208396 985962993 -263595227 36608083 90607985 2010955179 1464933749 -1935802108 1892886386 1273696929 -683383635 -2135761062 -1951316564 -1543186789 1183156197 979770062 2105550386 -680397844 1144869993 -553409831 1601085066 1384292596 1804727197 -2035323023 -1161592546 -1530350038 -296646094 1505290150
REM
CELL 1.54180   50.00000   50.00000   50.00000   90.00000   90.00000   90.00000
LATT -1
SFAC C  
C      1  0.4571570000000  0.4578930000000  0.4725380000000 1.0
C      1  0.4477300000000  0.5398560000000  0.5117180000000 1.0
C      1  0.4770970000000  0.4622090000000  0.5476680000000 1.0
C      1  0.5177320000000  0.5385480000000  0.5479870000000 1.0
C      1  0.5441670000000  0.4630210000000  0.5194390000000 1.0
C      1  0.5553860000000  0.5465210000000  0.4887510000000 1.0
C      1  0.5274490000000  0.4570220000000  0.4588800000000 1.0
C      1  0.4853080000000  0.5420850000000  0.4496120000000 1.0
C      1  0.5394590000000  0.4332220000000  0.5222920000000 1.0
C      1  0.5425790000000  0.5781520000000  0.4875180000000 1.0
C      1  0.5210800000000  0.4240180000000  0.4644940000000 1.0
C      1  0.4865650000000  0.5744600000000  0.4606670000000 1.0
C      1  0.4638860000000  0.4255220000000  0.4805410000000 1.0
C      1  0.4576770000000  0.5721400000000  0.5178390000000 1.0
C      1  0.4789800000000  0.4311490000000  0.5419610000000 1.0
C      1  0.5125900000000  0.5685620000000  0.5426520000000 1.0
C      1  0.5599440000000  0.5346860000000  0.5348270000000 1.0
C      1  0.5687230000000  0.4679710000000  0.4830760000000 1.0
C      1  0.5324730000000  0.5307730000000  0.4359630000000 1.0
C      1  0.4743590000000  0.4666650000000  0.4268810000000 1.0
C      1  0.4413470000000  0.5332490000000  0.4667890000000 1.0
C      1  0.4331000000000  0.4649640000000  0.5208860000000 1.0
C      1  0.4679660000000  0.5346930000000  0.5635210000000 1.0
C      1  0.5229040000000  0.4651660000000  0.5667620000000 1.0
C      1  0.4653190000000  0.4882310000000  0.5482990000000 1.0
C      1  0.5105480000000  0.5127210000000  0.5586400000000 1.0
C      1  0.5470070000000  0.4878770000000  0.5325070000000 1.0
C      1  0.5616720000000  0.5152610000000  0.4914200000000 1.0
C      1  0.5351400000000  0.4864850000000  0.4548370000000 1.0
C      1  0.4896580000000  0.5114480000000  0.4405420000000 1.0
C      1  0.4519050000000  0.4864340000000  0.4638050000000 1.0
C      1  0.4397350000000  0.5108430000000  0.5082130000000 1.0
C      1  0.4689700000000  0.4917940000000  0.4404350000000 1.0
C      1  0.4403530000000  0.5070490000000  0.4790800000000 1.0
C      1  0.4434820000000  0.4907500000000  0.5282500000000 1.0
C      1  0.4811880000000  0.5094900000000  0.5606480000000 1.0
C      1  0.5295920000000  0.4908430000000  0.5559370000000 1.0
C      1  0.5607830000000  0.5097710000000  0.5203810000000 1.0
C      1  0.5572000000000  0.4930820000000  0.4737200000000 1.0
C      1  0.5191390000000  0.5053300000000  0.4402140000000 1.0
C      1  0.5320250000000  0.4168930000000  0.4950610000000 1.0
C      1  0.5195560000000  0.5814280000000  0.4652490000000 1.0
C      1  0.4901720000000  0.4163350000000  0.4622110000000 1.0
C      1  0.4711550000000  0.5837350000000  0.4888430000000 1.0
C      1  0.4705030000000  0.4204670000000  0.5124870000000 1.0
C      1  0.4902980000000  0.5783650000000  0.5231700000000 1.0
C      1  0.5078430000000  0.4212920000000  0.5265690000000 1.0
C      1  0.5289360000000  0.5849900000000  0.5175810000000 1.0
C      1  0.5416600000000  0.5546130000000  0.5190470000000 1.0
C      1  0.5475270000000  0.4451680000000  0.4839010000000 1.0
C      1  0.5175500000000  0.5510980000000  0.4535560000000 1.0
C      1  0.4764490000000  0.4437350000000  0.4480630000000 1.0
C      1  0.4599850000000  0.5532130000000  0.4828240000000 1.0
C      1  0.4491460000000  0.4464150000000  0.5098770000000 1.0
C      1  0.4683320000000  0.5520000000000  0.5431330000000 1.0
C      1  0.5138040000000  0.4467000000000  0.5493700000000 1.0
C      1  0.5122410000000  0.5391000000000  0.5158460000000 1.0
C      1  0.5185420000000  0.4566640000000  0.4976320000000 1.0
C      1  0.5236560000000  0.5433850000000  0.4851640000000 1.0
C      1  0.4968310000000  0.4545850000000  0.4715040000000 1.0
C      1  0.4913280000000  0.5415250000000  0.4821850000000 1.0
C      1  0.4787380000000  0.4572220000000  0.4990840000000 1.0
C      1  0.4814150000000  0.5405060000000  0.5139590000000 1.0
C      1  0.4987760000000  0.4598450000000  0.5227320000000 1.0
C      1  0.4984260000000  0.4122730000000  0.4950410000000 1.0
C      1  0.5045000000000  0.5884930000000  0.4939750000000 1.0
END
