TITL C-2782231-7322-945 -0.00162649961460594 125000 -855.92146117831 0 0 149 (C1) n - 1
REM
REM in /home/nfs/bkarasulu/CARBON/AIRSS/Generating-Clusters/REBO/Higher-Symm/SD-CG/HFTN-CG
REM
REM
REM
REM
REM
REM ./C.cell (12c818d87b63d06a65506943cc24bca4)
REM
REM compiler GCC version 9.2.1 20190827 (Red Hat 9.2.1-1)
REM options -cpp -mtune=generic -march=x86-64 -g -O0 -fpre-include=/usr/include/finclude/math-vector-fortran.h
REM seed 160245826 -1971385345 1301326814 -2106871937 -222923907 -1947512913 -1412824171 382819957 -40749009 1714154342 -161693639 -1339982042 462342557 -1505029675 389853270 780177649 403221193 -1281181044 1490434826 -2096182004 -227563494 -1893723524 838939507 1829776894 1164606459 -1985722555 1487251985 -1073357988 -662643197 -699442936 -1931835285 717121407 512719716
REM
CELL 1.54180   50.00000   50.00000   50.00000   90.00000   90.00000   90.00000
LATT -1
SFAC C  
C      1  0.5328560000000  0.4512470000000  0.4715190000000 1.0
C      1  0.5060870000000  0.5314550000000  0.4588750000000 1.0
C      1  0.4651600000000  0.4906030000000  0.4572370000000 1.0
C      1  0.4741660000000  0.5422010000000  0.5056360000000 1.0
C      1  0.4750470000000  0.4676280000000  0.5036880000000 1.0
C      1  0.5440930000000  0.4955830000000  0.5022890000000 1.0
C      1  0.5045470000000  0.4581120000000  0.4601520000000 1.0
C      1  0.5387520000000  0.5242540000000  0.4592620000000 1.0
C      1  0.4627430000000  0.5248420000000  0.4558730000000 1.0
C      1  0.5040870000000  0.4702570000000  0.4912040000000 1.0
C      1  0.5272840000000  0.5233640000000  0.4916570000000 1.0
C      1  0.4667040000000  0.5150980000000  0.4887400000000 1.0
C      1  0.4441750000000  0.5520660000000  0.4570970000000 1.0
C      1  0.4864570000000  0.4303950000000  0.4583930000000 1.0
C      1  0.5724360000000  0.5268910000000  0.4633490000000 1.0
C      1  0.4664480000000  0.5973980000000  0.4928060000000 1.0
C      1  0.4305500000000  0.4303200000000  0.4864030000000 1.0
C      1  0.5927660000000  0.4756290000000  0.4928580000000 1.0
C      1  0.5017820000000  0.4317680000000  0.5198070000000 1.0
C      1  0.5537230000000  0.5377320000000  0.5258720000000 1.0
C      1  0.4273860000000  0.5266890000000  0.5144370000000 1.0
C      1  0.5743960000000  0.5259070000000  0.5609530000000 1.0
C      1  0.4266700000000  0.5548080000000  0.5566870000000 1.0
C      1  0.4796690000000  0.4189410000000  0.5517540000000 1.0
C      1  0.4769840000000  0.5575510000000  0.5496040000000 1.0
C      1  0.4493170000000  0.4598630000000  0.5479000000000 1.0
C      1  0.5522420000000  0.4809440000000  0.5517950000000 1.0
C      1  0.5881810000000  0.4994030000000  0.4694700000000 1.0
C      1  0.4550500000000  0.5798870000000  0.4671740000000 1.0
C      1  0.4549830000000  0.4305910000000  0.4646890000000 1.0
C      1  0.4090470000000  0.4696240000000  0.4583300000000 1.0
C      1  0.5689770000000  0.4411720000000  0.4577680000000 1.0
C      1  0.5153970000000  0.5922080000000  0.4713610000000 1.0
C      1  0.5515070000000  0.4435840000000  0.5207300000000 1.0
C      1  0.5147290000000  0.5715660000000  0.5248380000000 1.0
C      1  0.4253330000000  0.4868360000000  0.5144090000000 1.0
C      1  0.5002140000000  0.5410110000000  0.5886080000000 1.0
C      1  0.4530740000000  0.4858630000000  0.5885490000000 1.0
C      1  0.5231190000000  0.4742290000000  0.5903680000000 1.0
C      1  0.5446380000000  0.5543710000000  0.4906680000000 1.0
C      1  0.4342690000000  0.5072530000000  0.4805150000000 1.0
C      1  0.5369960000000  0.4241370000000  0.4758620000000 1.0
C      1  0.4990460000000  0.4001950000000  0.5301570000000 1.0
C      1  0.5913570000000  0.5443750000000  0.5374530000000 1.0
C      1  0.4062030000000  0.5572130000000  0.5287490000000 1.0
C      1  0.5222740000000  0.4529620000000  0.5099130000000 1.0
C      1  0.5211560000000  0.5413840000000  0.5201520000000 1.0
C      1  0.4514950000000  0.5042940000000  0.5174740000000 1.0
C      1  0.4841230000000  0.4440170000000  0.5743040000000 1.0
C      1  0.5491280000000  0.5180510000000  0.5810160000000 1.0
C      1  0.4467580000000  0.5384660000000  0.5788620000000 1.0
C      1  0.4940290000000  0.4331070000000  0.4269360000000 1.0
C      1  0.5651380000000  0.5412890000000  0.4347010000000 1.0
C      1  0.4404900000000  0.5396860000000  0.4262460000000 1.0
C      1  0.4074490000000  0.5576210000000  0.4992980000000 1.0
C      1  0.4934250000000  0.4003420000000  0.4965890000000 1.0
C      1  0.5920700000000  0.5434830000000  0.5093900000000 1.0
C      1  0.5327850000000  0.5481320000000  0.5515780000000 1.0
C      1  0.4353800000000  0.5063590000000  0.5476110000000 1.0
C      1  0.5216610000000  0.4564360000000  0.5439810000000 1.0
C      1  0.4728320000000  0.5162580000000  0.4244460000000 1.0
C      1  0.5079650000000  0.4701620000000  0.4313840000000 1.0
C      1  0.5280120000000  0.5221570000000  0.4268910000000 1.0
C      1  0.4113340000000  0.5276670000000  0.5436730000000 1.0
C      1  0.5133990000000  0.4239840000000  0.5505500000000 1.0
C      1  0.5646520000000  0.5575010000000  0.5516370000000 1.0
C      1  0.4333430000000  0.5724950000000  0.4893110000000 1.0
C      1  0.4681470000000  0.4167240000000  0.4907710000000 1.0
C      1  0.5923840000000  0.5153760000000  0.4962890000000 1.0
C      1  0.4532840000000  0.4753960000000  0.4300460000000 1.0
C      1  0.5595190000000  0.4842830000000  0.4305910000000 1.0
C      1  0.4980670000000  0.5581870000000  0.4389820000000 1.0
C      1  0.5202170000000  0.4212090000000  0.4397500000000 1.0
C      1  0.5494000000000  0.5649200000000  0.4361410000000 1.0
C      1  0.4233810000000  0.5207230000000  0.4445370000000 1.0
C      1  0.4712750000000  0.5486000000000  0.4248610000000 1.0
C      1  0.4797530000000  0.4588110000000  0.4182960000000 1.0
C      1  0.5580420000000  0.5117910000000  0.4265300000000 1.0
C      1  0.4910860000000  0.6089830000000  0.4873360000000 1.0
C      1  0.4088030000000  0.4440390000000  0.4772360000000 1.0
C      1  0.5892260000000  0.4504360000000  0.4828730000000 1.0
C      1  0.5036360000000  0.6056350000000  0.5533590000000 1.0
C      1  0.3919030000000  0.4651060000000  0.5524950000000 1.0
C      1  0.5851010000000  0.4376880000000  0.5521970000000 1.0
C      1  0.4041940000000  0.4986420000000  0.4725990000000 1.0
C      1  0.5652010000000  0.4184990000000  0.4829970000000 1.0
C      1  0.5352390000000  0.5811660000000  0.4919070000000 1.0
C      1  0.5493130000000  0.4734540000000  0.4800570000000 1.0
C      1  0.4918460000000  0.5491090000000  0.4805460000000 1.0
C      1  0.4589510000000  0.4765210000000  0.4816550000000 1.0
C      1  0.5433760000000  0.4903810000000  0.5792850000000 1.0
C      1  0.4743780000000  0.5475900000000  0.5783570000000 1.0
C      1  0.4613620000000  0.4617350000000  0.5762030000000 1.0
C      1  0.5754230000000  0.4989950000000  0.5425450000000 1.0
C      1  0.4500160000000  0.5668880000000  0.5386020000000 1.0
C      1  0.4547520000000  0.4323110000000  0.5368420000000 1.0
C      1  0.4354600000000  0.4242280000000  0.5123980000000 1.0
C      1  0.5928250000000  0.4828540000000  0.5193040000000 1.0
C      1  0.4555190000000  0.5908630000000  0.5169890000000 1.0
C      1  0.4442520000000  0.5094980000000  0.5751680000000 1.0
C      1  0.5093140000000  0.4565580000000  0.5732140000000 1.0
C      1  0.5261960000000  0.5359220000000  0.5783230000000 1.0
C      1  0.4453160000000  0.5525650000000  0.5107880000000 1.0
C      1  0.4730580000000  0.4378310000000  0.5121220000000 1.0
C      1  0.5669160000000  0.5129680000000  0.5153030000000 1.0
C      1  0.5721090000000  0.5480120000000  0.4864000000000 1.0
C      1  0.4190080000000  0.5373430000000  0.4744000000000 1.0
C      1  0.5099140000000  0.4085980000000  0.4701070000000 1.0
C      1  0.4243720000000  0.4924030000000  0.4390650000000 1.0
C      1  0.5460880000000  0.4307180000000  0.4375590000000 1.0
C      1  0.5262700000000  0.5768230000000  0.4444910000000 1.0
C      1  0.4369480000000  0.4522930000000  0.4489660000000 1.0
C      1  0.5717120000000  0.4752580000000  0.4569570000000 1.0
C      1  0.4861060000000  0.5762310000000  0.4652260000000 1.0
C      1  0.5910740000000  0.4208950000000  0.5300310000000 1.0
C      1  0.5251370000000  0.6152630000000  0.5373170000000 1.0
C      1  0.3939860000000  0.4843450000000  0.5268870000000 1.0
C      1  0.4531610000000  0.4994150000000  0.4058580000000 1.0
C      1  0.5382300000000  0.4691290000000  0.4220080000000 1.0
C      1  0.5195040000000  0.5493820000000  0.4138460000000 1.0
C      1  0.4015080000000  0.5075250000000  0.5033290000000 1.0
C      1  0.5706970000000  0.4247930000000  0.5096160000000 1.0
C      1  0.5328140000000  0.5947310000000  0.5180570000000 1.0
C      1  0.4856620000000  0.5296500000000  0.5338760000000 1.0
C      1  0.4742580000000  0.4794450000000  0.5354310000000 1.0
C      1  0.5274220000000  0.4869610000000  0.5298750000000 1.0
C      1  0.4222280000000  0.4688020000000  0.5410410000000 1.0
C      1  0.5613060000000  0.4529260000000  0.5461210000000 1.0
C      1  0.4970650000000  0.5787280000000  0.5454250000000 1.0
C      1  0.5236810000000  0.4966430000000  0.6819110000000 1.0
C      1  0.5501060000000  0.4915230000000  0.7566820000000 1.0
C      1  0.5033940000000  0.4858580000000  0.3125200000000 1.0
C      1  0.4990840000000  0.5000110000000  0.5232550000000 1.0
C      1  0.4971150000000  0.5017910000000  0.6067400000000 1.0
C      1  0.4950570000000  0.5016350000000  0.4561320000000 1.0
C      1  0.4882600000000  0.5035070000000  0.5816830000000 1.0
C      1  0.5035940000000  0.4976240000000  0.3912990000000 1.0
C      1  0.5031940000000  0.4741190000000  0.2339230000000 1.0
C      1  0.5413920000000  0.4932120000000  0.7320240000000 1.0
C      1  0.5035280000000  0.4937250000000  0.3651970000000 1.0
C      1  0.5032600000000  0.4779900000000  0.2598430000000 1.0
C      1  0.4794450000000  0.5052190000000  0.5567180000000 1.0
C      1  0.5059710000000  0.5000750000000  0.6317970000000 1.0
C      1  0.5148260000000  0.4983590000000  0.6568540000000 1.0
C      1  0.5033270000000  0.4819240000000  0.2861820000000 1.0
C      1  0.5325370000000  0.4949270000000  0.7069670000000 1.0
C      1  0.4990860000000  0.5038870000000  0.4896690000000 1.0
C      1  0.5034610000000  0.4897920000000  0.3388590000000 1.0
C      1  0.5036760000000  0.5024430000000  0.4235630000000 1.0
END
