TITL C-2782228-2999-994 -0.203967622784746 125000 -381.052433801151 0 0 65 (C1) n - 1
REM
REM in /home/nfs/bkarasulu/CARBON/AIRSS/Generating-Clusters/REBO/Higher-Symm/SD-CG/HFTN-CG
REM
REM
REM
REM
REM
REM ./C.cell (12c818d87b63d06a65506943cc24bca4)
REM
REM compiler GCC version 9.2.1 20190827 (Red Hat 9.2.1-1)
REM options -cpp -mtune=generic -march=x86-64 -g -O0 -fpre-include=/usr/include/finclude/math-vector-fortran.h
REM seed 1003241100 1082553823 476865650 -1874879630 -814915523 927664075 186113105 -205226130 774535020 -46755505 -332610973 5546975 1634289633 1863107999 262830022 1648392334 229891714 219934946 1262932618 -39214353 50080863 -1428916625 1029853345 -1287569349 823487676 898812056 2109652810 -672366334 -1377991051 -1215659476 2088662514 978977426 1420447941
REM
CELL 1.54180   50.00000   50.00000   50.00000   90.00000   90.00000   90.00000
LATT -1
SFAC C  
C      1  0.4712810000000  0.5133120000000  0.4381860000000 1.0
C      1  0.5794990000000  0.4626280000000  0.5199190000000 1.0
C      1  0.5081940000000  0.5221800000000  0.4831850000000 1.0
C      1  0.5246860000000  0.4831750000000  0.5691550000000 1.0
C      1  0.4866170000000  0.4564530000000  0.4941860000000 1.0
C      1  0.5165320000000  0.4330310000000  0.5217920000000 1.0
C      1  0.5105840000000  0.5429490000000  0.4450560000000 1.0
C      1  0.5004280000000  0.4844050000000  0.5061280000000 1.0
C      1  0.4839830000000  0.5777280000000  0.5064440000000 1.0
C      1  0.4355930000000  0.5539030000000  0.5202630000000 1.0
C      1  0.5086350000000  0.4375050000000  0.4505920000000 1.0
C      1  0.4581170000000  0.5399170000000  0.4910270000000 1.0
C      1  0.5500290000000  0.5442710000000  0.4921110000000 1.0
C      1  0.5275180000000  0.4630250000000  0.4629820000000 1.0
C      1  0.5438280000000  0.4450920000000  0.5158620000000 1.0
C      1  0.5600080000000  0.4560450000000  0.5424230000000 1.0
C      1  0.5457250000000  0.4641550000000  0.4872420000000 1.0
C      1  0.4288580000000  0.5259650000000  0.5018170000000 1.0
C      1  0.5714880000000  0.4438150000000  0.4956000000000 1.0
C      1  0.5284960000000  0.5111320000000  0.5725280000000 1.0
C      1  0.5008890000000  0.5139460000000  0.4330310000000 1.0
C      1  0.5302470000000  0.5164940000000  0.4503150000000 1.0
C      1  0.4846010000000  0.4774790000000  0.5295450000000 1.0
C      1  0.4568770000000  0.5705750000000  0.5011550000000 1.0
C      1  0.5395840000000  0.5141810000000  0.5182100000000 1.0
C      1  0.4352790000000  0.4847820000000  0.4641750000000 1.0
C      1  0.4755160000000  0.4635690000000  0.4257960000000 1.0
C      1  0.4908380000000  0.5539340000000  0.4631920000000 1.0
C      1  0.4627540000000  0.5349350000000  0.4598950000000 1.0
C      1  0.4552040000000  0.4513180000000  0.4997000000000 1.0
C      1  0.4343750000000  0.4994000000000  0.5172360000000 1.0
C      1  0.4587660000000  0.4891010000000  0.4324450000000 1.0
C      1  0.4690110000000  0.4499860000000  0.5292370000000 1.0
C      1  0.5468160000000  0.4668020000000  0.5640220000000 1.0
C      1  0.4890000000000  0.4258680000000  0.4689110000000 1.0
C      1  0.4651390000000  0.5551810000000  0.5370430000000 1.0
C      1  0.5609080000000  0.5318810000000  0.5284330000000 1.0
C      1  0.4924310000000  0.5685990000000  0.5342190000000 1.0
C      1  0.4510910000000  0.4595980000000  0.4486770000000 1.0
C      1  0.5179840000000  0.5583800000000  0.5430210000000 1.0
C      1  0.5527240000000  0.4929190000000  0.4953510000000 1.0
C      1  0.4986320000000  0.4430090000000  0.5425710000000 1.0
C      1  0.4739920000000  0.4973150000000  0.5619580000000 1.0
C      1  0.5403870000000  0.5571460000000  0.5224880000000 1.0
C      1  0.5797030000000  0.4911320000000  0.5128230000000 1.0
C      1  0.5845920000000  0.5160560000000  0.5262560000000 1.0
C      1  0.5196530000000  0.4864720000000  0.4394460000000 1.0
C      1  0.5284610000000  0.5673290000000  0.4924690000000 1.0
C      1  0.4614470000000  0.4381440000000  0.4694710000000 1.0
C      1  0.4916610000000  0.5205560000000  0.5602370000000 1.0
C      1  0.4597570000000  0.5012570000000  0.4811310000000 1.0
C      1  0.4404810000000  0.4769450000000  0.4963810000000 1.0
C      1  0.4334560000000  0.5187400000000  0.4685840000000 1.0
C      1  0.4975180000000  0.4727150000000  0.5598230000000 1.0
C      1  0.4639990000000  0.5259020000000  0.5205070000000 1.0
C      1  0.4881590000000  0.5043500000000  0.4741300000000 1.0
C      1  0.5015230000000  0.5699620000000  0.4849030000000 1.0
C      1  0.5417930000000  0.5179090000000  0.4785990000000 1.0
C      1  0.5006590000000  0.4760480000000  0.4729890000000 1.0
C      1  0.5025110000000  0.4601470000000  0.4320300000000 1.0
C      1  0.4542110000000  0.5010100000000  0.5405570000000 1.0
C      1  0.5175780000000  0.5372120000000  0.5621530000000 1.0
C      1  0.4934740000000  0.5277160000000  0.5308250000000 1.0
C      1  0.5136790000000  0.5238630000000  0.5123440000000 1.0
C      1  0.5025400000000  0.4294510000000  0.4972200000000 1.0
END
