TITL C-2782231-7322-338 -0.00840306546134287 125000 -1027.69803685566 0 0 175 (C1) n - 1
REM
REM in /home/nfs/bkarasulu/CARBON/AIRSS/Generating-Clusters/REBO/Higher-Symm/SD-CG/HFTN-CG
REM
REM
REM
REM
REM
REM ./C.cell (12c818d87b63d06a65506943cc24bca4)
REM
REM compiler GCC version 9.2.1 20190827 (Red Hat 9.2.1-1)
REM options -cpp -mtune=generic -march=x86-64 -g -O0 -fpre-include=/usr/include/finclude/math-vector-fortran.h
REM seed 627437740 -673316585 -1604143588 1929302645 309143358 1212871410 1806789590 -1967478707 1717025489 1202829769 1109416250 -1064048477 1415248913 1925772518 2123382419 -492620730 2052211255 711201671 1717629307 1339504421 1233013798 -2004589497 867469759 -535464728 -1592113965 915216394 1267320481 -1949074195 505061644 -1118723287 390342140 -879656124 1626734355
REM
CELL 1.54180   50.00000   50.00000   50.00000   90.00000   90.00000   90.00000
LATT -1
SFAC C  
C      1  0.4896510000000  0.5765140000000  0.5187800000000 1.0
C      1  0.5104420000000  0.5803270000000  0.4915860000000 1.0
C      1  0.5927460000000  0.5084970000000  0.4447360000000 1.0
C      1  0.4082830000000  0.5053920000000  0.5596820000000 1.0
C      1  0.4045650000000  0.4900140000000  0.4959010000000 1.0
C      1  0.5860350000000  0.4836160000000  0.5112850000000 1.0
C      1  0.5443700000000  0.4868880000000  0.6004960000000 1.0
C      1  0.4659470000000  0.4855850000000  0.4080980000000 1.0
C      1  0.5826910000000  0.4229690000000  0.4587090000000 1.0
C      1  0.4291630000000  0.4185010000000  0.5388720000000 1.0
C      1  0.4412350000000  0.5038410000000  0.5659220000000 1.0
C      1  0.5608380000000  0.5040170000000  0.4340670000000 1.0
C      1  0.5661430000000  0.5852230000000  0.4747150000000 1.0
C      1  0.4370840000000  0.5848480000000  0.5287930000000 1.0
C      1  0.5190740000000  0.6098050000000  0.5037370000000 1.0
C      1  0.4872510000000  0.6050390000000  0.4912180000000 1.0
C      1  0.5877220000000  0.5293080000000  0.5476880000000 1.0
C      1  0.3984800000000  0.5411540000000  0.4575560000000 1.0
C      1  0.3997640000000  0.5719670000000  0.4640750000000 1.0
C      1  0.6035750000000  0.5595090000000  0.5490570000000 1.0
C      1  0.4862620000000  0.4418280000000  0.4896190000000 1.0
C      1  0.5093700000000  0.4420340000000  0.5112660000000 1.0
C      1  0.5907450000000  0.4817130000000  0.5747030000000 1.0
C      1  0.4034230000000  0.4901060000000  0.4332650000000 1.0
C      1  0.4840210000000  0.4113730000000  0.4858410000000 1.0
C      1  0.5172970000000  0.4129660000000  0.5199420000000 1.0
C      1  0.5020550000000  0.5602980000000  0.4432600000000 1.0
C      1  0.5001500000000  0.5582240000000  0.5526580000000 1.0
C      1  0.4284780000000  0.5562510000000  0.4546560000000 1.0
C      1  0.5769990000000  0.5558070000000  0.5313100000000 1.0
C      1  0.3977690000000  0.5321140000000  0.5485600000000 1.0
C      1  0.5997550000000  0.5353340000000  0.4571730000000 1.0
C      1  0.5478460000000  0.4571890000000  0.5268420000000 1.0
C      1  0.4523720000000  0.4472820000000  0.4692300000000 1.0
C      1  0.4592010000000  0.5296260000000  0.5529320000000 1.0
C      1  0.5407870000000  0.5287140000000  0.4462910000000 1.0
C      1  0.4651930000000  0.5353230000000  0.4411120000000 1.0
C      1  0.5344460000000  0.5253730000000  0.5494010000000 1.0
C      1  0.4876920000000  0.5314940000000  0.5616710000000 1.0
C      1  0.5113210000000  0.5316820000000  0.4364760000000 1.0
C      1  0.5303530000000  0.5822540000000  0.5646670000000 1.0
C      1  0.4636630000000  0.5833090000000  0.4334750000000 1.0
C      1  0.5760250000000  0.4479890000000  0.4429170000000 1.0
C      1  0.4289860000000  0.4421980000000  0.5574260000000 1.0
C      1  0.5084270000000  0.4014210000000  0.4732220000000 1.0
C      1  0.4898580000000  0.4019060000000  0.5316940000000 1.0
C      1  0.4846240000000  0.4590460000000  0.4058510000000 1.0
C      1  0.5259430000000  0.4603670000000  0.5900110000000 1.0
C      1  0.4996200000000  0.5062260000000  0.6068600000000 1.0
C      1  0.5119710000000  0.5082320000000  0.3856150000000 1.0
C      1  0.4881660000000  0.4827730000000  0.5634250000000 1.0
C      1  0.5168310000000  0.4757230000000  0.4225130000000 1.0
C      1  0.4566910000000  0.4568900000000  0.4434640000000 1.0
C      1  0.5430800000000  0.4638290000000  0.5540860000000 1.0
C      1  0.5006560000000  0.4926050000000  0.5343460000000 1.0
C      1  0.5046610000000  0.4823830000000  0.4517490000000 1.0
C      1  0.4243970000000  0.5071370000000  0.4278680000000 1.0
C      1  0.5715480000000  0.5040590000000  0.5889530000000 1.0
C      1  0.4621330000000  0.5958580000000  0.5125560000000 1.0
C      1  0.5509210000000  0.6061090000000  0.4912220000000 1.0
C      1  0.5382890000000  0.5070180000000  0.5143080000000 1.0
C      1  0.4705960000000  0.5139780000000  0.4740920000000 1.0
C      1  0.4842590000000  0.5607060000000  0.4691030000000 1.0
C      1  0.5229030000000  0.5595840000000  0.5325680000000 1.0
C      1  0.3905000000000  0.5207270000000  0.5001740000000 1.0
C      1  0.6046500000000  0.5120770000000  0.5044200000000 1.0
C      1  0.4953360000000  0.5617330000000  0.3971130000000 1.0
C      1  0.4987880000000  0.5628550000000  0.5997020000000 1.0
C      1  0.5372130000000  0.4358090000000  0.5714250000000 1.0
C      1  0.4667110000000  0.4348110000000  0.4216390000000 1.0
C      1  0.5271310000000  0.3977300000000  0.4944410000000 1.0
C      1  0.4732190000000  0.3970140000000  0.5089050000000 1.0
C      1  0.3990030000000  0.4815550000000  0.5470070000000 1.0
C      1  0.6009370000000  0.4867990000000  0.4607800000000 1.0
C      1  0.5059890000000  0.4830690000000  0.3944030000000 1.0
C      1  0.5035900000000  0.4839610000000  0.5916180000000 1.0
C      1  0.5094200000000  0.4077410000000  0.4446640000000 1.0
C      1  0.4900630000000  0.4078480000000  0.5606730000000 1.0
C      1  0.5028210000000  0.4475980000000  0.4323710000000 1.0
C      1  0.5012630000000  0.4524520000000  0.5677000000000 1.0
C      1  0.4499410000000  0.5790250000000  0.5540830000000 1.0
C      1  0.5483700000000  0.5761910000000  0.4542660000000 1.0
C      1  0.4403520000000  0.5673430000000  0.4294520000000 1.0
C      1  0.5520760000000  0.5650480000000  0.5454840000000 1.0
C      1  0.5240690000000  0.5096490000000  0.4898850000000 1.0
C      1  0.4759100000000  0.5063610000000  0.5029190000000 1.0
C      1  0.4214400000000  0.4298470000000  0.5085570000000 1.0
C      1  0.5886710000000  0.4306940000000  0.4893960000000 1.0
C      1  0.6096330000000  0.4770510000000  0.4875390000000 1.0
C      1  0.3893930000000  0.4721980000000  0.5192640000000 1.0
C      1  0.5281660000000  0.5180920000000  0.5815290000000 1.0
C      1  0.4772650000000  0.5313040000000  0.4156370000000 1.0
C      1  0.3916880000000  0.5182470000000  0.4709750000000 1.0
C      1  0.6047620000000  0.5093800000000  0.5344560000000 1.0
C      1  0.4469880000000  0.5491860000000  0.5024520000000 1.0
C      1  0.5525740000000  0.5529880000000  0.4983300000000 1.0
C      1  0.4335700000000  0.5028290000000  0.5267230000000 1.0
C      1  0.5597780000000  0.5038190000000  0.4739270000000 1.0
C      1  0.5694070000000  0.4150600000000  0.5066730000000 1.0
C      1  0.4312410000000  0.4086800000000  0.4893230000000 1.0
C      1  0.4614040000000  0.5125660000000  0.3995460000000 1.0
C      1  0.5428780000000  0.5184810000000  0.6119340000000 1.0
C      1  0.6058210000000  0.4539060000000  0.5292980000000 1.0
C      1  0.3973590000000  0.4572810000000  0.4742150000000 1.0
C      1  0.5779430000000  0.4688100000000  0.4646290000000 1.0
C      1  0.4225340000000  0.4643920000000  0.5395670000000 1.0
C      1  0.4838820000000  0.4081910000000  0.4324640000000 1.0
C      1  0.5177060000000  0.4079360000000  0.5700920000000 1.0
C      1  0.5462880000000  0.5812940000000  0.5091380000000 1.0
C      1  0.4624570000000  0.5737150000000  0.4896490000000 1.0
C      1  0.4715840000000  0.5923100000000  0.4634340000000 1.0
C      1  0.5272110000000  0.5933870000000  0.5325890000000 1.0
C      1  0.5952890000000  0.4806710000000  0.5443040000000 1.0
C      1  0.3976490000000  0.4877490000000  0.4624990000000 1.0
C      1  0.4996540000000  0.5331460000000  0.5907460000000 1.0
C      1  0.5070850000000  0.5321360000000  0.4038140000000 1.0
C      1  0.5713640000000  0.5285340000000  0.4719140000000 1.0
C      1  0.4254770000000  0.5283510000000  0.5318690000000 1.0
C      1  0.5382380000000  0.4140120000000  0.5452010000000 1.0
C      1  0.4536120000000  0.4102180000000  0.4418290000000 1.0
C      1  0.3911920000000  0.5421120000000  0.5182650000000 1.0
C      1  0.6066890000000  0.5349660000000  0.4888900000000 1.0
C      1  0.4004370000000  0.4505410000000  0.5007560000000 1.0
C      1  0.6064980000000  0.4506810000000  0.5019820000000 1.0
C      1  0.5565520000000  0.4369750000000  0.4757890000000 1.0
C      1  0.4502670000000  0.4404190000000  0.5237770000000 1.0
C      1  0.5822800000000  0.5583230000000  0.4847930000000 1.0
C      1  0.4206760000000  0.5592810000000  0.5178100000000 1.0
C      1  0.5550780000000  0.4299290000000  0.5247720000000 1.0
C      1  0.4440710000000  0.4199500000000  0.4668740000000 1.0
C      1  0.5214220000000  0.5742920000000  0.4633930000000 1.0
C      1  0.4794470000000  0.5833050000000  0.5507300000000 1.0
C      1  0.6027850000000  0.4638500000000  0.5902460000000 1.0
C      1  0.3869260000000  0.4781950000000  0.4146530000000 1.0
C      1  0.5473220000000  0.4763800000000  0.4347330000000 1.0
C      1  0.4573540000000  0.4792050000000  0.5655120000000 1.0
C      1  0.5642740000000  0.5154230000000  0.5593180000000 1.0
C      1  0.4477670000000  0.5074510000000  0.4499030000000 1.0
C      1  0.5004300000000  0.5387190000000  0.4838050000000 1.0
C      1  0.4988840000000  0.5440330000000  0.5141190000000 1.0
C      1  0.4414000000000  0.5556680000000  0.5666980000000 1.0
C      1  0.5572560000000  0.5552970000000  0.4375410000000 1.0
C      1  0.4997750000000  0.5126830000000  0.4606880000000 1.0
C      1  0.5064500000000  0.5217480000000  0.5376500000000 1.0
C      1  0.5519040000000  0.5591340000000  0.5780760000000 1.0
C      1  0.4329230000000  0.5512520000000  0.4069990000000 1.0
C      1  0.4339500000000  0.5223580000000  0.4048070000000 1.0
C      1  0.5614780000000  0.5369840000000  0.5927710000000 1.0
C      1  0.5509900000000  0.4435730000000  0.4271550000000 1.0
C      1  0.4533800000000  0.4474270000000  0.5713150000000 1.0
C      1  0.4874770000000  0.5739500000000  0.4205230000000 1.0
C      1  0.5014200000000  0.5808960000000  0.5767070000000 1.0
C      1  0.5417080000000  0.4902380000000  0.5667170000000 1.0
C      1  0.4548990000000  0.4819920000000  0.4339780000000 1.0
C      1  0.4464330000000  0.3889890000000  0.5035520000000 1.0
C      1  0.5549890000000  0.3940140000000  0.4946240000000 1.0
C      1  0.4622150000000  0.4625820000000  0.5354410000000 1.0
C      1  0.5402630000000  0.4572880000000  0.4629500000000 1.0
C      1  0.4304720000000  0.5318120000000  0.5802090000000 1.0
C      1  0.5719720000000  0.5341770000000  0.4224180000000 1.0
C      1  0.4615080000000  0.4917560000000  0.5277970000000 1.0
C      1  0.5301250000000  0.4879380000000  0.4687720000000 1.0
C      1  0.4628340000000  0.4658710000000  0.4957130000000 1.0
C      1  0.5276950000000  0.4698280000000  0.5040930000000 1.0
C      1  0.5072730000000  0.4601920000000  0.5370550000000 1.0
C      1  0.4919240000000  0.4548110000000  0.4621300000000 1.0
C      1  0.4320840000000  0.4738310000000  0.5082070000000 1.0
C      1  0.5594440000000  0.4757060000000  0.4927620000000 1.0
C      1  0.5329800000000  0.5380240000000  0.4769810000000 1.0
C      1  0.4637390000000  0.5307870000000  0.5210200000000 1.0
C      1  0.5541550000000  0.5319300000000  0.5233050000000 1.0
C      1  0.4497940000000  0.5407580000000  0.4713200000000 1.0
C      1  0.4776040000000  0.4328250000000  0.5698780000000 1.0
C      1  0.5279000000000  0.4281590000000  0.4320760000000 1.0
C      1  0.4941670000000  0.4781490000000  0.5040950000000 1.0
END
