TITL C-2782226-7400-334 -0.000352682878008665 125000 -313.867424659725 0 0 57 (C1) n - 1
REM
REM in /home/nfs/bkarasulu/CARBON/AIRSS/Generating-Clusters/REBO/Higher-Symm/SD-CG/HFTN-CG
REM
REM
REM
REM
REM
REM ./C.cell (12c818d87b63d06a65506943cc24bca4)
REM
REM compiler GCC version 9.2.1 20190827 (Red Hat 9.2.1-1)
REM options -cpp -mtune=generic -march=x86-64 -g -O0 -fpre-include=/usr/include/finclude/math-vector-fortran.h
REM seed -425873566 -2021718700 1278657188 953451835 -1800709938 425435861 1058838552 1735319721 -1730435750 -249896082 -714077862 1728521657 20230718 -1438534375 -666240560 69813479 652085187 1415143998 1834240197 1400022624 -1929037058 1550589590 -1220969371 -72443595 -875790632 470601278 1522482969 470731241 121092530 -763386339 -334890570 1032709200 407109640
REM
CELL 1.54180   50.00000   50.00000   50.00000   90.00000   90.00000   90.00000
LATT -1
SFAC C  
C      1  0.4456440000000  0.4558590000000  0.5278960000000 1.0
C      1  0.5626070000000  0.4796530000000  0.5218570000000 1.0
C      1  0.4875600000000  0.5636410000000  0.5244670000000 1.0
C      1  0.4514390000000  0.4582300000000  0.4782130000000 1.0
C      1  0.5639690000000  0.4739100000000  0.4731950000000 1.0
C      1  0.4855040000000  0.5667100000000  0.4725650000000 1.0
C      1  0.4485040000000  0.5439030000000  0.5249750000000 1.0
C      1  0.5615390000000  0.5195610000000  0.5227460000000 1.0
C      1  0.4906330000000  0.4301940000000  0.5261760000000 1.0
C      1  0.4503910000000  0.5444430000000  0.4721250000000 1.0
C      1  0.5650030000000  0.5277480000000  0.4741880000000 1.0
C      1  0.4851500000000  0.4366560000000  0.4763410000000 1.0
C      1  0.4345070000000  0.5172690000000  0.4825120000000 1.0
C      1  0.5176040000000  0.4318380000000  0.4831140000000 1.0
C      1  0.5466350000000  0.5538720000000  0.4859220000000 1.0
C      1  0.4309970000000  0.5170980000000  0.5132420000000 1.0
C      1  0.5219400000000  0.4336910000000  0.5133490000000 1.0
C      1  0.5464600000000  0.5485490000000  0.5161740000000 1.0
C      1  0.4350700000000  0.4863210000000  0.4882910000000 1.0
C      1  0.5175880000000  0.5688800000000  0.4825280000000 1.0
C      1  0.5456050000000  0.4475310000000  0.4843890000000 1.0
C      1  0.4308030000000  0.4840390000000  0.5182580000000 1.0
C      1  0.5191580000000  0.5644530000000  0.5126630000000 1.0
C      1  0.5493810000000  0.4500630000000  0.5145430000000 1.0
C      1  0.5379420000000  0.4706460000000  0.5457300000000 1.0
C      1  0.5063930000000  0.5397370000000  0.5408220000000 1.0
C      1  0.4570790000000  0.4819070000000  0.5478370000000 1.0
C      1  0.5333460000000  0.4731080000000  0.4567230000000 1.0
C      1  0.5067910000000  0.5486220000000  0.4507650000000 1.0
C      1  0.4598970000000  0.4856590000000  0.4576910000000 1.0
C      1  0.5352890000000  0.5249040000000  0.5455340000000 1.0
C      1  0.5082650000000  0.4540380000000  0.5445540000000 1.0
C      1  0.4578990000000  0.5145080000000  0.5418190000000 1.0
C      1  0.5357970000000  0.5312990000000  0.4554280000000 1.0
C      1  0.5051610000000  0.4560320000000  0.4548260000000 1.0
C      1  0.4584130000000  0.5178750000000  0.4510200000000 1.0
C      1  0.4980580000000  0.5286380000000  0.5092220000000 1.0
C      1  0.4707590000000  0.4849290000000  0.5183950000000 1.0
C      1  0.5230710000000  0.4806460000000  0.5187920000000 1.0
C      1  0.5026510000000  0.5314000000000  0.4771800000000 1.0
C      1  0.4788730000000  0.4855710000000  0.4852660000000 1.0
C      1  0.5301930000000  0.4878100000000  0.4874180000000 1.0
C      1  0.4955840000000  0.4676530000000  0.5163050000000 1.0
C      1  0.4707170000000  0.5151460000000  0.5103050000000 1.0
C      1  0.5229510000000  0.5114150000000  0.5185690000000 1.0
C      1  0.5052300000000  0.4698210000000  0.4846970000000 1.0
C      1  0.4769510000000  0.5155890000000  0.4778860000000 1.0
C      1  0.5289870000000  0.5180300000000  0.4864540000000 1.0
C      1  0.5556750000000  0.4987420000000  0.5492070000000 1.0
C      1  0.4736670000000  0.5433520000000  0.5481640000000 1.0
C      1  0.5522110000000  0.5014740000000  0.4570250000000 1.0
C      1  0.4730340000000  0.5482160000000  0.4467830000000 1.0
C      1  0.4741670000000  0.4523910000000  0.5462770000000 1.0
C      1  0.4719560000000  0.4552370000000  0.4510360000000 1.0
C      1  0.5671980000000  0.5003970000000  0.4949680000000 1.0
C      1  0.4667260000000  0.4423090000000  0.5045160000000 1.0
C      1  0.4653820000000  0.5587890000000  0.4990920000000 1.0
END
