TITL C-2782239-8622-452 5.71816583003598 125000 -314.133920968463 0 0 58 (C1) n - 1
REM
REM in /home/nfs/bkarasulu/CARBON/AIRSS/Generating-Clusters/REBO/Higher-Symm/SD-CG/HFTN-CG
REM
REM
REM
REM
REM
REM ./C.cell (12c818d87b63d06a65506943cc24bca4)
REM
REM compiler GCC version 9.2.1 20190827 (Red Hat 9.2.1-1)
REM options -cpp -mtune=generic -march=x86-64 -g -O0 -fpre-include=/usr/include/finclude/math-vector-fortran.h
REM seed -1741089056 -253807911 184382180 -408568111 185240123 -960837699 -318307804 -1334097467 -327135212 -22497503 1958200686 -2144792872 1982905488 -660035840 -1364040083 -1716180549 -1383173279 -1779168629 -1631447839 -200595326 462656065 -343287033 482257944 755191377 262642090 -919654915 639980483 -703896272 -660158932 -874711927 852113850 977559120 -501446487
REM
CELL 1.54180   50.00000   50.00000   50.00000   90.00000   90.00000   90.00000
LATT -1
SFAC C  
C      1  0.4529310000000  0.4815870000000  0.5722640000000 1.0
C      1  0.4845700000000  0.4532850000000  0.4604700000000 1.0
C      1  0.4455320000000  0.5714350000000  0.4974630000000 1.0
C      1  0.4415990000000  0.5566750000000  0.5586170000000 1.0
C      1  0.4827030000000  0.4343090000000  0.5556140000000 1.0
C      1  0.4876350000000  0.4991520000000  0.4447930000000 1.0
C      1  0.6231080000000  0.4877160000000  0.4959220000000 1.0
C      1  0.6056600000000  0.4860070000000  0.4405180000000 1.0
C      1  0.6258570000000  0.5209480000000  0.5180140000000 1.0
C      1  0.4189310000000  0.5451320000000  0.5389940000000 1.0
C      1  0.4620490000000  0.4433350000000  0.5329910000000 1.0
C      1  0.4772950000000  0.5235250000000  0.4552780000000 1.0
C      1  0.5253200000000  0.4667000000000  0.4933790000000 1.0
C      1  0.5220960000000  0.5342860000000  0.4784890000000 1.0
C      1  0.5286610000000  0.5282730000000  0.5069750000000 1.0
C      1  0.4612970000000  0.5357830000000  0.5059540000000 1.0
C      1  0.4681290000000  0.4965980000000  0.5385770000000 1.0
C      1  0.4872860000000  0.4913270000000  0.4932520000000 1.0
C      1  0.4820410000000  0.4407910000000  0.4360060000000 1.0
C      1  0.4350440000000  0.5948640000000  0.4916280000000 1.0
C      1  0.4446810000000  0.4729500000000  0.5956570000000 1.0
C      1  0.4438110000000  0.5082100000000  0.5581950000000 1.0
C      1  0.4769410000000  0.4377850000000  0.4870360000000 1.0
C      1  0.4590050000000  0.5523410000000  0.4760780000000 1.0
C      1  0.5748830000000  0.4680790000000  0.4818020000000 1.0
C      1  0.5647360000000  0.5195380000000  0.4510860000000 1.0
C      1  0.5740510000000  0.5116860000000  0.5299170000000 1.0
C      1  0.5055510000000  0.4526160000000  0.4943690000000 1.0
C      1  0.4980790000000  0.5399850000000  0.4658960000000 1.0
C      1  0.5078780000000  0.5260700000000  0.5241850000000 1.0
C      1  0.5589570000000  0.5414020000000  0.4350110000000 1.0
C      1  0.5654260000000  0.5083120000000  0.5560750000000 1.0
C      1  0.5719250000000  0.4440820000000  0.4681960000000 1.0
C      1  0.5691300000000  0.4214140000000  0.4553440000000 1.0
C      1  0.5535000000000  0.5620530000000  0.4198260000000 1.0
C      1  0.5572790000000  0.5051250000000  0.5807790000000 1.0
C      1  0.5478490000000  0.5144290000000  0.4748780000000 1.0
C      1  0.5545710000000  0.5101830000000  0.5082550000000 1.0
C      1  0.5503650000000  0.4836800000000  0.4889230000000 1.0
C      1  0.4402090000000  0.4969410000000  0.4833190000000 1.0
C      1  0.4168830000000  0.5017070000000  0.5111790000000 1.0
C      1  0.4263690000000  0.4707830000000  0.5054780000000 1.0
C      1  0.4613500000000  0.4774220000000  0.4892370000000 1.0
C      1  0.4306240000000  0.5296210000000  0.5040300000000 1.0
C      1  0.4431490000000  0.4790280000000  0.5308700000000 1.0
C      1  0.4736630000000  0.4670210000000  0.5535140000000 1.0
C      1  0.4929030000000  0.4798820000000  0.4649550000000 1.0
C      1  0.4463180000000  0.5590320000000  0.5258500000000 1.0
C      1  0.4505220000000  0.5202640000000  0.4707340000000 1.0
C      1  0.4195220000000  0.5156820000000  0.5396680000000 1.0
C      1  0.4537900000000  0.4503960000000  0.5051230000000 1.0
C      1  0.4696200000000  0.5654560000000  0.4542280000000 1.0
C      1  0.4516480000000  0.5349710000000  0.5727650000000 1.0
C      1  0.4765870000000  0.4098690000000  0.4855430000000 1.0
C      1  0.6006940000000  0.5164490000000  0.5237960000000 1.0
C      1  0.5996820000000  0.4781770000000  0.4890630000000 1.0
C      1  0.5857810000000  0.5022940000000  0.4456510000000 1.0
C      1  0.4809530000000  0.5131750000000  0.5159250000000 1.0
END
