TITL C-2782240-8521-319 0.0019615112036006 125000 -1095.01480937525 0 0 187 (C1) n - 1
REM
REM in /home/nfs/bkarasulu/CARBON/AIRSS/Generating-Clusters/REBO/Higher-Symm/SD-CG/HFTN-CG
REM
REM
REM
REM
REM
REM ./C.cell (12c818d87b63d06a65506943cc24bca4)
REM
REM compiler GCC version 9.2.1 20190827 (Red Hat 9.2.1-1)
REM options -cpp -mtune=generic -march=x86-64 -g -O0 -fpre-include=/usr/include/finclude/math-vector-fortran.h
REM seed -323553661 1945507522 468889 -835693946 -1512821711 343949283 -1996593091 -1203013865 -1105772893 1195056821 528338884 335688908 1155784963 -2105049736 1521651881 899326535 -2003260393 960267029 -1032985551 -1121710597 632885948 -1720248516 1530099458 -1903918708 1206740523 1152625243 -1576214248 -592962856 -1760053089 -817798231 788689452 -1712779442 1847175656
REM
CELL 1.54180   50.00000   50.00000   50.00000   90.00000   90.00000   90.00000
LATT -1
SFAC C  
C      1  0.5339360000000  0.5384610000000  0.4443610000000 1.0
C      1  0.4424250000000  0.5095080000000  0.4485670000000 1.0
C      1  0.5217780000000  0.4429700000000  0.4484130000000 1.0
C      1  0.5611610000000  0.5844040000000  0.4698460000000 1.0
C      1  0.3929770000000  0.5055210000000  0.4755190000000 1.0
C      1  0.5446510000000  0.4012880000000  0.4730180000000 1.0
C      1  0.4478310000000  0.4897630000000  0.5357070000000 1.0
C      1  0.5354430000000  0.4641420000000  0.5355710000000 1.0
C      1  0.5167970000000  0.5502900000000  0.5360030000000 1.0
C      1  0.4667430000000  0.4431810000000  0.5406650000000 1.0
C      1  0.5460430000000  0.5055920000000  0.5388880000000 1.0
C      1  0.4771460000000  0.5414820000000  0.5457740000000 1.0
C      1  0.4456370000000  0.5719090000000  0.4335440000000 1.0
C      1  0.4661560000000  0.4168430000000  0.4274280000000 1.0
C      1  0.5853230000000  0.5087660000000  0.4315080000000 1.0
C      1  0.4321400000000  0.5107350000000  0.4158490000000 1.0
C      1  0.5246930000000  0.4349540000000  0.4150740000000 1.0
C      1  0.5411330000000  0.5542850000000  0.4165980000000 1.0
C      1  0.4814270000000  0.6019570000000  0.4487000000000 1.0
C      1  0.4218740000000  0.4317870000000  0.4412120000000 1.0
C      1  0.5970460000000  0.4633380000000  0.4436340000000 1.0
C      1  0.4778410000000  0.5608950000000  0.5200410000000 1.0
C      1  0.4557940000000  0.4491400000000  0.5129620000000 1.0
C      1  0.5667040000000  0.4954920000000  0.5157120000000 1.0
C      1  0.5787860000000  0.4352150000000  0.4495170000000 1.0
C      1  0.5154380000000  0.6009180000000  0.4519040000000 1.0
C      1  0.4065600000000  0.4615080000000  0.4475850000000 1.0
C      1  0.4772280000000  0.5286390000000  0.3999970000000 1.0
C      1  0.4888240000000  0.4676410000000  0.4016460000000 1.0
C      1  0.5302600000000  0.5063690000000  0.3990080000000 1.0
C      1  0.5026860000000  0.5629240000000  0.4232780000000 1.0
C      1  0.4476150000000  0.4760220000000  0.4280050000000 1.0
C      1  0.5489040000000  0.4648830000000  0.4249240000000 1.0
C      1  0.4880110000000  0.6032330000000  0.4975340000000 1.0
C      1  0.4108580000000  0.4364420000000  0.4947980000000 1.0
C      1  0.5962060000000  0.4584290000000  0.4976500000000 1.0
C      1  0.6051970000000  0.5043440000000  0.4761420000000 1.0
C      1  0.4431600000000  0.5830420000000  0.4807910000000 1.0
C      1  0.4554920000000  0.4086640000000  0.4741630000000 1.0
C      1  0.4927320000000  0.5600140000000  0.4729250000000 1.0
C      1  0.4541400000000  0.4548850000000  0.4725580000000 1.0
C      1  0.5613300000000  0.4795950000000  0.4720950000000 1.0
C      1  0.5209310000000  0.5197000000000  0.5227420000000 1.0
C      1  0.4804130000000  0.4950540000000  0.5262280000000 1.0
C      1  0.5119510000000  0.4863670000000  0.5253330000000 1.0
C      1  0.4990360000000  0.4779400000000  0.5941880000000 1.0
C      1  0.5162180000000  0.5071760000000  0.5922150000000 1.0
C      1  0.4788220000000  0.5099520000000  0.5992540000000 1.0
C      1  0.5682020000000  0.4214660000000  0.4790290000000 1.0
C      1  0.5353470000000  0.5957370000000  0.4798830000000 1.0
C      1  0.3982400000000  0.4741780000000  0.4781050000000 1.0
C      1  0.5851260000000  0.5758940000000  0.5190900000000 1.0
C      1  0.3959020000000  0.5332830000000  0.5378260000000 1.0
C      1  0.5261730000000  0.4006540000000  0.5388010000000 1.0
C      1  0.5243920000000  0.5306510000000  0.5609230000000 1.0
C      1  0.4584740000000  0.5088310000000  0.5595990000000 1.0
C      1  0.5145700000000  0.4626360000000  0.5606870000000 1.0
C      1  0.5277510000000  0.5824390000000  0.4307560000000 1.0
C      1  0.4156210000000  0.4857160000000  0.4315760000000 1.0
C      1  0.5551130000000  0.4318330000000  0.4302000000000 1.0
C      1  0.5646280000000  0.5131300000000  0.4779550000000 1.0
C      1  0.4631350000000  0.5431580000000  0.4740380000000 1.0
C      1  0.4819030000000  0.4388320000000  0.4784140000000 1.0
C      1  0.4760000000000  0.5011090000000  0.4683680000000 1.0
C      1  0.5122800000000  0.4814620000000  0.4629930000000 1.0
C      1  0.5055060000000  0.5138190000000  0.4662970000000 1.0
C      1  0.4974230000000  0.5209860000000  0.5549800000000 1.0
C      1  0.4859180000000  0.4961460000000  0.5689850000000 1.0
C      1  0.5280350000000  0.4912450000000  0.5639220000000 1.0
C      1  0.3916690000000  0.5180650000000  0.5076110000000 1.0
C      1  0.5393480000000  0.4032990000000  0.5071500000000 1.0
C      1  0.5847130000000  0.5783400000000  0.4923680000000 1.0
C      1  0.4494050000000  0.3974760000000  0.5067200000000 1.0
C      1  0.6177080000000  0.5119720000000  0.5074120000000 1.0
C      1  0.4338220000000  0.5901050000000  0.5133430000000 1.0
C      1  0.5018720000000  0.5413170000000  0.4477230000000 1.0
C      1  0.4651540000000  0.4768870000000  0.4528210000000 1.0
C      1  0.5398200000000  0.4798010000000  0.4494030000000 1.0
C      1  0.4407940000000  0.4274580000000  0.4983940000000 1.0
C      1  0.5958120000000  0.4873690000000  0.5037270000000 1.0
C      1  0.4651090000000  0.5873400000000  0.5058770000000 1.0
C      1  0.6066020000000  0.5400910000000  0.4930480000000 1.0
C      1  0.4231470000000  0.5603650000000  0.5067960000000 1.0
C      1  0.4800830000000  0.3891020000000  0.4982820000000 1.0
C      1  0.4232110000000  0.5717000000000  0.5619050000000 1.0
C      1  0.4737920000000  0.4119390000000  0.5530130000000 1.0
C      1  0.5926540000000  0.5299030000000  0.5568810000000 1.0
C      1  0.5768710000000  0.4440940000000  0.5610030000000 1.0
C      1  0.5087150000000  0.5955340000000  0.5618350000000 1.0
C      1  0.4078840000000  0.4635450000000  0.5570740000000 1.0
C      1  0.5278000000000  0.5381170000000  0.3942710000000 1.0
C      1  0.4536380000000  0.5078430000000  0.3965060000000 1.0
C      1  0.5174390000000  0.4558120000000  0.3971420000000 1.0
C      1  0.4949020000000  0.5429230000000  0.4997670000000 1.0
C      1  0.4691500000000  0.4725800000000  0.4955030000000 1.0
C      1  0.5437380000000  0.4850170000000  0.4970390000000 1.0
C      1  0.4418870000000  0.5169560000000  0.4812740000000 1.0
C      1  0.5154130000000  0.4439210000000  0.4816100000000 1.0
C      1  0.5445160000000  0.5400370000000  0.4743420000000 1.0
C      1  0.4651940000000  0.6100430000000  0.5500190000000 1.0
C      1  0.4172570000000  0.4186110000000  0.5451780000000 1.0
C      1  0.6090660000000  0.4756450000000  0.5466010000000 1.0
C      1  0.3962390000000  0.4508870000000  0.5141640000000 1.0
C      1  0.5941180000000  0.4390300000000  0.5178830000000 1.0
C      1  0.5050080000000  0.6117920000000  0.5184010000000 1.0
C      1  0.5302540000000  0.4579810000000  0.5037460000000 1.0
C      1  0.5243220000000  0.5463740000000  0.4932320000000 1.0
C      1  0.4469010000000  0.4945380000000  0.5016800000000 1.0
C      1  0.4254320000000  0.4546800000000  0.4735790000000 1.0
C      1  0.5761200000000  0.4541870000000  0.4762170000000 1.0
C      1  0.5034320000000  0.5867120000000  0.4781010000000 1.0
C      1  0.3963680000000  0.4843050000000  0.5105250000000 1.0
C      1  0.5686090000000  0.4210020000000  0.5127990000000 1.0
C      1  0.5305280000000  0.5977870000000  0.5135880000000 1.0
C      1  0.4916830000000  0.4575100000000  0.4524440000000 1.0
C      1  0.5494620000000  0.5097840000000  0.4489380000000 1.0
C      1  0.4707310000000  0.5274880000000  0.4455250000000 1.0
C      1  0.4571340000000  0.5892940000000  0.4532460000000 1.0
C      1  0.4445480000000  0.4170510000000  0.4462630000000 1.0
C      1  0.5980710000000  0.4903560000000  0.4484980000000 1.0
C      1  0.4974460000000  0.4444240000000  0.5712410000000 1.0
C      1  0.5474120000000  0.5251930000000  0.5752240000000 1.0
C      1  0.4495780000000  0.5303560000000  0.5725340000000 1.0
C      1  0.4156430000000  0.4995210000000  0.5331220000000 1.0
C      1  0.5499050000000  0.4258480000000  0.5380020000000 1.0
C      1  0.5375710000000  0.5757580000000  0.5358450000000 1.0
C      1  0.4261300000000  0.5306170000000  0.5234020000000 1.0
C      1  0.5172300000000  0.4309830000000  0.5301080000000 1.0
C      1  0.5650230000000  0.5611470000000  0.5322420000000 1.0
C      1  0.5580140000000  0.5701640000000  0.4412500000000 1.0
C      1  0.4092090000000  0.5156570000000  0.4473470000000 1.0
C      1  0.5318340000000  0.4111000000000  0.4449350000000 1.0
C      1  0.4137010000000  0.5288250000000  0.4847810000000 1.0
C      1  0.5157570000000  0.4115650000000  0.4838540000000 1.0
C      1  0.5733110000000  0.5532720000000  0.4741280000000 1.0
C      1  0.5483870000000  0.4989910000000  0.5970960000000 1.0
C      1  0.4732230000000  0.5415800000000  0.5944690000000 1.0
C      1  0.4737800000000  0.4573770000000  0.5898010000000 1.0
C      1  0.4224560000000  0.5575430000000  0.4726660000000 1.0
C      1  0.4882710000000  0.4010570000000  0.4677980000000 1.0
C      1  0.5949350000000  0.5334260000000  0.4616650000000 1.0
C      1  0.5257620000000  0.5580520000000  0.5897790000000 1.0
C      1  0.4318950000000  0.4955880000000  0.5863350000000 1.0
C      1  0.5369110000000  0.4448420000000  0.5886120000000 1.0
C      1  0.5213710000000  0.5065990000000  0.4927180000000 1.0
C      1  0.4803840000000  0.5154360000000  0.4989360000000 1.0
C      1  0.4986080000000  0.4802730000000  0.4942660000000 1.0
C      1  0.5565120000000  0.4621720000000  0.5584190000000 1.0
C      1  0.5027470000000  0.5690470000000  0.5591440000000 1.0
C      1  0.4358870000000  0.4676430000000  0.5581260000000 1.0
C      1  0.5302200000000  0.4701290000000  0.5976740000000 1.0
C      1  0.5069670000000  0.5374290000000  0.5961820000000 1.0
C      1  0.4571990000000  0.4867590000000  0.5950030000000 1.0
C      1  0.6111700000000  0.5084860000000  0.5375980000000 1.0
C      1  0.4347590000000  0.5968600000000  0.5420950000000 1.0
C      1  0.4456050000000  0.4018120000000  0.5365300000000 1.0
C      1  0.4528870000000  0.5497310000000  0.5011950000000 1.0
C      1  0.4815270000000  0.4206210000000  0.5019380000000 1.0
C      1  0.5800240000000  0.5240040000000  0.5028810000000 1.0
C      1  0.4865360000000  0.4419690000000  0.4233690000000 1.0
C      1  0.5555810000000  0.5173650000000  0.4173530000000 1.0
C      1  0.4546600000000  0.5428920000000  0.4213330000000 1.0
C      1  0.5003990000000  0.5486010000000  0.3983030000000 1.0
C      1  0.4610520000000  0.4811060000000  0.4032100000000 1.0
C      1  0.5380630000000  0.4760030000000  0.3995360000000 1.0
C      1  0.4909160000000  0.4342330000000  0.5245930000000 1.0
C      1  0.5640880000000  0.5328160000000  0.5290610000000 1.0
C      1  0.4585880000000  0.5262310000000  0.5233430000000 1.0
C      1  0.5898340000000  0.4978000000000  0.5621840000000 1.0
C      1  0.4542800000000  0.5826860000000  0.5665260000000 1.0
C      1  0.4442930000000  0.4212230000000  0.5653600000000 1.0
C      1  0.5991480000000  0.4489810000000  0.5439960000000 1.0
C      1  0.4933440000000  0.6126130000000  0.5449040000000 1.0
C      1  0.4006440000000  0.4416020000000  0.5406250000000 1.0
C      1  0.5451620000000  0.5641960000000  0.5672140000000 1.0
C      1  0.4176460000000  0.5074990000000  0.5657200000000 1.0
C      1  0.5333130000000  0.4272460000000  0.5676560000000 1.0
C      1  0.5730310000000  0.5402470000000  0.4363930000000 1.0
C      1  0.4261130000000  0.5449230000000  0.4412610000000 1.0
C      1  0.4982900000000  0.4126540000000  0.4381290000000 1.0
C      1  0.5033320000000  0.4119570000000  0.5620430000000 1.0
C      1  0.5703330000000  0.5435840000000  0.5676340000000 1.0
C      1  0.4192400000000  0.5413640000000  0.5616380000000 1.0
C      1  0.5636670000000  0.4889670000000  0.5705070000000 1.0
C      1  0.4741570000000  0.5616250000000  0.5698140000000 1.0
C      1  0.4480870000000  0.4489840000000  0.5753760000000 1.0
C      1  0.4967350000000  0.5007280000000  0.4003130000000 1.0
END
