TITL C-2782227-3064-1100 -0.009808691597574 125000 -1110.59098781585 0 0 189 (C1) n - 1
REM
REM in /home/nfs/bkarasulu/CARBON/AIRSS/Generating-Clusters/REBO/Higher-Symm/SD-CG/HFTN-CG
REM
REM
REM
REM
REM
REM ./C.cell (12c818d87b63d06a65506943cc24bca4)
REM
REM compiler GCC version 9.2.1 20190827 (Red Hat 9.2.1-1)
REM options -cpp -mtune=generic -march=x86-64 -g -O0 -fpre-include=/usr/include/finclude/math-vector-fortran.h
REM seed -876905371 -514458727 156371782 -1591245087 1873576123 -172615643 -886314107 -1393249144 103543527 1618557028 -148409660 1494822924 537289200 -708594379 1254007478 -484939341 1263411933 -1900198624 -416702810 1912923974 -2087001540 -543537118 -1837259381 127605315 -496626640 1349371779 -2127091882 237529033 1074590399 -1387176374 -892882953 1829756959 -585384675
REM
CELL 1.54180   50.00000   50.00000   50.00000   90.00000   90.00000   90.00000
LATT -1
SFAC C  
C      1  0.5959240000000  0.5698920000000  0.4618990000000 1.0
C      1  0.5941890000000  0.5415560000000  0.5485590000000 1.0
C      1  0.5907330000000  0.4831540000000  0.5543790000000 1.0
C      1  0.5920100000000  0.4378990000000  0.4943700000000 1.0
C      1  0.5973370000000  0.4862890000000  0.4407430000000 1.0
C      1  0.4482020000000  0.4645430000000  0.5208760000000 1.0
C      1  0.4380100000000  0.4453910000000  0.5025520000000 1.0
C      1  0.4646380000000  0.4793710000000  0.4760310000000 1.0
C      1  0.4448100000000  0.5157990000000  0.4875530000000 1.0
C      1  0.4446030000000  0.5139380000000  0.5273650000000 1.0
C      1  0.4279990000000  0.4699820000000  0.5772870000000 1.0
C      1  0.4154030000000  0.4050250000000  0.4886950000000 1.0
C      1  0.4095360000000  0.4889850000000  0.4053950000000 1.0
C      1  0.4326330000000  0.6047380000000  0.4211520000000 1.0
C      1  0.4543730000000  0.6197390000000  0.5521530000000 1.0
C      1  0.4225070000000  0.5200550000000  0.5600950000000 1.0
C      1  0.4186400000000  0.4350930000000  0.5390480000000 1.0
C      1  0.4105550000000  0.4375820000000  0.4523440000000 1.0
C      1  0.4059310000000  0.5144130000000  0.4262030000000 1.0
C      1  0.4146170000000  0.5636390000000  0.4922170000000 1.0
C      1  0.5263990000000  0.5290320000000  0.5945000000000 1.0
C      1  0.5309160000000  0.4257410000000  0.5573440000000 1.0
C      1  0.5230220000000  0.4213580000000  0.4420360000000 1.0
C      1  0.5190190000000  0.5391620000000  0.4090690000000 1.0
C      1  0.5381580000000  0.5893350000000  0.5098470000000 1.0
C      1  0.5269740000000  0.5380810000000  0.4418360000000 1.0
C      1  0.5331710000000  0.5597900000000  0.5163420000000 1.0
C      1  0.5384720000000  0.5099090000000  0.5705440000000 1.0
C      1  0.5317240000000  0.4410570000000  0.5276130000000 1.0
C      1  0.5272780000000  0.4538750000000  0.4493440000000 1.0
C      1  0.5016730000000  0.4902610000000  0.4080280000000 1.0
C      1  0.4987560000000  0.5830460000000  0.4712300000000 1.0
C      1  0.4967030000000  0.5575960000000  0.5658020000000 1.0
C      1  0.5033560000000  0.4648740000000  0.5781580000000 1.0
C      1  0.4956810000000  0.4044040000000  0.4839920000000 1.0
C      1  0.4352990000000  0.5830440000000  0.4907370000000 1.0
C      1  0.4460340000000  0.5265840000000  0.5748840000000 1.0
C      1  0.4443490000000  0.4218270000000  0.5556100000000 1.0
C      1  0.4365530000000  0.4295580000000  0.4447400000000 1.0
C      1  0.4338180000000  0.5296270000000  0.4183010000000 1.0
C      1  0.4499750000000  0.4543930000000  0.4314690000000 1.0
C      1  0.4392770000000  0.5564420000000  0.4239090000000 1.0
C      1  0.4545360000000  0.5787400000000  0.5131560000000 1.0
C      1  0.4581010000000  0.5042910000000  0.5882980000000 1.0
C      1  0.4408920000000  0.4112910000000  0.5268600000000 1.0
C      1  0.4111610000000  0.5517370000000  0.5184200000000 1.0
C      1  0.4131750000000  0.4933740000000  0.5641750000000 1.0
C      1  0.3990070000000  0.4300410000000  0.5147890000000 1.0
C      1  0.3996900000000  0.4594370000000  0.4375520000000 1.0
C      1  0.4042610000000  0.5427180000000  0.4430150000000 1.0
C      1  0.4850560000000  0.5778480000000  0.4216900000000 1.0
C      1  0.4916130000000  0.6161360000000  0.5380060000000 1.0
C      1  0.4885150000000  0.5033590000000  0.6196100000000 1.0
C      1  0.5172050000000  0.3754360000000  0.5502300000000 1.0
C      1  0.4979500000000  0.4310990000000  0.3977520000000 1.0
C      1  0.5688850000000  0.4575130000000  0.5202180000000 1.0
C      1  0.5716150000000  0.4687950000000  0.4651610000000 1.0
C      1  0.5822890000000  0.5245890000000  0.4629140000000 1.0
C      1  0.5860570000000  0.5518200000000  0.5108620000000 1.0
C      1  0.5675630000000  0.5104490000000  0.5368320000000 1.0
C      1  0.5774630000000  0.5847170000000  0.4855830000000 1.0
C      1  0.5510030000000  0.5578780000000  0.5825320000000 1.0
C      1  0.5731610000000  0.4404940000000  0.5773080000000 1.0
C      1  0.5633150000000  0.4058490000000  0.4665080000000 1.0
C      1  0.5578420000000  0.5063460000000  0.4068800000000 1.0
C      1  0.5533690000000  0.4146620000000  0.4418050000000 1.0
C      1  0.5519840000000  0.5359600000000  0.4107200000000 1.0
C      1  0.5663070000000  0.5958850000000  0.5087220000000 1.0
C      1  0.5588310000000  0.5344750000000  0.5995420000000 1.0
C      1  0.5600090000000  0.4195250000000  0.5639510000000 1.0
C      1  0.4540010000000  0.4763870000000  0.5849870000000 1.0
C      1  0.4394570000000  0.4017230000000  0.5013980000000 1.0
C      1  0.4305650000000  0.4725180000000  0.4119030000000 1.0
C      1  0.4465850000000  0.5826510000000  0.4305290000000 1.0
C      1  0.4547910000000  0.5968290000000  0.5407460000000 1.0
C      1  0.5756160000000  0.4680100000000  0.5734200000000 1.0
C      1  0.5683090000000  0.4181680000000  0.4910520000000 1.0
C      1  0.5652670000000  0.4872450000000  0.4292060000000 1.0
C      1  0.5619760000000  0.5598230000000  0.4718420000000 1.0
C      1  0.5694120000000  0.5633740000000  0.5586940000000 1.0
C      1  0.4091310000000  0.5299250000000  0.5366220000000 1.0
C      1  0.4112640000000  0.4627370000000  0.5485700000000 1.0
C      1  0.4029640000000  0.4346770000000  0.4817230000000 1.0
C      1  0.4005650000000  0.4860140000000  0.4441450000000 1.0
C      1  0.4094950000000  0.5457930000000  0.4698140000000 1.0
C      1  0.4545580000000  0.4875270000000  0.4299990000000 1.0
C      1  0.4733960000000  0.5890080000000  0.4505670000000 1.0
C      1  0.4558210000000  0.5637030000000  0.5430910000000 1.0
C      1  0.4743860000000  0.4590020000000  0.5717180000000 1.0
C      1  0.4649950000000  0.4051930000000  0.4820970000000 1.0
C      1  0.4667180000000  0.4267290000000  0.5703590000000 1.0
C      1  0.4552750000000  0.4093100000000  0.4509950000000 1.0
C      1  0.4543280000000  0.5115790000000  0.4114660000000 1.0
C      1  0.4464980000000  0.5940220000000  0.4686260000000 1.0
C      1  0.4637920000000  0.5520910000000  0.5728190000000 1.0
C      1  0.5315880000000  0.4484950000000  0.4826610000000 1.0
C      1  0.5233000000000  0.5051490000000  0.4495860000000 1.0
C      1  0.5294640000000  0.5451870000000  0.4893830000000 1.0
C      1  0.5359050000000  0.5329570000000  0.5456760000000 1.0
C      1  0.5318370000000  0.4739130000000  0.5345920000000 1.0
C      1  0.3806460000000  0.5214200000000  0.4815680000000 1.0
C      1  0.3699600000000  0.5163290000000  0.5082310000000 1.0
C      1  0.3655730000000  0.4849920000000  0.5103890000000 1.0
C      1  0.3658930000000  0.4753290000000  0.4812060000000 1.0
C      1  0.3693670000000  0.4994890000000  0.4632600000000 1.0
C      1  0.5989930000000  0.5511210000000  0.4876390000000 1.0
C      1  0.5965840000000  0.5166280000000  0.5249390000000 1.0
C      1  0.5884230000000  0.4778300000000  0.5270040000000 1.0
C      1  0.5892920000000  0.4655740000000  0.4868700000000 1.0
C      1  0.5978560000000  0.5011260000000  0.4665670000000 1.0
C      1  0.4879340000000  0.5400500000000  0.4485210000000 1.0
C      1  0.4933320000000  0.5706540000000  0.5182800000000 1.0
C      1  0.4986920000000  0.5105740000000  0.5691960000000 1.0
C      1  0.4995570000000  0.4173510000000  0.5275800000000 1.0
C      1  0.4882140000000  0.4523600000000  0.4419960000000 1.0
C      1  0.5193840000000  0.5613870000000  0.5879200000000 1.0
C      1  0.5196610000000  0.4386650000000  0.5828870000000 1.0
C      1  0.5076270000000  0.3984140000000  0.4567260000000 1.0
C      1  0.5272800000000  0.5090200000000  0.3953610000000 1.0
C      1  0.5213810000000  0.5997350000000  0.4912450000000 1.0
C      1  0.4026790000000  0.4892630000000  0.4743480000000 1.0
C      1  0.4150870000000  0.5172420000000  0.4821340000000 1.0
C      1  0.3916590000000  0.5091930000000  0.5278420000000 1.0
C      1  0.3943950000000  0.4759010000000  0.5262430000000 1.0
C      1  0.3953880000000  0.4641250000000  0.4942790000000 1.0
C      1  0.5174560000000  0.4854050000000  0.5600760000000 1.0
C      1  0.5154980000000  0.4265960000000  0.5008140000000 1.0
C      1  0.5068970000000  0.4785100000000  0.4371190000000 1.0
C      1  0.5098600000000  0.5552590000000  0.4666370000000 1.0
C      1  0.5094720000000  0.5534770000000  0.5394040000000 1.0
C      1  0.5682720000000  0.4345990000000  0.4287680000000 1.0
C      1  0.5641080000000  0.5522340000000  0.4289930000000 1.0
C      1  0.5824940000000  0.5936900000000  0.5328750000000 1.0
C      1  0.5744510000000  0.5134680000000  0.5904310000000 1.0
C      1  0.5717130000000  0.4105450000000  0.5401730000000 1.0
C      1  0.4997030000000  0.5190390000000  0.3804770000000 1.0
C      1  0.5079160000000  0.6217710000000  0.4717590000000 1.0
C      1  0.4996450000000  0.5721680000000  0.6126840000000 1.0
C      1  0.5052750000000  0.4193930000000  0.5973940000000 1.0
C      1  0.4929630000000  0.3797010000000  0.4396590000000 1.0
C      1  0.5310480000000  0.5938800000000  0.4398380000000 1.0
C      1  0.5591610000000  0.6148170000000  0.5755780000000 1.0
C      1  0.5393340000000  0.4760780000000  0.6106240000000 1.0
C      1  0.5317880000000  0.3900860000000  0.5149810000000 1.0
C      1  0.5370400000000  0.4589720000000  0.3963370000000 1.0
C      1  0.5497970000000  0.4600010000000  0.4245010000000 1.0
C      1  0.5429950000000  0.5670300000000  0.4476010000000 1.0
C      1  0.5696980000000  0.5959410000000  0.5590810000000 1.0
C      1  0.5572110000000  0.4873390000000  0.5883560000000 1.0
C      1  0.5503480000000  0.4145010000000  0.5162750000000 1.0
C      1  0.5088790000000  0.4018090000000  0.5528090000000 1.0
C      1  0.4948710000000  0.4268830000000  0.4253230000000 1.0
C      1  0.4931150000000  0.5516450000000  0.4223140000000 1.0
C      1  0.4887970000000  0.5989740000000  0.5172080000000 1.0
C      1  0.4963170000000  0.5209330000000  0.5996800000000 1.0
C      1  0.4773040000000  0.5114200000000  0.3972270000000 1.0
C      1  0.4830280000000  0.6078440000000  0.4894860000000 1.0
C      1  0.4829830000000  0.5494260000000  0.5989360000000 1.0
C      1  0.4879110000000  0.4085590000000  0.5766170000000 1.0
C      1  0.4761090000000  0.4035250000000  0.4326830000000 1.0
C      1  0.5601670000000  0.5491830000000  0.5295980000000 1.0
C      1  0.5490550000000  0.4949380000000  0.5232210000000 1.0
C      1  0.5504990000000  0.4637210000000  0.4986060000000 1.0
C      1  0.5500370000000  0.4939990000000  0.4583020000000 1.0
C      1  0.5558070000000  0.5274930000000  0.4809490000000 1.0
C      1  0.4763590000000  0.4299270000000  0.5315640000000 1.0
C      1  0.4638180000000  0.4526990000000  0.4625810000000 1.0
C      1  0.4915460000000  0.5125160000000  0.4514600000000 1.0
C      1  0.4745800000000  0.5562970000000  0.5007030000000 1.0
C      1  0.4835280000000  0.5228700000000  0.5509730000000 1.0
C      1  0.5984780000000  0.5701460000000  0.5321110000000 1.0
C      1  0.5888250000000  0.5136430000000  0.5637610000000 1.0
C      1  0.5856520000000  0.4311480000000  0.5245950000000 1.0
C      1  0.5858350000000  0.4552260000000  0.4409520000000 1.0
C      1  0.5870160000000  0.5458770000000  0.4441350000000 1.0
C      1  0.4647940000000  0.4535180000000  0.5408300000000 1.0
C      1  0.4516670000000  0.4343130000000  0.4818700000000 1.0
C      1  0.4692360000000  0.4966550000000  0.4543240000000 1.0
C      1  0.4620620000000  0.5366170000000  0.4861000000000 1.0
C      1  0.4608120000000  0.5326340000000  0.5382270000000 1.0
C      1  0.5093820000000  0.3855800000000  0.5054210000000 1.0
C      1  0.5169390000000  0.4711550000000  0.3877450000000 1.0
C      1  0.5174620000000  0.6168610000000  0.4453080000000 1.0
C      1  0.5490060000000  0.6330080000000  0.5914760000000 1.0
C      1  0.5152120000000  0.4693760000000  0.6079410000000 1.0
C      1  0.6004720000000  0.4940600000000  0.4997890000000 1.0
C      1  0.4580360000000  0.4906780000000  0.5064490000000 1.0
C      1  0.4869640000000  0.4953960000000  0.5149610000000 1.0
C      1  0.5515380000000  0.4960450000000  0.4912260000000 1.0
END
