TITL C-2782233-7966-1023 -0.0010483570808749 125000 -815.336220526393 0 0 144 (C1) n - 1
REM
REM in /home/nfs/bkarasulu/CARBON/AIRSS/Generating-Clusters/REBO/Higher-Symm/SD-CG/HFTN-CG
REM
REM
REM
REM
REM
REM ./C.cell (12c818d87b63d06a65506943cc24bca4)
REM
REM compiler GCC version 9.2.1 20190827 (Red Hat 9.2.1-1)
REM options -cpp -mtune=generic -march=x86-64 -g -O0 -fpre-include=/usr/include/finclude/math-vector-fortran.h
REM seed 1238200528 -2091494072 644086832 564794255 1040809231 -1393437543 419872872 1387010296 1129764954 -173726719 1919721246 290668227 -1777727256 -644234129 1285147196 1789275711 1632354916 918761691 -708972308 -1447013754 2127780037 1130779546 -1344626148 -133394508 -2050475993 1840031696 128278221 785325692 1661085420 -1624501250 1645995126 1943355124 -598624813
REM
CELL 1.54180   50.00000   50.00000   50.00000   90.00000   90.00000   90.00000
LATT -1
SFAC C  
C      1  0.4528260000000  0.5245480000000  0.4001800000000 1.0
C      1  0.4126230000000  0.4566090000000  0.5290840000000 1.0
C      1  0.5302780000000  0.4101050000000  0.4530900000000 1.0
C      1  0.5544230000000  0.4701390000000  0.4054470000000 1.0
C      1  0.5428670000000  0.5227570000000  0.5997020000000 1.0
C      1  0.4577110000000  0.4816880000000  0.5980010000000 1.0
C      1  0.5959600000000  0.5366460000000  0.5209810000000 1.0
C      1  0.5977680000000  0.4532720000000  0.4747650000000 1.0
C      1  0.4074400000000  0.5444880000000  0.4690160000000 1.0
C      1  0.4713490000000  0.5968280000000  0.4490870000000 1.0
C      1  0.4759890000000  0.4090550000000  0.5502070000000 1.0
C      1  0.5252430000000  0.5941250000000  0.5529690000000 1.0
C      1  0.5291650000000  0.4530290000000  0.4099560000000 1.0
C      1  0.4544090000000  0.4086010000000  0.5269640000000 1.0
C      1  0.4049200000000  0.5235380000000  0.4454810000000 1.0
C      1  0.4761270000000  0.5464610000000  0.4055650000000 1.0
C      1  0.5173930000000  0.5453830000000  0.5999730000000 1.0
C      1  0.4770660000000  0.4537920000000  0.6028750000000 1.0
C      1  0.5471820000000  0.5880960000000  0.5286730000000 1.0
C      1  0.4524490000000  0.5908970000000  0.4732240000000 1.0
C      1  0.5533310000000  0.4060950000000  0.4723050000000 1.0
C      1  0.5925470000000  0.4810970000000  0.4552630000000 1.0
C      1  0.4070170000000  0.4762230000000  0.5527150000000 1.0
C      1  0.5966810000000  0.5144040000000  0.5468300000000 1.0
C      1  0.5195190000000  0.5845140000000  0.5018160000000 1.0
C      1  0.4934190000000  0.5190870000000  0.5844230000000 1.0
C      1  0.5724380000000  0.4998160000000  0.5185180000000 1.0
C      1  0.4807070000000  0.4152290000000  0.4982910000000 1.0
C      1  0.4800440000000  0.5871880000000  0.5010690000000 1.0
C      1  0.5198660000000  0.4111150000000  0.4949280000000 1.0
C      1  0.5115910000000  0.4729910000000  0.5914520000000 1.0
C      1  0.5033630000000  0.5168280000000  0.4159640000000 1.0
C      1  0.4994780000000  0.4780920000000  0.4075850000000 1.0
C      1  0.4185380000000  0.4985300000000  0.5182140000000 1.0
C      1  0.4136210000000  0.5015340000000  0.4788090000000 1.0
C      1  0.5918890000000  0.4913610000000  0.4852530000000 1.0
C      1  0.5788500000000  0.5187050000000  0.4908920000000 1.0
C      1  0.5195140000000  0.5010340000000  0.5758510000000 1.0
C      1  0.4967980000000  0.5858470000000  0.5271660000000 1.0
C      1  0.4195080000000  0.4769880000000  0.4960680000000 1.0
C      1  0.5857280000000  0.4720600000000  0.5082210000000 1.0
C      1  0.4108550000000  0.5252200000000  0.5031970000000 1.0
C      1  0.4880610000000  0.4918470000000  0.5979110000000 1.0
C      1  0.5250820000000  0.4968790000000  0.4056150000000 1.0
C      1  0.4762940000000  0.4962500000000  0.4154310000000 1.0
C      1  0.5019830000000  0.4160930000000  0.5209320000000 1.0
C      1  0.4952750000000  0.4114220000000  0.4714020000000 1.0
C      1  0.5029230000000  0.5860220000000  0.4758890000000 1.0
C      1  0.5862690000000  0.5573220000000  0.4991480000000 1.0
C      1  0.4981180000000  0.5873550000000  0.5670130000000 1.0
C      1  0.5571140000000  0.4963620000000  0.5859680000000 1.0
C      1  0.4181160000000  0.4385610000000  0.5054860000000 1.0
C      1  0.4108080000000  0.5643710000000  0.4929840000000 1.0
C      1  0.5891530000000  0.4340250000000  0.4983020000000 1.0
C      1  0.5020530000000  0.4132730000000  0.5716970000000 1.0
C      1  0.4970770000000  0.5906950000000  0.4334490000000 1.0
C      1  0.5063350000000  0.4133210000000  0.4337070000000 1.0
C      1  0.4355610000000  0.5048500000000  0.5869620000000 1.0
C      1  0.4369910000000  0.4992470000000  0.4089090000000 1.0
C      1  0.5656300000000  0.4984700000000  0.4087240000000 1.0
C      1  0.5631430000000  0.5787780000000  0.5000820000000 1.0
C      1  0.5759170000000  0.4933560000000  0.5606650000000 1.0
C      1  0.4946050000000  0.5612980000000  0.5835460000000 1.0
C      1  0.4412290000000  0.4197130000000  0.5008010000000 1.0
C      1  0.5665120000000  0.4128690000000  0.4993040000000 1.0
C      1  0.4346380000000  0.5841600000000  0.4977090000000 1.0
C      1  0.4132990000000  0.5045430000000  0.5643760000000 1.0
C      1  0.5805910000000  0.5053270000000  0.4344620000000 1.0
C      1  0.4161830000000  0.4966950000000  0.4319940000000 1.0
C      1  0.5002580000000  0.4348470000000  0.5939540000000 1.0
C      1  0.5028840000000  0.4371060000000  0.4149480000000 1.0
C      1  0.4997930000000  0.5667590000000  0.4145160000000 1.0
C      1  0.4792960000000  0.4605590000000  0.5718880000000 1.0
C      1  0.5596730000000  0.4839340000000  0.4605670000000 1.0
C      1  0.4608570000000  0.5587370000000  0.4821400000000 1.0
C      1  0.5249120000000  0.5401220000000  0.5686970000000 1.0
C      1  0.5167250000000  0.4639790000000  0.4405650000000 1.0
C      1  0.4818820000000  0.5410910000000  0.4389090000000 1.0
C      1  0.4367840000000  0.5217680000000  0.4547710000000 1.0
C      1  0.4391340000000  0.4800060000000  0.5469620000000 1.0
C      1  0.5717460000000  0.5320040000000  0.5517610000000 1.0
C      1  0.5435690000000  0.4378430000000  0.4786030000000 1.0
C      1  0.5388530000000  0.5567410000000  0.5221360000000 1.0
C      1  0.4655150000000  0.4395840000000  0.5253520000000 1.0
C      1  0.4627740000000  0.4861870000000  0.5647930000000 1.0
C      1  0.4767200000000  0.5648880000000  0.4558040000000 1.0
C      1  0.5663680000000  0.4581790000000  0.4763020000000 1.0
C      1  0.5549820000000  0.5334190000000  0.5719990000000 1.0
C      1  0.4558350000000  0.5253650000000  0.4322830000000 1.0
C      1  0.5436460000000  0.4794550000000  0.4357550000000 1.0
C      1  0.5187210000000  0.4408420000000  0.4595810000000 1.0
C      1  0.4846980000000  0.4408140000000  0.5495550000000 1.0
C      1  0.5217310000000  0.5622610000000  0.5473330000000 1.0
C      1  0.4390270000000  0.5395630000000  0.4803590000000 1.0
C      1  0.5616680000000  0.5372710000000  0.5229250000000 1.0
C      1  0.4458800000000  0.4622350000000  0.5216920000000 1.0
C      1  0.5400930000000  0.4760920000000  0.5642620000000 1.0
C      1  0.5634580000000  0.5457090000000  0.4765110000000 1.0
C      1  0.4763570000000  0.5685090000000  0.5485380000000 1.0
C      1  0.4460640000000  0.5264500000000  0.5659890000000 1.0
C      1  0.4519980000000  0.4790410000000  0.4320660000000 1.0
C      1  0.5432530000000  0.5203830000000  0.4229310000000 1.0
C      1  0.4345860000000  0.4524620000000  0.4788310000000 1.0
C      1  0.4294830000000  0.5502890000000  0.5179510000000 1.0
C      1  0.5658910000000  0.4469310000000  0.5198490000000 1.0
C      1  0.5211870000000  0.4249640000000  0.5461280000000 1.0
C      1  0.5185680000000  0.5699150000000  0.4501090000000 1.0
C      1  0.4807900000000  0.4314630000000  0.4477200000000 1.0
C      1  0.4729640000000  0.5408160000000  0.5682770000000 1.0
C      1  0.5396390000000  0.5703660000000  0.4769360000000 1.0
C      1  0.5598770000000  0.4746550000000  0.5380620000000 1.0
C      1  0.5223110000000  0.4478040000000  0.5711910000000 1.0
C      1  0.4783150000000  0.4579820000000  0.4263700000000 1.0
C      1  0.5199790000000  0.5442950000000  0.4275610000000 1.0
C      1  0.4608250000000  0.4310770000000  0.4753320000000 1.0
C      1  0.5410220000000  0.4237110000000  0.5190170000000 1.0
C      1  0.4561480000000  0.5716470000000  0.5210880000000 1.0
C      1  0.4262380000000  0.5242510000000  0.5396470000000 1.0
C      1  0.5644630000000  0.5280150000000  0.4486160000000 1.0
C      1  0.4291910000000  0.4785900000000  0.4575440000000 1.0
C      1  0.4807270000000  0.5064760000000  0.5488780000000 1.0
C      1  0.5434700000000  0.4737610000000  0.4956660000000 1.0
C      1  0.4980750000000  0.5463630000000  0.4750580000000 1.0
C      1  0.5174480000000  0.4983010000000  0.5360710000000 1.0
C      1  0.5242110000000  0.5009440000000  0.4535790000000 1.0
C      1  0.4729720000000  0.5051960000000  0.4538800000000 1.0
C      1  0.4554150000000  0.5225020000000  0.5046800000000 1.0
C      1  0.4587570000000  0.4830140000000  0.5004390000000 1.0
C      1  0.5411070000000  0.5226970000000  0.5020630000000 1.0
C      1  0.4953090000000  0.4580840000000  0.4737650000000 1.0
C      1  0.5005490000000  0.5465170000000  0.5257360000000 1.0
C      1  0.5020010000000  0.4556970000000  0.5253070000000 1.0
C      1  0.4991770000000  0.4776080000000  0.5506480000000 1.0
C      1  0.4793400000000  0.5442730000000  0.5036570000000 1.0
C      1  0.5440100000000  0.5035510000000  0.4783870000000 1.0
C      1  0.5062440000000  0.5255850000000  0.5472910000000 1.0
C      1  0.5017960000000  0.5221890000000  0.4553960000000 1.0
C      1  0.4948480000000  0.4831510000000  0.4537000000000 1.0
C      1  0.5189170000000  0.4525570000000  0.4976470000000 1.0
C      1  0.4794840000000  0.4585460000000  0.5004690000000 1.0
C      1  0.5187140000000  0.5446580000000  0.4986420000000 1.0
C      1  0.4534980000000  0.5027100000000  0.4776870000000 1.0
C      1  0.5327930000000  0.4959660000000  0.5157340000000 1.0
C      1  0.4570520000000  0.5015580000000  0.5284050000000 1.0
END
