TITL C-2782228-2999-1303 -0.154877125302837 125000 -128.023610133759 0 0 29 (C1) n - 1
REM
REM in /home/nfs/bkarasulu/CARBON/AIRSS/Generating-Clusters/REBO/Higher-Symm/SD-CG/HFTN-CG
REM
REM
REM
REM
REM
REM ./C.cell (12c818d87b63d06a65506943cc24bca4)
REM
REM compiler GCC version 9.2.1 20190827 (Red Hat 9.2.1-1)
REM options -cpp -mtune=generic -march=x86-64 -g -O0 -fpre-include=/usr/include/finclude/math-vector-fortran.h
REM seed -455891189 1376504409 1010758653 -1029900172 1397439836 -1212845784 -346087538 -1934914465 2130933159 -315012739 -1921159795 -13866109 -372057290 -301132803 -181125961 1763837614 -1213927250 59622067 147529263 1120868103 -1252220898 1377745135 -476160052 -883090073 1229707962 -855727578 -1443105775 -1571657344 -849354301 -1738590423 608911509 1687622325 -2068790178
REM
CELL 1.54180   50.00000   50.00000   50.00000   90.00000   90.00000   90.00000
LATT -1
SFAC C  
C      1  0.4746380000000  0.5428730000000  0.4739620000000 1.0
C      1  0.5230030000000  0.5338630000000  0.4764570000000 1.0
C      1  0.4860560000000  0.5551220000000  0.5202890000000 1.0
C      1  0.5239300000000  0.4403310000000  0.4640270000000 1.0
C      1  0.4755890000000  0.4394480000000  0.4643170000000 1.0
C      1  0.5003240000000  0.4005700000000  0.4385620000000 1.0
C      1  0.4360700000000  0.5123940000000  0.4623510000000 1.0
C      1  0.5745280000000  0.5151890000000  0.4833360000000 1.0
C      1  0.4845230000000  0.5626560000000  0.5685220000000 1.0
C      1  0.5605130000000  0.4736300000000  0.4627240000000 1.0
C      1  0.4242590000000  0.4714100000000  0.4853570000000 1.0
C      1  0.5124780000000  0.5318170000000  0.5933390000000 1.0
C      1  0.4144180000000  0.4909730000000  0.4641160000000 1.0
C      1  0.5831730000000  0.4940550000000  0.4631030000000 1.0
C      1  0.4983760000000  0.5587880000000  0.5954250000000 1.0
C      1  0.5496610000000  0.4948150000000  0.4843570000000 1.0
C      1  0.4481320000000  0.4929610000000  0.4849660000000 1.0
C      1  0.4986420000000  0.5340510000000  0.5643860000000 1.0
C      1  0.4988350000000  0.5160570000000  0.5418080000000 1.0
C      1  0.5252470000000  0.4953680000000  0.4998410000000 1.0
C      1  0.4726940000000  0.4944080000000  0.5001560000000 1.0
C      1  0.4718150000000  0.4997760000000  0.5325780000000 1.0
C      1  0.5263180000000  0.5007710000000  0.5322500000000 1.0
C      1  0.4991910000000  0.4795050000000  0.4899750000000 1.0
C      1  0.5000000000000  0.4231290000000  0.4532560000000 1.0
C      1  0.4980090000000  0.5451030000000  0.4925810000000 1.0
C      1  0.5090060000000  0.5741880000000  0.4877440000000 1.0
C      1  0.4995200000000  0.4565730000000  0.4750390000000 1.0
C      1  0.4986470000000  0.5151170000000  0.5076620000000 1.0
END
