TITL C-2782227-3064-1076 0.0030006273974146 125000 -1180.47107977496 0 0 200 (C1) n - 1
REM
REM in /home/nfs/bkarasulu/CARBON/AIRSS/Generating-Clusters/REBO/Higher-Symm/SD-CG/HFTN-CG
REM
REM
REM
REM
REM
REM ./C.cell (12c818d87b63d06a65506943cc24bca4)
REM
REM compiler GCC version 9.2.1 20190827 (Red Hat 9.2.1-1)
REM options -cpp -mtune=generic -march=x86-64 -g -O0 -fpre-include=/usr/include/finclude/math-vector-fortran.h
REM seed 38152892 -524048236 1121066067 2034767961 -14091166 -1993955988 1283204769 1246929447 -238977090 -1083712215 150173357 -633356704 -162388424 588561212 616476210 1556330068 209899679 -1759993419 535562940 -1235456027 -376995983 -1495883366 -307270808 403250180 979299444 -1103240838 1640081982 -1041041380 1606438048 -697202186 1434575820 1801921539 -1585902435
REM
CELL 1.54180   50.00000   50.00000   50.00000   90.00000   90.00000   90.00000
LATT -1
SFAC C  
C      1  0.4281950000000  0.5131520000000  0.4143400000000 1.0
C      1  0.4711780000000  0.5692420000000  0.4155540000000 1.0
C      1  0.5458230000000  0.5558060000000  0.4123430000000 1.0
C      1  0.5705780000000  0.4884130000000  0.4131730000000 1.0
C      1  0.5247160000000  0.4351880000000  0.4164420000000 1.0
C      1  0.4575010000000  0.4440240000000  0.4180800000000 1.0
C      1  0.4287660000000  0.5112090000000  0.5883340000000 1.0
C      1  0.4728230000000  0.5672160000000  0.5879980000000 1.0
C      1  0.5441620000000  0.5554510000000  0.5858490000000 1.0
C      1  0.5700360000000  0.4882810000000  0.5851640000000 1.0
C      1  0.5287120000000  0.4313490000000  0.5855710000000 1.0
C      1  0.4532360000000  0.4429800000000  0.5876470000000 1.0
C      1  0.4400500000000  0.4844050000000  0.4251260000000 1.0
C      1  0.4563590000000  0.5474330000000  0.4302180000000 1.0
C      1  0.5153690000000  0.5569110000000  0.4241080000000 1.0
C      1  0.5588490000000  0.5115000000000  0.4312260000000 1.0
C      1  0.5402580000000  0.4559910000000  0.4336330000000 1.0
C      1  0.4845230000000  0.4429540000000  0.4323100000000 1.0
C      1  0.4417740000000  0.4900380000000  0.5671740000000 1.0
C      1  0.4608160000000  0.5459050000000  0.5680140000000 1.0
C      1  0.5182110000000  0.5577940000000  0.5683820000000 1.0
C      1  0.5590270000000  0.5130820000000  0.5694720000000 1.0
C      1  0.5432260000000  0.4533450000000  0.5707770000000 1.0
C      1  0.4836790000000  0.4406090000000  0.5759610000000 1.0
C      1  0.5391650000000  0.5886370000000  0.4747590000000 1.0
C      1  0.5974210000000  0.5093070000000  0.4761100000000 1.0
C      1  0.5561100000000  0.4206030000000  0.4766150000000 1.0
C      1  0.4606570000000  0.4077940000000  0.4780000000000 1.0
C      1  0.4038970000000  0.4900070000000  0.4752240000000 1.0
C      1  0.4411840000000  0.5835430000000  0.4772240000000 1.0
C      1  0.5397250000000  0.5894220000000  0.5231600000000 1.0
C      1  0.5979150000000  0.5096590000000  0.5241540000000 1.0
C      1  0.5582870000000  0.4185280000000  0.5239250000000 1.0
C      1  0.4615540000000  0.4107270000000  0.5264890000000 1.0
C      1  0.4058070000000  0.4891630000000  0.5224100000000 1.0
C      1  0.4422590000000  0.5812380000000  0.5239840000000 1.0
C      1  0.5719950000000  0.5761730000000  0.4568100000000 1.0
C      1  0.6027770000000  0.4743230000000  0.4586000000000 1.0
C      1  0.5300330000000  0.3969990000000  0.4587340000000 1.0
C      1  0.4299440000000  0.4268240000000  0.4613100000000 1.0
C      1  0.3958580000000  0.5242420000000  0.4569730000000 1.0
C      1  0.4685560000000  0.6042790000000  0.4577120000000 1.0
C      1  0.5729320000000  0.5780800000000  0.5413110000000 1.0
C      1  0.6047680000000  0.4755230000000  0.5428530000000 1.0
C      1  0.5312760000000  0.3967520000000  0.5429000000000 1.0
C      1  0.4275020000000  0.4224190000000  0.5430890000000 1.0
C      1  0.3991740000000  0.5235520000000  0.5409780000000 1.0
C      1  0.4692660000000  0.6029560000000  0.5429310000000 1.0
C      1  0.4558480000000  0.5537480000000  0.4695720000000 1.0
C      1  0.5209960000000  0.5600950000000  0.4703060000000 1.0
C      1  0.5638250000000  0.5111570000000  0.4708680000000 1.0
C      1  0.5397730000000  0.4504080000000  0.4732370000000 1.0
C      1  0.4730600000000  0.4371250000000  0.4730490000000 1.0
C      1  0.4369590000000  0.4912720000000  0.4670850000000 1.0
C      1  0.4573280000000  0.5509110000000  0.5285200000000 1.0
C      1  0.5219500000000  0.5608200000000  0.5287130000000 1.0
C      1  0.5642100000000  0.5104930000000  0.5295540000000 1.0
C      1  0.5435710000000  0.4482980000000  0.5312140000000 1.0
C      1  0.4800940000000  0.4388360000000  0.5323520000000 1.0
C      1  0.4394560000000  0.4891750000000  0.5272880000000 1.0
C      1  0.4359240000000  0.4448330000000  0.4895980000000 1.0
C      1  0.4170110000000  0.5212760000000  0.4835930000000 1.0
C      1  0.4751810000000  0.5846520000000  0.4851160000000 1.0
C      1  0.5580940000000  0.5612010000000  0.4843420000000 1.0
C      1  0.5824540000000  0.4794830000000  0.4856790000000 1.0
C      1  0.5227940000000  0.4168270000000  0.4857170000000 1.0
C      1  0.4431900000000  0.4388710000000  0.5181110000000 1.0
C      1  0.4188950000000  0.5200260000000  0.5133610000000 1.0
C      1  0.4758570000000  0.5834430000000  0.5155250000000 1.0
C      1  0.5589740000000  0.5619390000000  0.5144440000000 1.0
C      1  0.5840370000000  0.4790090000000  0.5157490000000 1.0
C      1  0.5245300000000  0.4169580000000  0.5160240000000 1.0
C      1  0.5564320000000  0.4774500000000  0.5318250000000 1.0
C      1  0.5112210000000  0.4425060000000  0.5297770000000 1.0
C      1  0.4581530000000  0.4636520000000  0.5312630000000 1.0
C      1  0.4487870000000  0.5209160000000  0.5246530000000 1.0
C      1  0.4895790000000  0.5568330000000  0.5277580000000 1.0
C      1  0.5457390000000  0.5373070000000  0.5293860000000 1.0
C      1  0.5522570000000  0.4803010000000  0.4746530000000 1.0
C      1  0.5067440000000  0.4421180000000  0.4728410000000 1.0
C      1  0.4544860000000  0.4619900000000  0.4666980000000 1.0
C      1  0.4441110000000  0.5245200000000  0.4665770000000 1.0
C      1  0.4885440000000  0.5594860000000  0.4703640000000 1.0
C      1  0.5441600000000  0.5356980000000  0.4711450000000 1.0
C      1  0.4843130000000  0.4136870000000  0.4427910000000 1.0
C      1  0.4135910000000  0.4728320000000  0.4405320000000 1.0
C      1  0.4307910000000  0.5614520000000  0.4394090000000 1.0
C      1  0.5179540000000  0.5858770000000  0.4399180000000 1.0
C      1  0.5843170000000  0.5267980000000  0.4403110000000 1.0
C      1  0.5654950000000  0.4402110000000  0.4418260000000 1.0
C      1  0.4812700000000  0.4111770000000  0.5610720000000 1.0
C      1  0.4167570000000  0.4714630000000  0.5564690000000 1.0
C      1  0.4338510000000  0.5596060000000  0.5596220000000 1.0
C      1  0.5179710000000  0.5872650000000  0.5591240000000 1.0
C      1  0.5837720000000  0.5283610000000  0.5595020000000 1.0
C      1  0.5686610000000  0.4393850000000  0.5610400000000 1.0
C      1  0.4932200000000  0.4711210000000  0.4377160000000 1.0
C      1  0.4662770000000  0.4919110000000  0.4397220000000 1.0
C      1  0.4742050000000  0.5249590000000  0.4379910000000 1.0
C      1  0.5080690000000  0.5298340000000  0.4367990000000 1.0
C      1  0.5316130000000  0.5066130000000  0.4383820000000 1.0
C      1  0.5242160000000  0.4792160000000  0.4387150000000 1.0
C      1  0.4913710000000  0.4670010000000  0.5620410000000 1.0
C      1  0.4702950000000  0.4938260000000  0.5632510000000 1.0
C      1  0.4795770000000  0.5251680000000  0.5618540000000 1.0
C      1  0.5069500000000  0.5321210000000  0.5630230000000 1.0
C      1  0.5295840000000  0.5088880000000  0.5652060000000 1.0
C      1  0.5244610000000  0.4752760000000  0.5635720000000 1.0
C      1  0.5296130000000  0.5043440000000  0.6133840000000 1.0
C      1  0.5185700000000  0.4731770000000  0.6121400000000 1.0
C      1  0.4870060000000  0.4673320000000  0.6172200000000 1.0
C      1  0.4657960000000  0.4925670000000  0.6183930000000 1.0
C      1  0.4766810000000  0.5232340000000  0.6180270000000 1.0
C      1  0.5088190000000  0.5295780000000  0.6155760000000 1.0
C      1  0.5319410000000  0.5070770000000  0.3826600000000 1.0
C      1  0.5195940000000  0.4766540000000  0.3856040000000 1.0
C      1  0.4871680000000  0.4718170000000  0.3878350000000 1.0
C      1  0.4675720000000  0.4976800000000  0.3855890000000 1.0
C      1  0.4793580000000  0.5285260000000  0.3864230000000 1.0
C      1  0.5114370000000  0.5330270000000  0.3822000000000 1.0
C      1  0.4068800000000  0.5037790000000  0.4352270000000 1.0
C      1  0.4535710000000  0.5865640000000  0.4359720000000 1.0
C      1  0.5481390000000  0.5765230000000  0.4352810000000 1.0
C      1  0.5941050000000  0.4945820000000  0.4360540000000 1.0
C      1  0.5421050000000  0.4164940000000  0.4369020000000 1.0
C      1  0.4515780000000  0.4224920000000  0.4400560000000 1.0
C      1  0.4084970000000  0.5039550000000  0.5623240000000 1.0
C      1  0.4560200000000  0.5848280000000  0.5649680000000 1.0
C      1  0.5505310000000  0.5799390000000  0.5636550000000 1.0
C      1  0.5940620000000  0.4964780000000  0.5641490000000 1.0
C      1  0.5459460000000  0.4142500000000  0.5648390000000 1.0
C      1  0.4506160000000  0.4212490000000  0.5654650000000 1.0
C      1  0.4990420000000  0.3973730000000  0.5435560000000 1.0
C      1  0.4111060000000  0.4501010000000  0.5390710000000 1.0
C      1  0.4121060000000  0.5522760000000  0.5432140000000 1.0
C      1  0.5008510000000  0.6027710000000  0.5431730000000 1.0
C      1  0.5890360000000  0.5507720000000  0.5431980000000 1.0
C      1  0.5899490000000  0.4474190000000  0.5443230000000 1.0
C      1  0.4987860000000  0.3962210000000  0.4597810000000 1.0
C      1  0.4108840000000  0.4523170000000  0.4593330000000 1.0
C      1  0.4096830000000  0.5531700000000  0.4562340000000 1.0
C      1  0.5005320000000  0.6016570000000  0.4557620000000 1.0
C      1  0.5889870000000  0.5495470000000  0.4561350000000 1.0
C      1  0.5877990000000  0.4466600000000  0.4575590000000 1.0
C      1  0.4551060000000  0.4622860000000  0.6080530000000 1.0
C      1  0.4446980000000  0.5172560000000  0.6092400000000 1.0
C      1  0.4868700000000  0.5536460000000  0.6077000000000 1.0
C      1  0.5399830000000  0.5354260000000  0.6046970000000 1.0
C      1  0.5504540000000  0.4803760000000  0.6032260000000 1.0
C      1  0.5051850000000  0.4445320000000  0.5995950000000 1.0
C      1  0.4563050000000  0.4696470000000  0.4012730000000 1.0
C      1  0.4471810000000  0.5223520000000  0.3955630000000 1.0
C      1  0.4937780000000  0.5558530000000  0.4003400000000 1.0
C      1  0.5436390000000  0.5373970000000  0.3910230000000 1.0
C      1  0.5517870000000  0.4824780000000  0.3936190000000 1.0
C      1  0.5084170000000  0.4474080000000  0.3977090000000 1.0
C      1  0.5980780000000  0.5409260000000  0.5160950000000 1.0
C      1  0.5850720000000  0.4353580000000  0.5173600000000 1.0
C      1  0.4879820000000  0.3944880000000  0.5142040000000 1.0
C      1  0.4010100000000  0.4597250000000  0.5130910000000 1.0
C      1  0.4148300000000  0.5657130000000  0.5160270000000 1.0
C      1  0.5127400000000  0.6053130000000  0.5155340000000 1.0
C      1  0.5978010000000  0.5407690000000  0.4837510000000 1.0
C      1  0.5841450000000  0.4345480000000  0.4850630000000 1.0
C      1  0.4835950000000  0.3907330000000  0.4832480000000 1.0
C      1  0.3994680000000  0.4606480000000  0.4852340000000 1.0
C      1  0.4142510000000  0.5657310000000  0.4831410000000 1.0
C      1  0.5128760000000  0.6052030000000  0.4833450000000 1.0
C      1  0.5501910000000  0.3867830000000  0.5159510000000 1.0
C      1  0.4307710000000  0.4013060000000  0.5163730000000 1.0
C      1  0.3804310000000  0.5108550000000  0.5151360000000 1.0
C      1  0.4501500000000  0.6135260000000  0.5163490000000 1.0
C      1  0.5710600000000  0.5995460000000  0.5144050000000 1.0
C      1  0.6225990000000  0.4876370000000  0.5160050000000 1.0
C      1  0.5501260000000  0.3880930000000  0.4850510000000 1.0
C      1  0.4321240000000  0.4051570000000  0.4875580000000 1.0
C      1  0.3787740000000  0.5113620000000  0.4838760000000 1.0
C      1  0.4502290000000  0.6152310000000  0.4847920000000 1.0
C      1  0.5707070000000  0.5986580000000  0.4828830000000 1.0
C      1  0.6213950000000  0.4867210000000  0.4847570000000 1.0
C      1  0.5267320000000  0.4902740000000  0.4891210000000 1.0
C      1  0.5027400000000  0.4706260000000  0.4844690000000 1.0
C      1  0.4739650000000  0.4819230000000  0.4806820000000 1.0
C      1  0.4701200000000  0.5116650000000  0.4757440000000 1.0
C      1  0.4926760000000  0.5311750000000  0.4813560000000 1.0
C      1  0.5212850000000  0.5206810000000  0.4843580000000 1.0
C      1  0.5301950000000  0.4894190000000  0.5224430000000 1.0
C      1  0.5073470000000  0.4700820000000  0.5174730000000 1.0
C      1  0.4782240000000  0.4798680000000  0.5144110000000 1.0
C      1  0.4730930000000  0.5100460000000  0.5089750000000 1.0
C      1  0.4967300000000  0.5301150000000  0.5142210000000 1.0
C      1  0.5250770000000  0.5185750000000  0.5172190000000 1.0
C      1  0.4404940000000  0.5503330000000  0.4990280000000 1.0
C      1  0.5588790000000  0.4514160000000  0.5014480000000 1.0
C      1  0.4872260000000  0.4261010000000  0.5015270000000 1.0
C      1  0.5113590000000  0.5746890000000  0.4994800000000 1.0
C      1  0.4341650000000  0.4767100000000  0.4973260000000 1.0
C      1  0.5709660000000  0.5265740000000  0.5002880000000 1.0
C      1  0.4947230000000  0.5017360000000  0.4239910000000 1.0
C      1  0.5010500000000  0.4954960000000  0.5776560000000 1.0
END
