TITL C-2782226-7400-677 -0.00297765795098954 125000 -499.382940259517 0 0 82 (C1) n - 1
REM
REM in /home/nfs/bkarasulu/CARBON/AIRSS/Generating-Clusters/REBO/Higher-Symm/SD-CG/HFTN-CG
REM
REM
REM
REM
REM
REM ./C.cell (12c818d87b63d06a65506943cc24bca4)
REM
REM compiler GCC version 9.2.1 20190827 (Red Hat 9.2.1-1)
REM options -cpp -mtune=generic -march=x86-64 -g -O0 -fpre-include=/usr/include/finclude/math-vector-fortran.h
REM seed -1716132536 -985664913 -283790589 -964241354 775781848 -1517904671 -623869929 1203362286 -2124896001 1014543013 -395019452 476605788 756658907 1573841416 159998045 -1104495519 -1560546901 1903232267 1423778468 1111930636 -1201709893 368003286 1019769461 1589487855 -911404908 -687834836 1964593367 -1138849693 -1070733919 -2126536273 2088384039 1683643273 -1181510817
REM
CELL 1.54180   50.00000   50.00000   50.00000   90.00000   90.00000   90.00000
LATT -1
SFAC C  
C      1  0.4614390000000  0.4845460000000  0.4323310000000 1.0
C      1  0.4617970000000  0.4840960000000  0.5665240000000 1.0
C      1  0.5754490000000  0.4870650000000  0.5039370000000 1.0
C      1  0.5226200000000  0.5174380000000  0.4232730000000 1.0
C      1  0.4223330000000  0.5173810000000  0.5179080000000 1.0
C      1  0.5542000000000  0.5188860000000  0.5587670000000 1.0
C      1  0.4650770000000  0.5456580000000  0.5260010000000 1.0
C      1  0.5395850000000  0.5471240000000  0.5172260000000 1.0
C      1  0.4943140000000  0.5463150000000  0.4568750000000 1.0
C      1  0.4342540000000  0.4560220000000  0.4996540000000 1.0
C      1  0.5369910000000  0.4542780000000  0.5566030000000 1.0
C      1  0.5312060000000  0.4541610000000  0.4472050000000 1.0
C      1  0.5453670000000  0.5346250000000  0.4418350000000 1.0
C      1  0.4256980000000  0.5348180000000  0.4893750000000 1.0
C      1  0.5274130000000  0.5361360000000  0.5697610000000 1.0
C      1  0.5795810000000  0.5143630000000  0.5085110000000 1.0
C      1  0.4653820000000  0.5120890000000  0.4276460000000 1.0
C      1  0.4550270000000  0.5115030000000  0.5654390000000 1.0
C      1  0.4350350000000  0.5202670000000  0.5474170000000 1.0
C      1  0.5747490000000  0.5243890000000  0.5345860000000 1.0
C      1  0.4908280000000  0.5212430000000  0.4190820000000 1.0
C      1  0.5045720000000  0.5026140000000  0.5415750000000 1.0
C      1  0.5357290000000  0.5046850000000  0.4746780000000 1.0
C      1  0.4614110000000  0.5022030000000  0.4821780000000 1.0
C      1  0.5241260000000  0.5040050000000  0.5812280000000 1.0
C      1  0.5560120000000  0.5022280000000  0.4390820000000 1.0
C      1  0.4173840000000  0.5025870000000  0.4811270000000 1.0
C      1  0.4433820000000  0.4649150000000  0.5612110000000 1.0
C      1  0.5729800000000  0.4671860000000  0.5235380000000 1.0
C      1  0.4760330000000  0.4657630000000  0.4192760000000 1.0
C      1  0.5033820000000  0.4527590000000  0.4287240000000 1.0
C      1  0.4338370000000  0.4541160000000  0.5329660000000 1.0
C      1  0.5526380000000  0.4497250000000  0.5289510000000 1.0
C      1  0.5310450000000  0.4307560000000  0.4707060000000 1.0
C      1  0.4540000000000  0.4378880000000  0.4889140000000 1.0
C      1  0.5135040000000  0.4368870000000  0.5444560000000 1.0
C      1  0.4854510000000  0.5117810000000  0.5223510000000 1.0
C      1  0.5274620000000  0.5130350000000  0.5008940000000 1.0
C      1  0.4875310000000  0.5117450000000  0.4751890000000 1.0
C      1  0.5728900000000  0.5303500000000  0.4858920000000 1.0
C      1  0.4500510000000  0.5292180000000  0.4441500000000 1.0
C      1  0.4761560000000  0.5294710000000  0.5709100000000 1.0
C      1  0.5386750000000  0.5550970000000  0.4655880000000 1.0
C      1  0.4500310000000  0.5546080000000  0.4833700000000 1.0
C      1  0.5097450000000  0.5553960000000  0.5513510000000 1.0
C      1  0.5029970000000  0.4196840000000  0.4656070000000 1.0
C      1  0.4672870000000  0.4245710000000  0.5102470000000 1.0
C      1  0.5213370000000  0.4210500000000  0.5237080000000 1.0
C      1  0.5595540000000  0.4812590000000  0.4792130000000 1.0
C      1  0.4536870000000  0.4770830000000  0.4605740000000 1.0
C      1  0.4900040000000  0.4769270000000  0.5584270000000 1.0
C      1  0.5562230000000  0.4505210000000  0.4781250000000 1.0
C      1  0.4651120000000  0.4483280000000  0.4650800000000 1.0
C      1  0.4882580000000  0.4486970000000  0.5466000000000 1.0
C      1  0.4625310000000  0.5655340000000  0.5061540000000 1.0
C      1  0.5231720000000  0.5665880000000  0.5292380000000 1.0
C      1  0.5127070000000  0.5661390000000  0.4649740000000 1.0
C      1  0.5510460000000  0.5483110000000  0.4907820000000 1.0
C      1  0.4656590000000  0.5471800000000  0.4602430000000 1.0
C      1  0.4821190000000  0.5472920000000  0.5492120000000 1.0
C      1  0.4067770000000  0.4698420000000  0.5250420000000 1.0
C      1  0.5577450000000  0.4701520000000  0.5756980000000 1.0
C      1  0.5251720000000  0.4681590000000  0.4103590000000 1.0
C      1  0.4298470000000  0.4779020000000  0.4822350000000 1.0
C      1  0.5192490000000  0.4789470000000  0.5699210000000 1.0
C      1  0.5480700000000  0.4766970000000  0.4491260000000 1.0
C      1  0.4545190000000  0.5158240000000  0.5127750000000 1.0
C      1  0.5342930000000  0.5170720000000  0.5328340000000 1.0
C      1  0.5116010000000  0.5168890000000  0.4537910000000 1.0
C      1  0.4868720000000  0.4373430000000  0.4519030000000 1.0
C      1  0.4645980000000  0.4397130000000  0.5347230000000 1.0
C      1  0.5416310000000  0.4333980000000  0.5029530000000 1.0
C      1  0.4258570000000  0.5227450000000  0.4577730000000 1.0
C      1  0.4999100000000  0.5241090000000  0.5855940000000 1.0
C      1  0.5722670000000  0.5221310000000  0.4585120000000 1.0
C      1  0.5318190000000  0.4920180000000  0.4090030000000 1.0
C      1  0.4035990000000  0.4933240000000  0.5175050000000 1.0
C      1  0.5625040000000  0.4945480000000  0.5753220000000 1.0
C      1  0.5053390000000  0.5871630000000  0.4824320000000 1.0
C      1  0.4809350000000  0.5868860000000  0.5036570000000 1.0
C      1  0.5114840000000  0.5875340000000  0.5141840000000 1.0
C      1  0.5000560000000  0.5180950000000  0.4994260000000 1.0
END
