TITL C-2782240-8521-546 -0.000921260256138438 125000 -468.045727272948 0 0 82 (C2) n - 1
REM
REM in /home/nfs/bkarasulu/CARBON/AIRSS/Generating-Clusters/REBO/Higher-Symm/SD-CG/HFTN-CG
REM
REM
REM
REM
REM
REM ./C.cell (12c818d87b63d06a65506943cc24bca4)
REM
REM compiler GCC version 9.2.1 20190827 (Red Hat 9.2.1-1)
REM options -cpp -mtune=generic -march=x86-64 -g -O0 -fpre-include=/usr/include/finclude/math-vector-fortran.h
REM seed 1122781561 -180894607 2076554757 1466688670 -878392504 1575887301 231159286 2050067812 -2038198866 1360588825 797559020 -188542050 -698519322 -1802688622 256121201 437428539 1275297938 -1924387485 840019596 1090896461 1192833590 1442012035 -677771649 722182812 721807769 -550216333 1253400505 577560552 -250370335 576504388 2025920279 -378364875 755663713
REM
CELL 1.54180   50.00000   50.00000   50.00000   90.00000   90.00000   90.00000
LATT -1
SFAC C  
C      1  0.4989310000000  0.5741740000000  0.4898450000000 1.0
C      1  0.5010690000000  0.4258260000000  0.4898440000000 1.0
C      1  0.5560810000000  0.4958470000000  0.5534700000000 1.0
C      1  0.4439190000000  0.5041520000000  0.5534700000000 1.0
C      1  0.5402290000000  0.4518040000000  0.5449400000000 1.0
C      1  0.4597710000000  0.5481960000000  0.5449410000000 1.0
C      1  0.5475240000000  0.5005660000000  0.5117420000000 1.0
C      1  0.4524760000000  0.4994340000000  0.5117420000000 1.0
C      1  0.5820670000000  0.5112900000000  0.4955880000000 1.0
C      1  0.4179330000000  0.4887100000000  0.4955880000000 1.0
C      1  0.4753250000000  0.4962310000000  0.4884170000000 1.0
C      1  0.5246750000000  0.5037700000000  0.4884170000000 1.0
C      1  0.5125010000000  0.4980490000000  0.5886320000000 1.0
C      1  0.4874990000000  0.5019500000000  0.5886320000000 1.0
C      1  0.5130020000000  0.5521820000000  0.5574870000000 1.0
C      1  0.4869980000000  0.4478170000000  0.5574860000000 1.0
C      1  0.4513290000000  0.4639520000000  0.4678360000000 1.0
C      1  0.5486710000000  0.5360480000000  0.4678370000000 1.0
C      1  0.4997720000000  0.4836290000000  0.4236720000000 1.0
C      1  0.5002280000000  0.5163720000000  0.4236720000000 1.0
C      1  0.4840270000000  0.4246640000000  0.4539920000000 1.0
C      1  0.5159730000000  0.5753370000000  0.4539940000000 1.0
C      1  0.4728720000000  0.5648580000000  0.4758960000000 1.0
C      1  0.5271280000000  0.4351420000000  0.4758950000000 1.0
C      1  0.4780090000000  0.4262300000000  0.5347330000000 1.0
C      1  0.5219910000000  0.5737690000000  0.5347340000000 1.0
C      1  0.5733260000000  0.5174730000000  0.5465870000000 1.0
C      1  0.4266740000000  0.4825260000000  0.5465870000000 1.0
C      1  0.4455410000000  0.5322060000000  0.4477650000000 1.0
C      1  0.5544590000000  0.4677950000000  0.4477640000000 1.0
C      1  0.4753420000000  0.4283820000000  0.5027750000000 1.0
C      1  0.5246580000000  0.5716180000000  0.5027760000000 1.0
C      1  0.5256480000000  0.5274670000000  0.4436460000000 1.0
C      1  0.4743520000000  0.4725340000000  0.4436460000000 1.0
C      1  0.5751070000000  0.4810110000000  0.5093140000000 1.0
C      1  0.4248930000000  0.5189890000000  0.5093150000000 1.0
C      1  0.4757530000000  0.5210230000000  0.5103690000000 1.0
C      1  0.5242470000000  0.4789770000000  0.5103690000000 1.0
C      1  0.5425020000000  0.5302230000000  0.5246330000000 1.0
C      1  0.4574980000000  0.4697770000000  0.5246320000000 1.0
C      1  0.4696060000000  0.5119040000000  0.4351820000000 1.0
C      1  0.5303940000000  0.4880970000000  0.4351820000000 1.0
C      1  0.4739080000000  0.5002790000000  0.5613000000000 1.0
C      1  0.5260920000000  0.4997200000000  0.5613000000000 1.0
C      1  0.4700590000000  0.4704550000000  0.5533950000000 1.0
C      1  0.5299410000000  0.5295440000000  0.5533960000000 1.0
C      1  0.4753580000000  0.5496850000000  0.5037400000000 1.0
C      1  0.5246420000000  0.4503150000000  0.5037390000000 1.0
C      1  0.4842040000000  0.5464860000000  0.5613340000000 1.0
C      1  0.5157960000000  0.4535130000000  0.5613340000000 1.0
C      1  0.4248590000000  0.4713190000000  0.5181610000000 1.0
C      1  0.5751410000000  0.5286810000000  0.5181620000000 1.0
C      1  0.4564950000000  0.4435390000000  0.4871050000000 1.0
C      1  0.5435050000000  0.5564610000000  0.4871060000000 1.0
C      1  0.4252280000000  0.5462220000000  0.4663910000000 1.0
C      1  0.5747720000000  0.4537780000000  0.4663900000000 1.0
C      1  0.5497900000000  0.5133800000000  0.4240870000000 1.0
C      1  0.4502100000000  0.4866210000000  0.4240870000000 1.0
C      1  0.5415780000000  0.4253420000000  0.5299690000000 1.0
C      1  0.4584220000000  0.5746580000000  0.5299700000000 1.0
C      1  0.4305530000000  0.4842610000000  0.4696690000000 1.0
C      1  0.5694470000000  0.5157390000000  0.4696690000000 1.0
C      1  0.5091040000000  0.4338010000000  0.5273780000000 1.0
C      1  0.4908960000000  0.5661980000000  0.5273790000000 1.0
C      1  0.5110990000000  0.5331450000000  0.4884930000000 1.0
C      1  0.4889010000000  0.4668560000000  0.4884930000000 1.0
C      1  0.4944490000000  0.4507250000000  0.4590590000000 1.0
C      1  0.5055510000000  0.5492760000000  0.4590600000000 1.0
C      1  0.5813280000000  0.4586030000000  0.4898150000000 1.0
C      1  0.4186720000000  0.5413970000000  0.4898160000000 1.0
C      1  0.4329050000000  0.5013100000000  0.4461280000000 1.0
C      1  0.5670950000000  0.4986910000000  0.4461280000000 1.0
C      1  0.4410730000000  0.5274360000000  0.5378030000000 1.0
C      1  0.5589270000000  0.4725630000000  0.5378020000000 1.0
C      1  0.4899610000000  0.4613060000000  0.5200680000000 1.0
C      1  0.5100390000000  0.5386930000000  0.5200690000000 1.0
C      1  0.5073340000000  0.4853860000000  0.5368180000000 1.0
C      1  0.4926660000000  0.5146130000000  0.5368180000000 1.0
C      1  0.5146730000000  0.5008480000000  0.4607160000000 1.0
C      1  0.4853270000000  0.4991530000000  0.4607160000000 1.0
C      1  0.5267380000000  0.4524530000000  0.4520470000000 1.0
C      1  0.4732620000000  0.5475480000000  0.4520480000000 1.0
END
