TITL C-2782225-7408-1453 0.000889822054069349 125000 -952.985461777034 0 0 169 (C1) n - 1
REM
REM in /home/nfs/bkarasulu/CARBON/AIRSS/Generating-Clusters/REBO/Higher-Symm/SD-CG/HFTN-CG
REM
REM
REM
REM
REM
REM ./C.cell (12c818d87b63d06a65506943cc24bca4)
REM
REM compiler GCC version 9.2.1 20190827 (Red Hat 9.2.1-1)
REM options -cpp -mtune=generic -march=x86-64 -g -O0 -fpre-include=/usr/include/finclude/math-vector-fortran.h
REM seed 1970700769 1241987510 -549204341 -1304626631 173149544 615190149 -216343942 -1184020260 -488526060 389457885 527870970 -1694359367 -591045591 -1118227854 1104822859 -1182807380 1264419179 -575357159 219999835 -1188486500 315459740 -76808194 1844436358 366988471 -300448064 824845200 -26044585 1765608037 -90232271 1990481811 497959909 -868728770 680310230
REM
CELL 1.54180   50.00000   50.00000   50.00000   90.00000   90.00000   90.00000
LATT -1
SFAC C  
C      1  0.5497570000000  0.5605430000000  0.5089260000000 1.0
C      1  0.4759650000000  0.5627430000000  0.4597270000000 1.0
C      1  0.4693990000000  0.5601360000000  0.5448970000000 1.0
C      1  0.5212530000000  0.5007390000000  0.4117190000000 1.0
C      1  0.4075230000000  0.5030960000000  0.5256320000000 1.0
C      1  0.5659010000000  0.4995500000000  0.5657910000000 1.0
C      1  0.6081600000000  0.4731720000000  0.4953920000000 1.0
C      1  0.4464350000000  0.4724340000000  0.4093720000000 1.0
C      1  0.4496630000000  0.4699040000000  0.5990660000000 1.0
C      1  0.4735830000000  0.4178560000000  0.4223960000000 1.0
C      1  0.4524640000000  0.4236870000000  0.5560180000000 1.0
C      1  0.5776710000000  0.4210660000000  0.5118710000000 1.0
C      1  0.4855580000000  0.5311940000000  0.5159470000000 1.0
C      1  0.5185670000000  0.5325270000000  0.5064580000000 1.0
C      1  0.4939870000000  0.5323040000000  0.4827230000000 1.0
C      1  0.5547310000000  0.5043300000000  0.5060720000000 1.0
C      1  0.4769840000000  0.4965970000000  0.4572610000000 1.0
C      1  0.4719350000000  0.5085210000000  0.5462850000000 1.0
C      1  0.4402230000000  0.4377370000000  0.4271970000000 1.0
C      1  0.4719620000000  0.4414290000000  0.5838200000000 1.0
C      1  0.5920120000000  0.4402060000000  0.4812870000000 1.0
C      1  0.5011980000000  0.5372600000000  0.5415190000000 1.0
C      1  0.5332840000000  0.5383030000000  0.4800030000000 1.0
C      1  0.4625640000000  0.5349610000000  0.4847830000000 1.0
C      1  0.4411820000000  0.5239230000000  0.4333320000000 1.0
C      1  0.4671280000000  0.5221830000000  0.5882170000000 1.0
C      1  0.5859770000000  0.5236640000000  0.4841520000000 1.0
C      1  0.4013120000000  0.5270720000000  0.5316520000000 1.0
C      1  0.5732140000000  0.5230720000000  0.5723570000000 1.0
C      1  0.5186740000000  0.5248980000000  0.4043560000000 1.0
C      1  0.5666020000000  0.5696570000000  0.5360960000000 1.0
C      1  0.4927520000000  0.5683520000000  0.4309180000000 1.0
C      1  0.4395900000000  0.5709310000000  0.5386980000000 1.0
C      1  0.5200960000000  0.6170190000000  0.5064170000000 1.0
C      1  0.5002020000000  0.6203540000000  0.4789470000000 1.0
C      1  0.4862160000000  0.6158120000000  0.5094010000000 1.0
C      1  0.4526810000000  0.5951900000000  0.5184060000000 1.0
C      1  0.5444080000000  0.5946220000000  0.5291300000000 1.0
C      1  0.5025910000000  0.5969240000000  0.4465120000000 1.0
C      1  0.4235300000000  0.5198190000000  0.5640110000000 1.0
C      1  0.5940000000000  0.5177450000000  0.5387620000000 1.0
C      1  0.4800900000000  0.5152430000000  0.4073740000000 1.0
C      1  0.4864920000000  0.4445260000000  0.4694350000000 1.0
C      1  0.4849010000000  0.4613510000000  0.5294410000000 1.0
C      1  0.5384280000000  0.4539680000000  0.4948340000000 1.0
C      1  0.4543890000000  0.4971690000000  0.4318100000000 1.0
C      1  0.4499190000000  0.4999280000000  0.5860250000000 1.0
C      1  0.5908690000000  0.5007590000000  0.5035900000000 1.0
C      1  0.4792270000000  0.6039020000000  0.5376820000000 1.0
C      1  0.5462450000000  0.6006270000000  0.4974200000000 1.0
C      1  0.4765680000000  0.6136860000000  0.4577870000000 1.0
C      1  0.4831080000000  0.4394260000000  0.5530750000000 1.0
C      1  0.5604570000000  0.4341060000000  0.4853310000000 1.0
C      1  0.4620550000000  0.4301210000000  0.4521320000000 1.0
C      1  0.4874460000000  0.5189420000000  0.4387170000000 1.0
C      1  0.4481870000000  0.5262710000000  0.5438010000000 1.0
C      1  0.5636730000000  0.5224730000000  0.5276070000000 1.0
C      1  0.4326030000000  0.4826510000000  0.5325440000000 1.0
C      1  0.5633530000000  0.4783070000000  0.5402870000000 1.0
C      1  0.5049810000000  0.4758440000000  0.4257580000000 1.0
C      1  0.4474190000000  0.4539230000000  0.5411420000000 1.0
C      1  0.5644130000000  0.4495330000000  0.5247810000000 1.0
C      1  0.4912130000000  0.4459560000000  0.4298640000000 1.0
C      1  0.5226130000000  0.4998840000000  0.5566310000000 1.0
C      1  0.5331670000000  0.4970490000000  0.4511890000000 1.0
C      1  0.4402620000000  0.5001530000000  0.4958050000000 1.0
C      1  0.5650380000000  0.5411140000000  0.4436290000000 1.0
C      1  0.4163350000000  0.5452150000000  0.4694790000000 1.0
C      1  0.5139570000000  0.5440640000000  0.5879930000000 1.0
C      1  0.4582680000000  0.5742470000000  0.4825320000000 1.0
C      1  0.4991090000000  0.5766230000000  0.5471900000000 1.0
C      1  0.5403040000000  0.5725640000000  0.4772920000000 1.0
C      1  0.4068340000000  0.4694930000000  0.5051360000000 1.0
C      1  0.5532070000000  0.4637000000000  0.5779950000000 1.0
C      1  0.5413510000000  0.4638460000000  0.4118760000000 1.0
C      1  0.4107540000000  0.4917740000000  0.4809010000000 1.0
C      1  0.5332040000000  0.4859270000000  0.5843620000000 1.0
C      1  0.5542060000000  0.4855220000000  0.4284620000000 1.0
C      1  0.4300100000000  0.4508710000000  0.5008800000000 1.0
C      1  0.5399210000000  0.4421820000000  0.5618700000000 1.0
C      1  0.5375490000000  0.4395770000000  0.4287800000000 1.0
C      1  0.5417320000000  0.5496280000000  0.5599100000000 1.0
C      1  0.5262380000000  0.5472700000000  0.4366380000000 1.0
C      1  0.4247720000000  0.5498360000000  0.5082310000000 1.0
C      1  0.5387010000000  0.4790690000000  0.5172130000000 1.0
C      1  0.4982850000000  0.4723490000000  0.4589470000000 1.0
C      1  0.4631280000000  0.4873280000000  0.5259540000000 1.0
C      1  0.4939650000000  0.5450730000000  0.4133870000000 1.0
C      1  0.4194990000000  0.5493770000000  0.5476380000000 1.0
C      1  0.5803050000000  0.5468540000000  0.5498840000000 1.0
C      1  0.5744060000000  0.4705470000000  0.5014890000000 1.0
C      1  0.4675460000000  0.4655350000000  0.4345940000000 1.0
C      1  0.4567140000000  0.4759010000000  0.5634510000000 1.0
C      1  0.5205450000000  0.4388780000000  0.5179530000000 1.0
C      1  0.5141710000000  0.4296970000000  0.4684420000000 1.0
C      1  0.4794860000000  0.4462940000000  0.5022780000000 1.0
C      1  0.4217910000000  0.4630360000000  0.4310960000000 1.0
C      1  0.4830890000000  0.4629370000000  0.6019650000000 1.0
C      1  0.5990450000000  0.4640060000000  0.4636010000000 1.0
C      1  0.5610200000000  0.4232980000000  0.5473380000000 1.0
C      1  0.5128480000000  0.4219240000000  0.4186060000000 1.0
C      1  0.4314370000000  0.4288690000000  0.5232900000000 1.0
C      1  0.5507200000000  0.5210000000000  0.4645060000000 1.0
C      1  0.4374820000000  0.5250200000000  0.4751510000000 1.0
C      1  0.5067200000000  0.5254390000000  0.5655300000000 1.0
C      1  0.4970650000000  0.4041470000000  0.4430230000000 1.0
C      1  0.4558110000000  0.4055170000000  0.5279740000000 1.0
C      1  0.5517790000000  0.4016630000000  0.5226330000000 1.0
C      1  0.5743650000000  0.5493910000000  0.4890240000000 1.0
C      1  0.4577430000000  0.5481310000000  0.4349580000000 1.0
C      1  0.4654570000000  0.5484990000000  0.5752540000000 1.0
C      1  0.5264100000000  0.6032630000000  0.4695270000000 1.0
C      1  0.4645600000000  0.6045790000000  0.4874630000000 1.0
C      1  0.5135100000000  0.6066970000000  0.5370350000000 1.0
C      1  0.4187350000000  0.4921060000000  0.5623350000000 1.0
C      1  0.5958850000000  0.4895910000000  0.5414220000000 1.0
C      1  0.4848130000000  0.4889330000000  0.4005190000000 1.0
C      1  0.4081600000000  0.4514710000000  0.5340680000000 1.0
C      1  0.5790110000000  0.4484840000000  0.5618210000000 1.0
C      1  0.5146860000000  0.4490850000000  0.3978120000000 1.0
C      1  0.5983560000000  0.4594770000000  0.5433870000000 1.0
C      1  0.4887190000000  0.4603220000000  0.3927260000000 1.0
C      1  0.4140910000000  0.4617060000000  0.5612830000000 1.0
C      1  0.5491160000000  0.4099030000000  0.4719530000000 1.0
C      1  0.4490910000000  0.4108510000000  0.4737030000000 1.0
C      1  0.5008150000000  0.4154390000000  0.5476810000000 1.0
C      1  0.5421750000000  0.5259440000000  0.5474130000000 1.0
C      1  0.5163830000000  0.5235160000000  0.4442090000000 1.0
C      1  0.4376490000000  0.5271000000000  0.5150630000000 1.0
C      1  0.5098660000000  0.4848240000000  0.5294860000000 1.0
C      1  0.5237970000000  0.4783430000000  0.4766640000000 1.0
C      1  0.4730650000000  0.4920050000000  0.4965620000000 1.0
C      1  0.4129880000000  0.5217360000000  0.4374530000000 1.0
C      1  0.4903970000000  0.5161100000000  0.6037620000000 1.0
C      1  0.5916360000000  0.5149880000000  0.4574700000000 1.0
C      1  0.5204980000000  0.4497860000000  0.5434370000000 1.0
C      1  0.5345880000000  0.4436310000000  0.4564200000000 1.0
C      1  0.4539930000000  0.4577920000000  0.4884830000000 1.0
C      1  0.5083270000000  0.5597800000000  0.4699890000000 1.0
C      1  0.4640430000000  0.5567350000000  0.5111590000000 1.0
C      1  0.5210310000000  0.5594330000000  0.5271760000000 1.0
C      1  0.4240570000000  0.4765600000000  0.4563530000000 1.0
C      1  0.5005850000000  0.4808310000000  0.5879440000000 1.0
C      1  0.5764370000000  0.4779700000000  0.4526440000000 1.0
C      1  0.5291950000000  0.5774680000000  0.4391990000000 1.0
C      1  0.4257180000000  0.5807720000000  0.5046720000000 1.0
C      1  0.5372960000000  0.5797880000000  0.5585400000000 1.0
C      1  0.5400600000000  0.3882690000000  0.4936280000000 1.0
C      1  0.4810210000000  0.4012780000000  0.4722580000000 1.0
C      1  0.4875440000000  0.3945780000000  0.5276980000000 1.0
C      1  0.5872370000000  0.5706830000000  0.4759070000000 1.0
C      1  0.4581540000000  0.5635360000000  0.4114440000000 1.0
C      1  0.4603090000000  0.5694940000000  0.5933410000000 1.0
C      1  0.5630140000000  0.4917810000000  0.4768200000000 1.0
C      1  0.4535210000000  0.4733820000000  0.4638820000000 1.0
C      1  0.4848410000000  0.4925280000000  0.5681190000000 1.0
C      1  0.3998690000000  0.5171600000000  0.4649280000000 1.0
C      1  0.5205470000000  0.5130710000000  0.6006140000000 1.0
C      1  0.5738250000000  0.5123480000000  0.4330490000000 1.0
C      1  0.6023640000000  0.4448500000000  0.5138170000000 1.0
C      1  0.4627970000000  0.4430790000000  0.4019650000000 1.0
C      1  0.4378490000000  0.4447650000000  0.5788480000000 1.0
C      1  0.5581630000000  0.5678810000000  0.4486740000000 1.0
C      1  0.4259930000000  0.5712510000000  0.4746030000000 1.0
C      1  0.5130960000000  0.5710040000000  0.5777060000000 1.0
C      1  0.5188720000000  0.4065970000000  0.5210170000000 1.0
C      1  0.5187220000000  0.3965900000000  0.4682190000000 1.0
C      1  0.4685110000000  0.4159530000000  0.5003130000000 1.0
C      1  0.4994670000000  0.4859530000000  0.4972570000000 1.0
END
