TITL C-2782238-9940-1458 -0.00122406118222884 125000 -398.4613433154 0 0 70 (C1) n - 1
REM
REM in /home/nfs/bkarasulu/CARBON/AIRSS/Generating-Clusters/REBO/Higher-Symm/SD-CG/HFTN-CG
REM
REM
REM
REM
REM
REM ./C.cell (12c818d87b63d06a65506943cc24bca4)
REM
REM compiler GCC version 9.2.1 20190827 (Red Hat 9.2.1-1)
REM options -cpp -mtune=generic -march=x86-64 -g -O0 -fpre-include=/usr/include/finclude/math-vector-fortran.h
REM seed 644404105 -25058334 -1354594733 28297200 -1978499531 2076258919 -1109117541 -1470281447 -634161345 1698523070 -1700297292 -2112995668 -1118082932 1468828303 -2073716944 1683897058 -1524159971 -644829699 1551708373 -1964911891 1186758177 1793615625 356985563 44677721 -951839501 354971405 -446310794 832842815 1984190908 -1126066962 -160481757 753226221 -1769061702
REM
CELL 1.54180   50.00000   50.00000   50.00000   90.00000   90.00000   90.00000
LATT -1
SFAC C  
C      1  0.5273470000000  0.4602540000000  0.4352450000000 1.0
C      1  0.5628310000000  0.5316430000000  0.5218960000000 1.0
C      1  0.4729940000000  0.4611460000000  0.5661620000000 1.0
C      1  0.4386400000000  0.5385250000000  0.4684950000000 1.0
C      1  0.5546600000000  0.5409270000000  0.4547840000000 1.0
C      1  0.5410310000000  0.4594580000000  0.5621070000000 1.0
C      1  0.4307820000000  0.5387930000000  0.5356660000000 1.0
C      1  0.4599740000000  0.4659960000000  0.4375010000000 1.0
C      1  0.5171610000000  0.4912850000000  0.5763090000000 1.0
C      1  0.4301670000000  0.5069520000000  0.5127860000000 1.0
C      1  0.4884420000000  0.4911320000000  0.4253540000000 1.0
C      1  0.5734460000000  0.5031280000000  0.4886930000000 1.0
C      1  0.4730060000000  0.5173110000000  0.5180170000000 1.0
C      1  0.4818190000000  0.4816950000000  0.4764230000000 1.0
C      1  0.5213260000000  0.5265610000000  0.4846710000000 1.0
C      1  0.5129620000000  0.4815280000000  0.5270080000000 1.0
C      1  0.4970750000000  0.4397670000000  0.5431930000000 1.0
C      1  0.4610080000000  0.5605350000000  0.4928860000000 1.0
C      1  0.5049330000000  0.4416930000000  0.4618700000000 1.0
C      1  0.5414790000000  0.5588610000000  0.5026700000000 1.0
C      1  0.5472300000000  0.4581320000000  0.4810760000000 1.0
C      1  0.5250130000000  0.5507560000000  0.5477720000000 1.0
C      1  0.4518210000000  0.4443330000000  0.5248430000000 1.0
C      1  0.4825790000000  0.5526290000000  0.4474520000000 1.0
C      1  0.5607420000000  0.5347440000000  0.4878050000000 1.0
C      1  0.5071330000000  0.4620000000000  0.5670670000000 1.0
C      1  0.4368680000000  0.5381670000000  0.5020250000000 1.0
C      1  0.4937190000000  0.4603650000000  0.4356030000000 1.0
C      1  0.4905410000000  0.5126890000000  0.5767890000000 1.0
C      1  0.4331320000000  0.4842910000000  0.4874810000000 1.0
C      1  0.5174820000000  0.5090760000000  0.4222040000000 1.0
C      1  0.5766250000000  0.4824020000000  0.5156490000000 1.0
C      1  0.4870210000000  0.5696130000000  0.5004830000000 1.0
C      1  0.4980340000000  0.4366090000000  0.4888070000000 1.0
C      1  0.5143750000000  0.5669820000000  0.4981570000000 1.0
C      1  0.5027920000000  0.4365210000000  0.5156720000000 1.0
C      1  0.4839510000000  0.5330640000000  0.4726680000000 1.0
C      1  0.5279870000000  0.4773040000000  0.4902980000000 1.0
C      1  0.5070130000000  0.5335190000000  0.5307490000000 1.0
C      1  0.4715010000000  0.4603270000000  0.5083570000000 1.0
C      1  0.5476080000000  0.4978040000000  0.5659270000000 1.0
C      1  0.4380360000000  0.5069860000000  0.5461130000000 1.0
C      1  0.4555910000000  0.4977290000000  0.4297720000000 1.0
C      1  0.5564610000000  0.5013160000000  0.4591870000000 1.0
C      1  0.5198740000000  0.5247100000000  0.5672770000000 1.0
C      1  0.4362930000000  0.4740220000000  0.5197950000000 1.0
C      1  0.4906920000000  0.5236150000000  0.4347220000000 1.0
C      1  0.5728390000000  0.4688110000000  0.4869880000000 1.0
C      1  0.5359920000000  0.4433670000000  0.4590010000000 1.0
C      1  0.5482200000000  0.5568230000000  0.5323350000000 1.0
C      1  0.4665110000000  0.4369040000000  0.5485770000000 1.0
C      1  0.4577390000000  0.5612690000000  0.4620860000000 1.0
C      1  0.4391250000000  0.4868910000000  0.4602400000000 1.0
C      1  0.5484980000000  0.5197830000000  0.4317130000000 1.0
C      1  0.5647830000000  0.4771910000000  0.5450300000000 1.0
C      1  0.4647980000000  0.5107000000000  0.5671930000000 1.0
C      1  0.4548660000000  0.4820730000000  0.5623060000000 1.0
C      1  0.4399380000000  0.5168420000000  0.4514950000000 1.0
C      1  0.5400090000000  0.4869070000000  0.4330060000000 1.0
C      1  0.5620930000000  0.5106930000000  0.5391580000000 1.0
C      1  0.4681080000000  0.4601780000000  0.4661660000000 1.0
C      1  0.5289810000000  0.5469020000000  0.4668000000000 1.0
C      1  0.5300560000000  0.4606290000000  0.5344240000000 1.0
C      1  0.4608420000000  0.5373470000000  0.5340060000000 1.0
C      1  0.5342090000000  0.5026970000000  0.4816700000000 1.0
C      1  0.5116190000000  0.5053630000000  0.5395720000000 1.0
C      1  0.4664310000000  0.4909830000000  0.5161140000000 1.0
C      1  0.4821000000000  0.5051430000000  0.4622620000000 1.0
C      1  0.4993720000000  0.4748330000000  0.5004740000000 1.0
C      1  0.4960250000000  0.5307750000000  0.5015280000000 1.0
END
