TITL C-2782225-7408-762 -0.00473300608158708 125000 -1139.9159060023 0 0 196 (C1) n - 1
REM
REM in /home/nfs/bkarasulu/CARBON/AIRSS/Generating-Clusters/REBO/Higher-Symm/SD-CG/HFTN-CG
REM
REM
REM
REM
REM
REM ./C.cell (12c818d87b63d06a65506943cc24bca4)
REM
REM compiler GCC version 9.2.1 20190827 (Red Hat 9.2.1-1)
REM options -cpp -mtune=generic -march=x86-64 -g -O0 -fpre-include=/usr/include/finclude/math-vector-fortran.h
REM seed 1150239481 1357598442 -1668129800 1207504048 -176617606 1445569223 -1247711514 -247014052 1838100954 2083184051 -1300974109 -1863561296 -421731873 779231785 -1436577994 -578268496 -426510842 286706575 2023338034 1624417486 -561251793 1746009537 1412761527 -1276043970 390301704 -159727672 -1564512869 1001885972 -1171588861 -813721956 1581646681 -1894325722 -678987197
REM
CELL 1.54180   50.00000   50.00000   50.00000   90.00000   90.00000   90.00000
LATT -1
SFAC C  
C      1  0.5951710000000  0.4744950000000  0.5347740000000 1.0
C      1  0.4062740000000  0.4583010000000  0.4732870000000 1.0
C      1  0.5944490000000  0.5259410000000  0.4586670000000 1.0
C      1  0.4072670000000  0.5392050000000  0.5246700000000 1.0
C      1  0.4970620000000  0.5945280000000  0.4876060000000 1.0
C      1  0.5035740000000  0.5081730000000  0.5933730000000 1.0
C      1  0.4930180000000  0.4070640000000  0.5132290000000 1.0
C      1  0.5046660000000  0.4958810000000  0.4072500000000 1.0
C      1  0.5644410000000  0.4683440000000  0.4644440000000 1.0
C      1  0.4366170000000  0.5296620000000  0.4672980000000 1.0
C      1  0.5549280000000  0.5375710000000  0.5260480000000 1.0
C      1  0.4400450000000  0.4706030000000  0.5290960000000 1.0
C      1  0.5643640000000  0.4558390000000  0.5024090000000 1.0
C      1  0.4318320000000  0.4930690000000  0.4527320000000 1.0
C      1  0.5660280000000  0.5428710000000  0.4884730000000 1.0
C      1  0.4356940000000  0.5075630000000  0.5426750000000 1.0
C      1  0.4935990000000  0.5412590000000  0.4754670000000 1.0
C      1  0.5102270000000  0.5277820000000  0.5439920000000 1.0
C      1  0.4921890000000  0.4548460000000  0.5329760000000 1.0
C      1  0.5102120000000  0.4758240000000  0.4593800000000 1.0
C      1  0.4516810000000  0.5872450000000  0.4671460000000 1.0
C      1  0.5495940000000  0.5311670000000  0.5914750000000 1.0
C      1  0.4492230000000  0.4104820000000  0.5396730000000 1.0
C      1  0.5647370000000  0.4574280000000  0.4029140000000 1.0
C      1  0.5121960000000  0.4764550000000  0.5168960000000 1.0
C      1  0.4875700000000  0.4949750000000  0.4719040000000 1.0
C      1  0.5086840000000  0.5146350000000  0.4903850000000 1.0
C      1  0.4933380000000  0.5056070000000  0.5207470000000 1.0
C      1  0.5577550000000  0.4549490000000  0.5615850000000 1.0
C      1  0.4465480000000  0.4428580000000  0.4598460000000 1.0
C      1  0.5658530000000  0.5436050000000  0.4353040000000 1.0
C      1  0.4456740000000  0.5578100000000  0.5369560000000 1.0
C      1  0.5183330000000  0.5451720000000  0.4128480000000 1.0
C      1  0.4826220000000  0.5925150000000  0.5377250000000 1.0
C      1  0.5173400000000  0.4600680000000  0.5942580000000 1.0
C      1  0.4860840000000  0.4078800000000  0.4594050000000 1.0
C      1  0.5119250000000  0.3814460000000  0.5012350000000 1.0
C      1  0.4822550000000  0.5085360000000  0.3859840000000 1.0
C      1  0.5182630000000  0.6166800000000  0.5010190000000 1.0
C      1  0.4849800000000  0.4982260000000  0.6193180000000 1.0
C      1  0.5364110000000  0.5408050000000  0.4501000000000 1.0
C      1  0.4746210000000  0.5437300000000  0.5372660000000 1.0
C      1  0.5283090000000  0.4599490000000  0.5492980000000 1.0
C      1  0.4743050000000  0.4589100000000  0.4588990000000 1.0
C      1  0.5435530000000  0.3819820000000  0.4919170000000 1.0
C      1  0.4506010000000  0.5175000000000  0.3890830000000 1.0
C      1  0.5482960000000  0.6113210000000  0.5130130000000 1.0
C      1  0.4554210000000  0.4867350000000  0.6113490000000 1.0
C      1  0.4539710000000  0.4955010000000  0.4785900000000 1.0
C      1  0.5429220000000  0.5173420000000  0.4916020000000 1.0
C      1  0.4575250000000  0.5040120000000  0.5162760000000 1.0
C      1  0.5442450000000  0.4807800000000  0.5062320000000 1.0
C      1  0.6257470000000  0.4786260000000  0.4647210000000 1.0
C      1  0.3726760000000  0.5403250000000  0.4820690000000 1.0
C      1  0.6246340000000  0.5159930000000  0.5397560000000 1.0
C      1  0.3764770000000  0.4561670000000  0.5188070000000 1.0
C      1  0.4472510000000  0.4781670000000  0.4191580000000 1.0
C      1  0.5606760000000  0.5872290000000  0.4712710000000 1.0
C      1  0.4529380000000  0.5229850000000  0.5753040000000 1.0
C      1  0.5496940000000  0.4195350000000  0.5276240000000 1.0
C      1  0.4273020000000  0.4053850000000  0.4843650000000 1.0
C      1  0.5719070000000  0.5141080000000  0.3993250000000 1.0
C      1  0.4237370000000  0.5921230000000  0.5119140000000 1.0
C      1  0.5755300000000  0.4839320000000  0.5937250000000 1.0
C      1  0.4666840000000  0.5927840000000  0.4422640000000 1.0
C      1  0.5313690000000  0.5598260000000  0.5936770000000 1.0
C      1  0.4664440000000  0.4093800000000  0.5689950000000 1.0
C      1  0.5383390000000  0.4396320000000  0.4034550000000 1.0
C      1  0.4479910000000  0.4609080000000  0.5798050000000 1.0
C      1  0.5383620000000  0.4407110000000  0.4521380000000 1.0
C      1  0.4399670000000  0.5595820000000  0.4410210000000 1.0
C      1  0.5357130000000  0.5740240000000  0.5433370000000 1.0
C      1  0.4696030000000  0.4719990000000  0.5143210000000 1.0
C      1  0.5382150000000  0.4821310000000  0.4732190000000 1.0
C      1  0.4646380000000  0.5274590000000  0.4840910000000 1.0
C      1  0.5321310000000  0.5142100000000  0.5241620000000 1.0
C      1  0.6134310000000  0.4562480000000  0.4783710000000 1.0
C      1  0.3863400000000  0.5236270000000  0.4652930000000 1.0
C      1  0.6070820000000  0.5339800000000  0.5290900000000 1.0
C      1  0.3910470000000  0.4734090000000  0.5341470000000 1.0
C      1  0.4792560000000  0.4703080000000  0.5699250000000 1.0
C      1  0.5199340000000  0.4249160000000  0.4722540000000 1.0
C      1  0.4801560000000  0.5326690000000  0.4322470000000 1.0
C      1  0.5195410000000  0.5706730000000  0.5202820000000 1.0
C      1  0.5782570000000  0.5194450000000  0.5186860000000 1.0
C      1  0.4158170000000  0.4865060000000  0.5152720000000 1.0
C      1  0.5881260000000  0.4799450000000  0.4809680000000 1.0
C      1  0.4131380000000  0.5121190000000  0.4820720000000 1.0
C      1  0.5746460000000  0.5397280000000  0.5615110000000 1.0
C      1  0.4219310000000  0.4282040000000  0.5437030000000 1.0
C      1  0.5754050000000  0.4596840000000  0.4344810000000 1.0
C      1  0.4077030000000  0.5629420000000  0.4645880000000 1.0
C      1  0.4853710000000  0.4753480000000  0.3898800000000 1.0
C      1  0.5177860000000  0.6112930000000  0.4679360000000 1.0
C      1  0.4850800000000  0.5301870000000  0.6101870000000 1.0
C      1  0.5130050000000  0.3887470000000  0.5333990000000 1.0
C      1  0.4735110000000  0.5383000000000  0.4000490000000 1.0
C      1  0.5244370000000  0.6117690000000  0.5342770000000 1.0
C      1  0.4775170000000  0.4649340000000  0.6184160000000 1.0
C      1  0.5212070000000  0.3922000000000  0.4702560000000 1.0
C      1  0.4944080000000  0.4463710000000  0.6051600000000 1.0
C      1  0.5097430000000  0.4019460000000  0.4412200000000 1.0
C      1  0.4945590000000  0.5605560000000  0.4076030000000 1.0
C      1  0.5062270000000  0.5995600000000  0.5518880000000 1.0
C      1  0.6016250000000  0.5521200000000  0.4735030000000 1.0
C      1  0.4027510000000  0.5271460000000  0.5526980000000 1.0
C      1  0.5927560000000  0.4471850000000  0.5290910000000 1.0
C      1  0.4001040000000  0.4702000000000  0.4459620000000 1.0
C      1  0.5069950000000  0.5576550000000  0.4489710000000 1.0
C      1  0.4976580000000  0.5584230000000  0.5521250000000 1.0
C      1  0.5047490000000  0.4409750000000  0.5614820000000 1.0
C      1  0.4999730000000  0.4471490000000  0.4433780000000 1.0
C      1  0.4788110000000  0.4238990000000  0.5336130000000 1.0
C      1  0.5180580000000  0.4795980000000  0.4289560000000 1.0
C      1  0.4800620000000  0.5725620000000  0.4740090000000 1.0
C      1  0.5204590000000  0.5257020000000  0.5759630000000 1.0
C      1  0.5356750000000  0.5525010000000  0.5623830000000 1.0
C      1  0.4648570000000  0.4417830000000  0.5587760000000 1.0
C      1  0.5357930000000  0.4577850000000  0.4295240000000 1.0
C      1  0.4653110000000  0.5536660000000  0.4502980000000 1.0
C      1  0.5104200000000  0.5187650000000  0.4292230000000 1.0
C      1  0.4898870000000  0.5764080000000  0.5125130000000 1.0
C      1  0.5069370000000  0.4828920000000  0.5757880000000 1.0
C      1  0.4909390000000  0.4236990000000  0.4872310000000 1.0
C      1  0.5674720000000  0.5960300000000  0.5003090000000 1.0
C      1  0.4413660000000  0.4988400000000  0.5904570000000 1.0
C      1  0.5611000000000  0.4020920000000  0.5048260000000 1.0
C      1  0.4340840000000  0.5025560000000  0.4064060000000 1.0
C      1  0.5424350000000  0.4438320000000  0.5879780000000 1.0
C      1  0.4604010000000  0.4171600000000  0.4450130000000 1.0
C      1  0.5467620000000  0.5578040000000  0.4133210000000 1.0
C      1  0.4574860000000  0.5833760000000  0.5524300000000 1.0
C      1  0.4152490000000  0.5390440000000  0.4423630000000 1.0
C      1  0.5669400000000  0.5647920000000  0.5408950000000 1.0
C      1  0.4277040000000  0.4555090000000  0.5534380000000 1.0
C      1  0.5688980000000  0.4358730000000  0.4580450000000 1.0
C      1  0.3811070000000  0.4605390000000  0.4908480000000 1.0
C      1  0.6158040000000  0.5048280000000  0.4663420000000 1.0
C      1  0.3807190000000  0.5362310000000  0.5092680000000 1.0
C      1  0.6215080000000  0.4886190000000  0.5312560000000 1.0
C      1  0.5948560000000  0.5527970000000  0.5046140000000 1.0
C      1  0.4055010000000  0.4949030000000  0.5528230000000 1.0
C      1  0.5949390000000  0.4413320000000  0.4984950000000 1.0
C      1  0.3997040000000  0.5023820000000  0.4458330000000 1.0
C      1  0.4310550000000  0.4617020000000  0.4420890000000 1.0
C      1  0.5736760000000  0.5599700000000  0.4600770000000 1.0
C      1  0.4332300000000  0.5376320000000  0.5549650000000 1.0
C      1  0.5711690000000  0.4357330000000  0.5428200000000 1.0
C      1  0.5653520000000  0.5377120000000  0.3958340000000 1.0
C      1  0.4321540000000  0.5953030000000  0.5350560000000 1.0
C      1  0.5675530000000  0.4612040000000  0.5997450000000 1.0
C      1  0.4354370000000  0.4045030000000  0.4610420000000 1.0
C      1  0.4303360000000  0.4743210000000  0.4896710000000 1.0
C      1  0.5692630000000  0.5070720000000  0.4722510000000 1.0
C      1  0.4312550000000  0.5234150000000  0.5064110000000 1.0
C      1  0.5691200000000  0.4913920000000  0.5269130000000 1.0
C      1  0.4137570000000  0.5161200000000  0.4205470000000 1.0
C      1  0.5817800000000  0.5778070000000  0.5170130000000 1.0
C      1  0.4209360000000  0.4803400000000  0.5757790000000 1.0
C      1  0.5742510000000  0.4217410000000  0.4846470000000 1.0
C      1  0.5707100000000  0.4878570000000  0.4173550000000 1.0
C      1  0.4284840000000  0.5763280000000  0.4835710000000 1.0
C      1  0.5698390000000  0.5108410000000  0.5771750000000 1.0
C      1  0.4309110000000  0.4197160000000  0.5124830000000 1.0
C      1  0.4727250000000  0.4491150000000  0.4893850000000 1.0
C      1  0.5321620000000  0.5084360000000  0.4525250000000 1.0
C      1  0.4711010000000  0.5516470000000  0.5067720000000 1.0
C      1  0.5269860000000  0.4924380000000  0.5500190000000 1.0
C      1  0.4383150000000  0.5555120000000  0.5053830000000 1.0
C      1  0.5586550000000  0.4875800000000  0.5570680000000 1.0
C      1  0.4400370000000  0.4424500000000  0.4923060000000 1.0
C      1  0.5629660000000  0.5114490000000  0.4391030000000 1.0
C      1  0.4738640000000  0.5682480000000  0.5776650000000 1.0
C      1  0.5279430000000  0.4191580000000  0.5704850000000 1.0
C      1  0.4745320000000  0.4382230000000  0.4234930000000 1.0
C      1  0.5296570000000  0.5769570000000  0.4341600000000 1.0
C      1  0.4673180000000  0.4594470000000  0.4053580000000 1.0
C      1  0.5377070000000  0.5980050000000  0.4524680000000 1.0
C      1  0.4672670000000  0.5438960000000  0.5925530000000 1.0
C      1  0.5331970000000  0.4032130000000  0.5472420000000 1.0
C      1  0.5362140000000  0.5638650000000  0.4728560000000 1.0
C      1  0.4740840000000  0.5155210000000  0.5497380000000 1.0
C      1  0.5296240000000  0.4464180000000  0.5196400000000 1.0
C      1  0.4698050000000  0.4854260000000  0.4436020000000 1.0
C      1  0.3872260000000  0.4903440000000  0.4867560000000 1.0
C      1  0.6009030000000  0.5145180000000  0.4954110000000 1.0
C      1  0.3882310000000  0.5065870000000  0.5128230000000 1.0
C      1  0.6141490000000  0.4871050000000  0.5020490000000 1.0
C      1  0.4568130000000  0.5151100000000  0.4441190000000 1.0
C      1  0.5371430000000  0.5548370000000  0.5026230000000 1.0
C      1  0.4603750000000  0.4864130000000  0.5516340000000 1.0
C      1  0.5422440000000  0.4344020000000  0.4913160000000 1.0
C      1  0.4883130000000  0.4244180000000  0.5855810000000 1.0
C      1  0.5155510000000  0.4242430000000  0.4234970000000 1.0
C      1  0.4883420000000  0.5790570000000  0.4300050000000 1.0
C      1  0.5092540000000  0.5786430000000  0.5767000000000 1.0
END
