TITL C-2782235-7892-886 0.000144013337652385 125000 -483.566453321165 0 0 82 (C2) n - 1
REM
REM in /home/nfs/bkarasulu/CARBON/AIRSS/Generating-Clusters/REBO/Higher-Symm/SD-CG/HFTN-CG
REM
REM
REM
REM
REM
REM ./C.cell (12c818d87b63d06a65506943cc24bca4)
REM
REM compiler GCC version 9.2.1 20190827 (Red Hat 9.2.1-1)
REM options -cpp -mtune=generic -march=x86-64 -g -O0 -fpre-include=/usr/include/finclude/math-vector-fortran.h
REM seed -623224012 -1079402550 -273460124 1549521648 -1208930832 -2092795847 550700927 731976310 -554014876 -965569960 1926812347 535363867 -9028648 -1762584831 1522542584 97092406 -1730721041 47208381 1014095625 1039113470 -712599133 -1815151451 -932145186 -673518333 -1371717513 1615209694 -1348936394 1036013379 1521364639 -864427372 -959245872 -722022747 -1066245679
REM
CELL 1.54180   50.00000   50.00000   50.00000   90.00000   90.00000   90.00000
LATT -1
SFAC C  
C      1  0.4401750000000  0.5506400000000  0.5051910000000 1.0
C      1  0.4406810000000  0.4487750000000  0.4938620000000 1.0
C      1  0.5570490000000  0.4493610000000  0.5052010000000 1.0
C      1  0.5565420000000  0.5512240000000  0.4938550000000 1.0
C      1  0.4789140000000  0.4819290000000  0.4298390000000 1.0
C      1  0.4784480000000  0.5180650000000  0.5738020000000 1.0
C      1  0.5183110000000  0.5180590000000  0.4298360000000 1.0
C      1  0.5187740000000  0.4819480000000  0.5738060000000 1.0
C      1  0.5635060000000  0.4869520000000  0.4713350000000 1.0
C      1  0.5653340000000  0.5131200000000  0.5304680000000 1.0
C      1  0.4337180000000  0.5130440000000  0.4713310000000 1.0
C      1  0.4318890000000  0.4868850000000  0.5304680000000 1.0
C      1  0.5270600000000  0.4396370000000  0.5504870000000 1.0
C      1  0.5264580000000  0.5628600000000  0.4495120000000 1.0
C      1  0.4701630000000  0.5603720000000  0.5504760000000 1.0
C      1  0.4707660000000  0.4371310000000  0.4495220000000 1.0
C      1  0.4928160000000  0.5576880000000  0.4479520000000 1.0
C      1  0.4932350000000  0.4433380000000  0.5529710000000 1.0
C      1  0.5044090000000  0.4423030000000  0.4479620000000 1.0
C      1  0.5039880000000  0.5566710000000  0.5529610000000 1.0
C      1  0.5421460000000  0.5192630000000  0.4619060000000 1.0
C      1  0.5415280000000  0.4816680000000  0.5352030000000 1.0
C      1  0.4550780000000  0.4807300000000  0.4619080000000 1.0
C      1  0.4556950000000  0.5183380000000  0.5351980000000 1.0
C      1  0.4356430000000  0.4744550000000  0.4814590000000 1.0
C      1  0.4357660000000  0.5242690000000  0.5163270000000 1.0
C      1  0.5615810000000  0.5255420000000  0.4814560000000 1.0
C      1  0.5614580000000  0.4757340000000  0.5163320000000 1.0
C      1  0.5342200000000  0.5176970000000  0.5195330000000 1.0
C      1  0.5320900000000  0.4806200000000  0.4781520000000 1.0
C      1  0.4630030000000  0.4823070000000  0.5195350000000 1.0
C      1  0.4651340000000  0.5193760000000  0.4781480000000 1.0
C      1  0.4795810000000  0.4408400000000  0.4974380000000 1.0
C      1  0.4786140000000  0.5611490000000  0.5032000000000 1.0
C      1  0.5176430000000  0.5591600000000  0.4974280000000 1.0
C      1  0.5186100000000  0.4388520000000  0.5032110000000 1.0
C      1  0.5470310000000  0.5475380000000  0.5218210000000 1.0
C      1  0.5465720000000  0.4513870000000  0.4776230000000 1.0
C      1  0.4501930000000  0.4524660000000  0.5218280000000 1.0
C      1  0.4506520000000  0.5486090000000  0.4776140000000 1.0
C      1  0.4589860000000  0.4616510000000  0.4392330000000 1.0
C      1  0.4601020000000  0.5343900000000  0.5585610000000 1.0
C      1  0.5382390000000  0.5383390000000  0.4392280000000 1.0
C      1  0.5371200000000  0.4656200000000  0.5585680000000 1.0
C      1  0.4708720000000  0.5097440000000  0.4331350000000 1.0
C      1  0.4711650000000  0.4898030000000  0.5702400000000 1.0
C      1  0.5263530000000  0.4902450000000  0.4331370000000 1.0
C      1  0.5260570000000  0.5102090000000  0.5702390000000 1.0
C      1  0.5356250000000  0.4357080000000  0.4579160000000 1.0
C      1  0.5356120000000  0.5616650000000  0.5423360000000 1.0
C      1  0.4615990000000  0.5642850000000  0.4579040000000 1.0
C      1  0.4616110000000  0.4383420000000  0.5423450000000 1.0
C      1  0.5146820000000  0.4695800000000  0.5018500000000 1.0
C      1  0.5146050000000  0.5274200000000  0.4963640000000 1.0
C      1  0.4825410000000  0.5304210000000  0.5018450000000 1.0
C      1  0.4826190000000  0.4725800000000  0.4963690000000 1.0
C      1  0.4835920000000  0.4947580000000  0.4723130000000 1.0
C      1  0.4844480000000  0.5056930000000  0.5237630000000 1.0
C      1  0.5136320000000  0.5052370000000  0.4723130000000 1.0
C      1  0.5127750000000  0.4943110000000  0.5237640000000 1.0
C      1  0.5525250000000  0.4850580000000  0.4441060000000 1.0
C      1  0.5506790000000  0.5146740000000  0.5558610000000 1.0
C      1  0.4447000000000  0.5149320000000  0.4441030000000 1.0
C      1  0.4465430000000  0.4853360000000  0.5558620000000 1.0
C      1  0.5023600000000  0.5730710000000  0.5236340000000 1.0
C      1  0.5021300000000  0.4260080000000  0.4771830000000 1.0
C      1  0.4948630000000  0.4269330000000  0.5236470000000 1.0
C      1  0.4950950000000  0.5739880000000  0.4771700000000 1.0
C      1  0.5396580000000  0.4317050000000  0.5254310000000 1.0
C      1  0.5380060000000  0.5691500000000  0.4752540000000 1.0
C      1  0.4575650000000  0.5682990000000  0.5254190000000 1.0
C      1  0.4592180000000  0.4308450000000  0.4752650000000 1.0
C      1  0.5053130000000  0.4713990000000  0.4340000000000 1.0
C      1  0.5048680000000  0.5289190000000  0.5700740000000 1.0
C      1  0.4919120000000  0.5285900000000  0.4339950000000 1.0
C      1  0.4923540000000  0.4710930000000  0.5700790000000 1.0
C      1  0.4954870000000  0.6041500000000  0.4747670000000 1.0
C      1  0.4924830000000  0.3968330000000  0.5262710000000 1.0
C      1  0.5017370000000  0.3958460000000  0.4747850000000 1.0
C      1  0.5047400000000  0.6031710000000  0.5262540000000 1.0
C      1  0.4243390000000  0.4985990000000  0.4996290000000 1.0
C      1  0.5728840000000  0.5014010000000  0.4996310000000 1.0
END
