TITL C-2782238-9940-685 1.75896305389501e-05 125000 -437.623357101164 0 0 77 (C1) n - 1
REM
REM in /home/nfs/bkarasulu/CARBON/AIRSS/Generating-Clusters/REBO/Higher-Symm/SD-CG/HFTN-CG
REM
REM
REM
REM
REM
REM ./C.cell (12c818d87b63d06a65506943cc24bca4)
REM
REM compiler GCC version 9.2.1 20190827 (Red Hat 9.2.1-1)
REM options -cpp -mtune=generic -march=x86-64 -g -O0 -fpre-include=/usr/include/finclude/math-vector-fortran.h
REM seed -2054975754 -396772135 621481567 57797656 -219099616 -1701321321 -1605300629 -2121313401 -867105665 1834514164 1147491693 -475408078 -1118668746 1612787105 948188209 774983291 1188799455 -256057232 296847345 1003609107 -1241966097 -1009650294 -1406152603 263299518 -1486300120 1266614629 2044300286 1116042487 -1914049346 928000242 2030690911 1282895559 1107674943
REM
CELL 1.54180   50.00000   50.00000   50.00000   90.00000   90.00000   90.00000
LATT -1
SFAC C  
C      1  0.4898650000000  0.5597940000000  0.4649000000000 1.0
C      1  0.5090410000000  0.4468350000000  0.4603630000000 1.0
C      1  0.4515260000000  0.5608410000000  0.4704660000000 1.0
C      1  0.5458270000000  0.4412230000000  0.4739620000000 1.0
C      1  0.4744380000000  0.5762750000000  0.4904030000000 1.0
C      1  0.5173630000000  0.4287160000000  0.4879240000000 1.0
C      1  0.4902260000000  0.4599650000000  0.4388070000000 1.0
C      1  0.5181130000000  0.5288010000000  0.4373890000000 1.0
C      1  0.4671880000000  0.4954600000000  0.5078730000000 1.0
C      1  0.5277110000000  0.5118470000000  0.4997900000000 1.0
C      1  0.5569720000000  0.5542930000000  0.5185930000000 1.0
C      1  0.4461300000000  0.4495960000000  0.5189080000000 1.0
C      1  0.4591130000000  0.4747320000000  0.5615240000000 1.0
C      1  0.5381900000000  0.5260780000000  0.5559620000000 1.0
C      1  0.5255020000000  0.5211690000000  0.4697260000000 1.0
C      1  0.4786550000000  0.4877780000000  0.4795910000000 1.0
C      1  0.4483970000000  0.5191880000000  0.5040050000000 1.0
C      1  0.5500810000000  0.4880250000000  0.5028180000000 1.0
C      1  0.5112340000000  0.4752570000000  0.5678820000000 1.0
C      1  0.4870560000000  0.5242270000000  0.5707380000000 1.0
C      1  0.4245380000000  0.4953770000000  0.4974180000000 1.0
C      1  0.5774570000000  0.5073480000000  0.4968070000000 1.0
C      1  0.5574550000000  0.4703630000000  0.5302980000000 1.0
C      1  0.4416990000000  0.5305400000000  0.5334480000000 1.0
C      1  0.4667810000000  0.4454920000000  0.5456390000000 1.0
C      1  0.5335590000000  0.5562080000000  0.5425960000000 1.0
C      1  0.5484930000000  0.4408520000000  0.5284820000000 1.0
C      1  0.4489320000000  0.5603920000000  0.5344330000000 1.0
C      1  0.4448970000000  0.4358130000000  0.4815580000000 1.0
C      1  0.5518750000000  0.5645280000000  0.4804770000000 1.0
C      1  0.4871960000000  0.4964290000000  0.5424750000000 1.0
C      1  0.5202000000000  0.4966380000000  0.5357780000000 1.0
C      1  0.4821340000000  0.4902790000000  0.5760430000000 1.0
C      1  0.5155490000000  0.5094950000000  0.5674540000000 1.0
C      1  0.4110740000000  0.5042780000000  0.4714380000000 1.0
C      1  0.5917510000000  0.4973480000000  0.4716820000000 1.0
C      1  0.4489890000000  0.4697290000000  0.4609270000000 1.0
C      1  0.5624990000000  0.5324510000000  0.4599790000000 1.0
C      1  0.5046980000000  0.4838880000000  0.4292430000000 1.0
C      1  0.4971330000000  0.5117880000000  0.4287100000000 1.0
C      1  0.4635670000000  0.4209970000000  0.4883470000000 1.0
C      1  0.5301580000000  0.5749240000000  0.4859100000000 1.0
C      1  0.5467990000000  0.5037550000000  0.4493460000000 1.0
C      1  0.4581570000000  0.5004330000000  0.4554630000000 1.0
C      1  0.5060590000000  0.5740370000000  0.5012180000000 1.0
C      1  0.4888320000000  0.4215960000000  0.5032210000000 1.0
C      1  0.4738310000000  0.5678540000000  0.5232550000000 1.0
C      1  0.5226760000000  0.4319100000000  0.5213970000000 1.0
C      1  0.4997080000000  0.4552650000000  0.5119280000000 1.0
C      1  0.4944860000000  0.5418420000000  0.5148480000000 1.0
C      1  0.5376310000000  0.4549860000000  0.4464010000000 1.0
C      1  0.4685400000000  0.5477090000000  0.4452680000000 1.0
C      1  0.5347590000000  0.4691280000000  0.4836090000000 1.0
C      1  0.4657400000000  0.5374090000000  0.4869700000000 1.0
C      1  0.5685030000000  0.5370050000000  0.4915500000000 1.0
C      1  0.4361930000000  0.4670200000000  0.4913180000000 1.0
C      1  0.5442440000000  0.5425080000000  0.4398840000000 1.0
C      1  0.4629370000000  0.4538290000000  0.4435580000000 1.0
C      1  0.4923670000000  0.4250520000000  0.5361690000000 1.0
C      1  0.5056570000000  0.5740150000000  0.5348020000000 1.0
C      1  0.4720260000000  0.5202600000000  0.4382130000000 1.0
C      1  0.5328950000000  0.4808120000000  0.4355960000000 1.0
C      1  0.5825710000000  0.4928430000000  0.5248710000000 1.0
C      1  0.4171390000000  0.5081870000000  0.5258890000000 1.0
C      1  0.5424140000000  0.4819910000000  0.5570220000000 1.0
C      1  0.4606430000000  0.5147190000000  0.5533500000000 1.0
C      1  0.5629500000000  0.5063600000000  0.5464070000000 1.0
C      1  0.4341220000000  0.4950080000000  0.5501780000000 1.0
C      1  0.4543290000000  0.4789400000000  0.5281920000000 1.0
C      1  0.5460940000000  0.5239950000000  0.5227160000000 1.0
C      1  0.4997200000000  0.5354010000000  0.4836400000000 1.0
C      1  0.5022830000000  0.4689760000000  0.4848880000000 1.0
C      1  0.5025720000000  0.5424340000000  0.5480300000000 1.0
C      1  0.4988970000000  0.4571860000000  0.5459980000000 1.0
C      1  0.5785630000000  0.4972230000000  0.4502710000000 1.0
C      1  0.4265250000000  0.5053520000000  0.4515620000000 1.0
C      1  0.4988620000000  0.5040220000000  0.5114480000000 1.0
END
