TITL C-2782240-8521-700 0.00114659100356882 125000 -126.384655938429 0 0 24 (C1) n - 1
REM
REM in /home/nfs/bkarasulu/CARBON/AIRSS/Generating-Clusters/REBO/Higher-Symm/SD-CG/HFTN-CG
REM
REM
REM
REM
REM
REM ./C.cell (12c818d87b63d06a65506943cc24bca4)
REM
REM compiler GCC version 9.2.1 20190827 (Red Hat 9.2.1-1)
REM options -cpp -mtune=generic -march=x86-64 -g -O0 -fpre-include=/usr/include/finclude/math-vector-fortran.h
REM seed -1274429251 -1692947319 -378961341 -190018731 -1472577639 1493340094 -737385718 -1449445256 1489498751 -1062265658 -1360411781 -1591142103 -1637462414 -1993236230 -564489165 -750659096 1544877107 531343248 1286400058 -1747332478 1004024114 -1567731868 -728936004 1220258948 -669457271 -965199015 1603992882 1433697229 213654196 -546175786 -73752307 -1364258411 -1700069573
REM
CELL 1.54180   50.00000   50.00000   50.00000   90.00000   90.00000   90.00000
LATT -1
SFAC C  
C      1  0.5320520000000  0.5578840000000  0.5002020000000 1.0
C      1  0.4642030000000  0.5531860000000  0.5016570000000 1.0
C      1  0.5177320000000  0.5163790000000  0.5247530000000 1.0
C      1  0.4869670000000  0.5147650000000  0.5251430000000 1.0
C      1  0.5099730000000  0.4200560000000  0.4931390000000 1.0
C      1  0.4828210000000  0.4207650000000  0.4884850000000 1.0
C      1  0.5177370000000  0.5189030000000  0.4713960000000 1.0
C      1  0.4869220000000  0.5198830000000  0.4720740000000 1.0
C      1  0.4800630000000  0.4731230000000  0.4878600000000 1.0
C      1  0.5164160000000  0.4720840000000  0.4898240000000 1.0
C      1  0.4714550000000  0.5232450000000  0.4988020000000 1.0
C      1  0.5309540000000  0.5272120000000  0.4986010000000 1.0
C      1  0.4832520000000  0.5726920000000  0.5025960000000 1.0
C      1  0.5104450000000  0.5743330000000  0.5018940000000 1.0
C      1  0.5380030000000  0.4943350000000  0.4989020000000 1.0
C      1  0.4624400000000  0.4920070000000  0.5038110000000 1.0
C      1  0.5244190000000  0.4432230000000  0.4942040000000 1.0
C      1  0.4699510000000  0.4447050000000  0.4856340000000 1.0
C      1  0.4423150000000  0.4851030000000  0.5193300000000 1.0
C      1  0.5621700000000  0.4865530000000  0.5067610000000 1.0
C      1  0.4913210000000  0.4900900000000  0.4645940000000 1.0
C      1  0.5233650000000  0.4896330000000  0.4621210000000 1.0
C      1  0.4819930000000  0.5040400000000  0.5545530000000 1.0
C      1  0.5130300000000  0.5057980000000  0.5536640000000 1.0
END
