TITL C-2782237-5345-44 -0.00345191463491115 125000 -1045.511209172 0 0 179 (C1) n - 1
REM
REM in /home/nfs/bkarasulu/CARBON/AIRSS/Generating-Clusters/REBO/Higher-Symm/SD-CG/HFTN-CG
REM
REM
REM
REM
REM
REM ./C.cell (12c818d87b63d06a65506943cc24bca4)
REM
REM compiler GCC version 9.2.1 20190827 (Red Hat 9.2.1-1)
REM options -cpp -mtune=generic -march=x86-64 -g -O0 -fpre-include=/usr/include/finclude/math-vector-fortran.h
REM seed -1150154797 1802491275 -247849031 -405544364 -147269181 -1913686771 -270750900 511303654 -239980141 -1619343243 -1405708007 1647600337 -1174237361 864721219 -700915646 1096507591 1099503450 770853979 -1007843444 1146322546 149966499 1136313958 1141440375 1534507053 1173747559 521129540 -224774275 1084944258 965824491 898494988 1916769767 -1694377599 -884978052
REM
CELL 1.54180   50.00000   50.00000   50.00000   90.00000   90.00000   90.00000
LATT -1
SFAC C  
C      1  0.6006690000000  0.5257720000000  0.4646210000000 1.0
C      1  0.4712550000000  0.4124570000000  0.4694980000000 1.0
C      1  0.4282500000000  0.5772870000000  0.4670560000000 1.0
C      1  0.5860600000000  0.5212710000000  0.4339730000000 1.0
C      1  0.4832640000000  0.4309250000000  0.4435680000000 1.0
C      1  0.4420060000000  0.5598800000000  0.4411650000000 1.0
C      1  0.4180740000000  0.5653500000000  0.5423700000000 1.0
C      1  0.5868570000000  0.5349190000000  0.5416080000000 1.0
C      1  0.4835280000000  0.4017780000000  0.5460220000000 1.0
C      1  0.5719940000000  0.4387310000000  0.4443120000000 1.0
C      1  0.4043110000000  0.4775320000000  0.4654700000000 1.0
C      1  0.5284450000000  0.6006080000000  0.4658650000000 1.0
C      1  0.4543360000000  0.4832700000000  0.5142840000000 1.0
C      1  0.5067380000000  0.5554900000000  0.5174970000000 1.0
C      1  0.5540660000000  0.4682580000000  0.5170580000000 1.0
C      1  0.5307660000000  0.4370480000000  0.4716500000000 1.0
C      1  0.4433460000000  0.5171140000000  0.4711950000000 1.0
C      1  0.5397520000000  0.5476000000000  0.4745580000000 1.0
C      1  0.5056680000000  0.5280380000000  0.3943280000000 1.0
C      1  0.5200150000000  0.4837970000000  0.4074860000000 1.0
C      1  0.4723400000000  0.4914390000000  0.4055800000000 1.0
C      1  0.5184090000000  0.5635560000000  0.5665950000000 1.0
C      1  0.5425680000000  0.4520310000000  0.5640550000000 1.0
C      1  0.3902010000000  0.4274760000000  0.5888700000000 1.0
C      1  0.4932920000000  0.6022360000000  0.5073580000000 1.0
C      1  0.5987080000000  0.4452370000000  0.5119850000000 1.0
C      1  0.4188030000000  0.4493770000000  0.5206760000000 1.0
C      1  0.6111810000000  0.4644380000000  0.4673420000000 1.0
C      1  0.4191710000000  0.4249380000000  0.4751220000000 1.0
C      1  0.4771210000000  0.6127320000000  0.4724150000000 1.0
C      1  0.5432760000000  0.5145770000000  0.4799520000000 1.0
C      1  0.4906870000000  0.4594370000000  0.4582290000000 1.0
C      1  0.4650930000000  0.5370720000000  0.4516560000000 1.0
C      1  0.5252270000000  0.5658730000000  0.4234880000000 1.0
C      1  0.5477960000000  0.4415720000000  0.4221720000000 1.0
C      1  0.4226970000000  0.4934500000000  0.4204910000000 1.0
C      1  0.5118790000000  0.4271410000000  0.5222000000000 1.0
C      1  0.4292170000000  0.5285380000000  0.5196140000000 1.0
C      1  0.5512900000000  0.5502540000000  0.5191130000000 1.0
C      1  0.5447290000000  0.4545790000000  0.6092370000000 1.0
C      1  0.4363360000000  0.4877530000000  0.6117370000000 1.0
C      1  0.5165700000000  0.5549770000000  0.6088920000000 1.0
C      1  0.5213120000000  0.4690470000000  0.4641920000000 1.0
C      1  0.4718210000000  0.5035340000000  0.4581060000000 1.0
C      1  0.5170900000000  0.5239810000000  0.4640170000000 1.0
C      1  0.5416820000000  0.5886990000000  0.5226370000000 1.0
C      1  0.5535100000000  0.4194950000000  0.5234510000000 1.0
C      1  0.4053340000000  0.4976070000000  0.5270820000000 1.0
C      1  0.5201850000000  0.4077040000000  0.4644760000000 1.0
C      1  0.4143350000000  0.5294450000000  0.4656520000000 1.0
C      1  0.5669910000000  0.5609700000000  0.4652030000000 1.0
C      1  0.5634640000000  0.4453100000000  0.5306300000000 1.0
C      1  0.4298940000000  0.4834330000000  0.5380340000000 1.0
C      1  0.5165360000000  0.5786410000000  0.5296370000000 1.0
C      1  0.5529040000000  0.4790720000000  0.6012280000000 1.0
C      1  0.4520640000000  0.4671210000000  0.6049870000000 1.0
C      1  0.4918080000000  0.5510150000000  0.5989580000000 1.0
C      1  0.5920790000000  0.4806720000000  0.5595990000000 1.0
C      1  0.4423310000000  0.4281990000000  0.5664080000000 1.0
C      1  0.4683740000000  0.5828390000000  0.5554200000000 1.0
C      1  0.4630540000000  0.5352230000000  0.5005060000000 1.0
C      1  0.5409490000000  0.5176620000000  0.5197380000000 1.0
C      1  0.5132370000000  0.4465810000000  0.4961080000000 1.0
C      1  0.4923230000000  0.5971090000000  0.5364330000000 1.0
C      1  0.5924230000000  0.4523320000000  0.5407920000000 1.0
C      1  0.4245340000000  0.4534560000000  0.5519310000000 1.0
C      1  0.4524020000000  0.4240380000000  0.5157370000000 1.0
C      1  0.4422740000000  0.5917190000000  0.5089670000000 1.0
C      1  0.5994190000000  0.4996280000000  0.5107870000000 1.0
C      1  0.4575890000000  0.6143740000000  0.4945930000000 1.0
C      1  0.6132590000000  0.4774480000000  0.4938230000000 1.0
C      1  0.4233030000000  0.4153540000000  0.5003730000000 1.0
C      1  0.5267690000000  0.3990420000000  0.5164770000000 1.0
C      1  0.3979980000000  0.5242000000000  0.5065350000000 1.0
C      1  0.5668770000000  0.5755450000000  0.5036360000000 1.0
C      1  0.4528080000000  0.4335250000000  0.4284370000000 1.0
C      1  0.4654930000000  0.5832990000000  0.4325450000000 1.0
C      1  0.6016300000000  0.4924140000000  0.4279290000000 1.0
C      1  0.4666940000000  0.4819030000000  0.5709480000000 1.0
C      1  0.4898520000000  0.5221470000000  0.5557350000000 1.0
C      1  0.5317160000000  0.4920180000000  0.5564150000000 1.0
C      1  0.5006310000000  0.6089240000000  0.4551390000000 1.0
C      1  0.6040120000000  0.4482760000000  0.4436370000000 1.0
C      1  0.4110580000000  0.4465570000000  0.4553990000000 1.0
C      1  0.5241190000000  0.4127830000000  0.3909350000000 1.0
C      1  0.4065930000000  0.5276900000000  0.3904610000000 1.0
C      1  0.5562440000000  0.5194310000000  0.4170250000000 1.0
C      1  0.5906970000000  0.5534520000000  0.5145500000000 1.0
C      1  0.4941490000000  0.3916650000000  0.5183360000000 1.0
C      1  0.4020020000000  0.5572300000000  0.5145190000000 1.0
C      1  0.5643990000000  0.4621710000000  0.5668840000000 1.0
C      1  0.4106490000000  0.4337980000000  0.5748160000000 1.0
C      1  0.4988260000000  0.5779900000000  0.5703440000000 1.0
C      1  0.4466340000000  0.4786320000000  0.4110890000000 1.0
C      1  0.5025370000000  0.5574700000000  0.4039000000000 1.0
C      1  0.5428150000000  0.4684950000000  0.4135070000000 1.0
C      1  0.4660000000000  0.5568330000000  0.5773620000000 1.0
C      1  0.5721200000000  0.4985350000000  0.5808670000000 1.0
C      1  0.4643870000000  0.4427480000000  0.5846550000000 1.0
C      1  0.4836630000000  0.4750420000000  0.5974230000000 1.0
C      1  0.4874870000000  0.5216140000000  0.5857560000000 1.0
C      1  0.5294080000000  0.4960390000000  0.5865330000000 1.0
C      1  0.5248720000000  0.4719380000000  0.5058170000000 1.0
C      1  0.4745260000000  0.5041160000000  0.4978290000000 1.0
C      1  0.5011500000000  0.5248600000000  0.5032110000000 1.0
C      1  0.4336250000000  0.4786800000000  0.4485770000000 1.0
C      1  0.4972720000000  0.5605210000000  0.4404740000000 1.0
C      1  0.5721590000000  0.4718960000000  0.4455250000000 1.0
C      1  0.5209660000000  0.4413320000000  0.6056400000000 1.0
C      1  0.4403290000000  0.5145780000000  0.6084230000000 1.0
C      1  0.5402450000000  0.5411210000000  0.6079980000000 1.0
C      1  0.4829410000000  0.5710510000000  0.4669880000000 1.0
C      1  0.5747240000000  0.4781750000000  0.4763350000000 1.0
C      1  0.4448970000000  0.4596870000000  0.4736470000000 1.0
C      1  0.4345890000000  0.5043670000000  0.4994200000000 1.0
C      1  0.5281790000000  0.5730660000000  0.4865600000000 1.0
C      1  0.5632120000000  0.4329520000000  0.4743110000000 1.0
C      1  0.5368040000000  0.3912710000000  0.4859900000000 1.0
C      1  0.3941660000000  0.5087650000000  0.4758800000000 1.0
C      1  0.5609930000000  0.5907600000000  0.4732400000000 1.0
C      1  0.4104070000000  0.5538120000000  0.4815570000000 1.0
C      1  0.5904830000000  0.5523110000000  0.4805050000000 1.0
C      1  0.4976120000000  0.3982960000000  0.4847390000000 1.0
C      1  0.5011180000000  0.4173970000000  0.5600570000000 1.0
C      1  0.4211840000000  0.5443260000000  0.5611730000000 1.0
C      1  0.5639850000000  0.5398340000000  0.5555190000000 1.0
C      1  0.4530040000000  0.5047880000000  0.5626090000000 1.0
C      1  0.5128340000000  0.5204430000000  0.5351580000000 1.0
C      1  0.5206110000000  0.4733760000000  0.5383230000000 1.0
C      1  0.4474130000000  0.4307410000000  0.4606310000000 1.0
C      1  0.4559530000000  0.5894340000000  0.4634840000000 1.0
C      1  0.5999440000000  0.4954060000000  0.4608220000000 1.0
C      1  0.4912010000000  0.5394900000000  0.4737800000000 1.0
C      1  0.5448790000000  0.4856570000000  0.4819680000000 1.0
C      1  0.4707450000000  0.4771310000000  0.4771030000000 1.0
C      1  0.5277060000000  0.4218920000000  0.4163570000000 1.0
C      1  0.4147180000000  0.5197340000000  0.4151650000000 1.0
C      1  0.5484130000000  0.5521440000000  0.4199440000000 1.0
C      1  0.4560980000000  0.4111990000000  0.5452820000000 1.0
C      1  0.4414380000000  0.5824490000000  0.5391010000000 1.0
C      1  0.5980710000000  0.5072920000000  0.5419510000000 1.0
C      1  0.4296700000000  0.4547820000000  0.4994750000000 1.0
C      1  0.4998470000000  0.5840770000000  0.4883790000000 1.0
C      1  0.5820120000000  0.4519300000000  0.4913690000000 1.0
C      1  0.5716950000000  0.5501410000000  0.4373040000000 1.0
C      1  0.5092470000000  0.4157620000000  0.4369830000000 1.0
C      1  0.4193390000000  0.5380320000000  0.4359670000000 1.0
C      1  0.5270060000000  0.5111370000000  0.4020710000000 1.0
C      1  0.4948600000000  0.4811460000000  0.4249690000000 1.0
C      1  0.4773780000000  0.5172210000000  0.3976370000000 1.0
C      1  0.5670220000000  0.4957900000000  0.5200140000000 1.0
C      1  0.4576150000000  0.4555920000000  0.5279860000000 1.0
C      1  0.4775490000000  0.5509960000000  0.5220400000000 1.0
C      1  0.5331310000000  0.5449890000000  0.5474770000000 1.0
C      1  0.5164770000000  0.4430050000000  0.5489370000000 1.0
C      1  0.4353750000000  0.5220210000000  0.5496890000000 1.0
C      1  0.4065130000000  0.4869220000000  0.4961860000000 1.0
C      1  0.5418690000000  0.6056560000000  0.4963970000000 1.0
C      1  0.5585510000000  0.4099730000000  0.4950650000000 1.0
C      1  0.4895010000000  0.5981160000000  0.4297840000000 1.0
C      1  0.6074110000000  0.4665720000000  0.4209900000000 1.0
C      1  0.4251920000000  0.4439670000000  0.4301730000000 1.0
C      1  0.5508230000000  0.5183640000000  0.5984620000000 1.0
C      1  0.4956180000000  0.4448310000000  0.5980260000000 1.0
C      1  0.4575850000000  0.5315840000000  0.5974150000000 1.0
C      1  0.5589430000000  0.5004980000000  0.5507310000000 1.0
C      1  0.4655610000000  0.4580340000000  0.5542300000000 1.0
C      1  0.4718750000000  0.5436410000000  0.5485810000000 1.0
C      1  0.4836190000000  0.4341160000000  0.5054330000000 1.0
C      1  0.4411370000000  0.5576500000000  0.5077770000000 1.0
C      1  0.5653900000000  0.5276620000000  0.4989310000000 1.0
C      1  0.5621800000000  0.4869900000000  0.4241740000000 1.0
C      1  0.4651240000000  0.4697290000000  0.4382130000000 1.0
C      1  0.4784520000000  0.5401130000000  0.4208420000000 1.0
C      1  0.4672820000000  0.3982290000000  0.4991460000000 1.0
C      1  0.4134620000000  0.5837720000000  0.4964060000000 1.0
C      1  0.6035640000000  0.5266570000000  0.4977450000000 1.0
C      1  0.5042760000000  0.4965540000000  0.4530080000000 1.0
C      1  0.5018320000000  0.4984820000000  0.5970180000000 1.0
END
