TITL C-2782236-320-64 -0.00158093189706787 125000 -581.314710723412 0 0 101 (C1) n - 1
REM
REM in /home/nfs/bkarasulu/CARBON/AIRSS/Generating-Clusters/REBO/Higher-Symm/SD-CG/HFTN-CG
REM
REM
REM
REM
REM
REM ./C.cell (12c818d87b63d06a65506943cc24bca4)
REM
REM compiler GCC version 9.2.1 20190827 (Red Hat 9.2.1-1)
REM options -cpp -mtune=generic -march=x86-64 -g -O0 -fpre-include=/usr/include/finclude/math-vector-fortran.h
REM seed 520930859 1189545290 1031111992 -1295296763 -919412692 -533746092 -2056766680 2124964157 -1900831713 -625096683 2062695037 -349397235 -1223291820 405104483 -868253455 -1339348470 106417930 -889086297 -1122283602 686506497 1876076883 -771250297 975711503 489040383 -105383703 -328184043 480626266 2113018594 -623079703 487516636 -1005908978 -845025177 -1829220664
REM
CELL 1.54180   50.00000   50.00000   50.00000   90.00000   90.00000   90.00000
LATT -1
SFAC C  
C      1  0.5437700000000  0.5414660000000  0.4353060000000 1.0
C      1  0.5672110000000  0.5441290000000  0.5066460000000 1.0
C      1  0.5789880000000  0.5074540000000  0.6044970000000 1.0
C      1  0.4895030000000  0.5399460000000  0.5688680000000 1.0
C      1  0.4347470000000  0.5415510000000  0.5328080000000 1.0
C      1  0.4311140000000  0.5412380000000  0.4672040000000 1.0
C      1  0.4796730000000  0.5388370000000  0.4224930000000 1.0
C      1  0.4133900000000  0.4937920000000  0.5212490000000 1.0
C      1  0.4329810000000  0.4935580000000  0.4448170000000 1.0
C      1  0.4977240000000  0.4904970000000  0.4092890000000 1.0
C      1  0.5663140000000  0.4967030000000  0.4451560000000 1.0
C      1  0.5821070000000  0.4942870000000  0.5221170000000 1.0
C      1  0.5394660000000  0.4891650000000  0.5769280000000 1.0
C      1  0.4637700000000  0.4928880000000  0.5825600000000 1.0
C      1  0.5770460000000  0.4650350000000  0.5096450000000 1.0
C      1  0.5391780000000  0.4609360000000  0.5631850000000 1.0
C      1  0.4745250000000  0.4646050000000  0.5738300000000 1.0
C      1  0.4288670000000  0.4672470000000  0.5251150000000 1.0
C      1  0.4362730000000  0.4654340000000  0.4593400000000 1.0
C      1  0.4928310000000  0.4640140000000  0.4254370000000 1.0
C      1  0.5532370000000  0.4681700000000  0.4482150000000 1.0
C      1  0.5171140000000  0.4809400000000  0.4632890000000 1.0
C      1  0.5357710000000  0.4801800000000  0.4889040000000 1.0
C      1  0.5239970000000  0.4765900000000  0.5179460000000 1.0
C      1  0.4947450000000  0.4764160000000  0.5297350000000 1.0
C      1  0.4661630000000  0.4791900000000  0.5169820000000 1.0
C      1  0.4627230000000  0.4805470000000  0.4851170000000 1.0
C      1  0.4847030000000  0.4808090000000  0.4610490000000 1.0
C      1  0.5227230000000  0.6160590000000  0.5457310000000 1.0
C      1  0.4894440000000  0.5564860000000  0.5509540000000 1.0
C      1  0.4424490000000  0.5628100000000  0.5155920000000 1.0
C      1  0.4485640000000  0.5623350000000  0.4610930000000 1.0
C      1  0.4937760000000  0.5611140000000  0.4329260000000 1.0
C      1  0.5460810000000  0.5559110000000  0.4593090000000 1.0
C      1  0.5632590000000  0.5742790000000  0.5089760000000 1.0
C      1  0.5159860000000  0.5104900000000  0.5641310000000 1.0
C      1  0.4584330000000  0.5286400000000  0.5463600000000 1.0
C      1  0.4349800000000  0.5295990000000  0.4947400000000 1.0
C      1  0.4592100000000  0.5283260000000  0.4420210000000 1.0
C      1  0.5168130000000  0.5284690000000  0.4324590000000 1.0
C      1  0.5550310000000  0.5340700000000  0.4792980000000 1.0
C      1  0.5514370000000  0.5268410000000  0.5275760000000 1.0
C      1  0.5389280000000  0.5861600000000  0.5010160000000 1.0
C      1  0.5169180000000  0.5957890000000  0.5251190000000 1.0
C      1  0.4906540000000  0.5742060000000  0.5262350000000 1.0
C      1  0.4675140000000  0.5711510000000  0.5042830000000 1.0
C      1  0.4720740000000  0.5704020000000  0.4757750000000 1.0
C      1  0.4960390000000  0.5712390000000  0.4596910000000 1.0
C      1  0.5260580000000  0.5747630000000  0.4715540000000 1.0
C      1  0.4073940000000  0.5294830000000  0.5062790000000 1.0
C      1  0.4342100000000  0.5301700000000  0.4290040000000 1.0
C      1  0.5121220000000  0.5264060000000  0.4028810000000 1.0
C      1  0.5793390000000  0.5324350000000  0.4554400000000 1.0
C      1  0.5652120000000  0.5187240000000  0.5495790000000 1.0
C      1  0.5265940000000  0.5224330000000  0.5943180000000 1.0
C      1  0.4540510000000  0.5245330000000  0.5764110000000 1.0
C      1  0.4498380000000  0.4489630000000  0.4846390000000 1.0
C      1  0.4816470000000  0.4479890000000  0.4518040000000 1.0
C      1  0.5264130000000  0.4496070000000  0.4536850000000 1.0
C      1  0.5531620000000  0.4517450000000  0.4919560000000 1.0
C      1  0.5375660000000  0.4538980000000  0.5320870000000 1.0
C      1  0.4945320000000  0.4543260000000  0.5506160000000 1.0
C      1  0.4553540000000  0.4497230000000  0.5302570000000 1.0
C      1  0.5304870000000  0.4982520000000  0.4102610000000 1.0
C      1  0.5808180000000  0.5040360000000  0.4741400000000 1.0
C      1  0.5806480000000  0.4904350000000  0.5549020000000 1.0
C      1  0.5135850000000  0.4911760000000  0.5986930000000 1.0
C      1  0.4362330000000  0.4999590000000  0.5632090000000 1.0
C      1  0.4091670000000  0.4998090000000  0.4886440000000 1.0
C      1  0.4524540000000  0.4948370000000  0.4214700000000 1.0
C      1  0.4744040000000  0.5107010000000  0.5271650000000 1.0
C      1  0.4607360000000  0.5127250000000  0.4960780000000 1.0
C      1  0.4744930000000  0.5129630000000  0.4649800000000 1.0
C      1  0.5078400000000  0.5132490000000  0.4583210000000 1.0
C      1  0.5322080000000  0.5128680000000  0.4820550000000 1.0
C      1  0.5295560000000  0.5100750000000  0.5146560000000 1.0
C      1  0.5060750000000  0.5070990000000  0.5361800000000 1.0
C      1  0.5728380000000  0.4725790000000  0.4759710000000 1.0
C      1  0.5669440000000  0.4634660000000  0.5423950000000 1.0
C      1  0.5087110000000  0.4640010000000  0.5787780000000 1.0
C      1  0.4464490000000  0.4699350000000  0.5549780000000 1.0
C      1  0.4245260000000  0.4702700000000  0.4913280000000 1.0
C      1  0.4593880000000  0.4655810000000  0.4342540000000 1.0
C      1  0.5266350000000  0.4694260000000  0.4263280000000 1.0
C      1  0.4970570000000  0.4256390000000  0.5371550000000 1.0
C      1  0.4698570000000  0.4260100000000  0.5205700000000 1.0
C      1  0.4694280000000  0.4277340000000  0.4919490000000 1.0
C      1  0.4895460000000  0.4280120000000  0.4722460000000 1.0
C      1  0.5177460000000  0.4282460000000  0.4724330000000 1.0
C      1  0.5367020000000  0.4274380000000  0.4936860000000 1.0
C      1  0.5273740000000  0.4243280000000  0.5239300000000 1.0
C      1  0.5679170000000  0.4975680000000  0.5830480000000 1.0
C      1  0.4895640000000  0.5113170000000  0.5859830000000 1.0
C      1  0.4219900000000  0.5136610000000  0.5398970000000 1.0
C      1  0.4204810000000  0.5122990000000  0.4618910000000 1.0
C      1  0.4758440000000  0.5088330000000  0.4114940000000 1.0
C      1  0.5532300000000  0.5134440000000  0.4263290000000 1.0
C      1  0.5799530000000  0.5136310000000  0.5029480000000 1.0
C      1  0.4972280000000  0.4617840000000  0.4922210000000 1.0
C      1  0.5055780000000  0.5808470000000  0.4971520000000 1.0
C      1  0.5035200000000  0.4435410000000  0.5087220000000 1.0
END
