TITL C-2782231-7322-195 0.000980890990957515 125000 -569.012099433858 0 0 98 (C1) n - 1
REM
REM in /home/nfs/bkarasulu/CARBON/AIRSS/Generating-Clusters/REBO/Higher-Symm/SD-CG/HFTN-CG
REM
REM
REM
REM
REM
REM ./C.cell (12c818d87b63d06a65506943cc24bca4)
REM
REM compiler GCC version 9.2.1 20190827 (Red Hat 9.2.1-1)
REM options -cpp -mtune=generic -march=x86-64 -g -O0 -fpre-include=/usr/include/finclude/math-vector-fortran.h
REM seed 2030942699 -734291776 840033076 434472691 1196365769 -925883081 -1445503546 -1580479346 -861198961 -157481120 -570515905 237716383 1444713491 -1196084758 332372412 -100509433 -1962390333 351479672 1756313501 -6382790 216698433 -402688923 59781059 1520008748 -1831639443 1127514792 803545640 -1185891813 508313832 -1174960813 1493813552 -1861266706 1445444157
REM
CELL 1.54180   50.00000   50.00000   50.00000   90.00000   90.00000   90.00000
LATT -1
SFAC C  
C      1  0.4779020000000  0.4025650000000  0.5175480000000 1.0
C      1  0.5960930000000  0.5256280000000  0.5182710000000 1.0
C      1  0.4227380000000  0.5651080000000  0.5206860000000 1.0
C      1  0.4199440000000  0.5188880000000  0.5360450000000 1.0
C      1  0.5329920000000  0.4206150000000  0.5365260000000 1.0
C      1  0.5558590000000  0.5628750000000  0.5360600000000 1.0
C      1  0.4765010000000  0.4206490000000  0.5397020000000 1.0
C      1  0.5793760000000  0.5146590000000  0.5387400000000 1.0
C      1  0.4438430000000  0.5576660000000  0.5376670000000 1.0
C      1  0.5914040000000  0.4717060000000  0.4860020000000 1.0
C      1  0.4722740000000  0.5917560000000  0.4809210000000 1.0
C      1  0.4256290000000  0.4397840000000  0.4858580000000 1.0
C      1  0.4797210000000  0.4751390000000  0.4792690000000 1.0
C      1  0.5264370000000  0.5043130000000  0.4760460000000 1.0
C      1  0.4822520000000  0.5267180000000  0.4730000000000 1.0
C      1  0.5270920000000  0.5182820000000  0.4268000000000 1.0
C      1  0.4703110000000  0.5134360000000  0.4286550000000 1.0
C      1  0.5066380000000  0.4709130000000  0.4245500000000 1.0
C      1  0.4966320000000  0.4109110000000  0.4973290000000 1.0
C      1  0.5801120000000  0.5369830000000  0.4969350000000 1.0
C      1  0.4216300000000  0.5523400000000  0.4935110000000 1.0
C      1  0.4760100000000  0.4394340000000  0.5632670000000 1.0
C      1  0.5604760000000  0.5068430000000  0.5620480000000 1.0
C      1  0.4628950000000  0.5475630000000  0.5596580000000 1.0
C      1  0.5450280000000  0.5278230000000  0.5718820000000 1.0
C      1  0.4554230000000  0.5231300000000  0.5710750000000 1.0
C      1  0.5019150000000  0.4446370000000  0.5727020000000 1.0
C      1  0.4981880000000  0.5200020000000  0.5652850000000 1.0
C      1  0.4838900000000  0.4899590000000  0.5657630000000 1.0
C      1  0.5172480000000  0.4918910000000  0.5657920000000 1.0
C      1  0.4975750000000  0.5512580000000  0.5171020000000 1.0
C      1  0.4661680000000  0.4575220000000  0.5279090000000 1.0
C      1  0.5451730000000  0.4790830000000  0.5174790000000 1.0
C      1  0.4193380000000  0.5190720000000  0.4582920000000 1.0
C      1  0.5114350000000  0.4343300000000  0.4587150000000 1.0
C      1  0.5554060000000  0.5501910000000  0.4597430000000 1.0
C      1  0.5777510000000  0.4655430000000  0.5361510000000 1.0
C      1  0.4763180000000  0.5806200000000  0.5337390000000 1.0
C      1  0.4287720000000  0.4496470000000  0.5400660000000 1.0
C      1  0.5230710000000  0.5052900000000  0.5376640000000 1.0
C      1  0.4835170000000  0.5198930000000  0.5370910000000 1.0
C      1  0.4909800000000  0.4766580000000  0.5378790000000 1.0
C      1  0.5158020000000  0.5453560000000  0.5684210000000 1.0
C      1  0.4534870000000  0.4887530000000  0.5707430000000 1.0
C      1  0.5297160000000  0.4639600000000  0.5682490000000 1.0
C      1  0.5392460000000  0.4312250000000  0.4543000000000 1.0
C      1  0.5440560000000  0.5765420000000  0.4609410000000 1.0
C      1  0.4069180000000  0.4949690000000  0.4655760000000 1.0
C      1  0.5063930000000  0.5289870000000  0.4520470000000 1.0
C      1  0.4690950000000  0.4923350000000  0.4557120000000 1.0
C      1  0.5158910000000  0.4841260000000  0.4546220000000 1.0
C      1  0.5284950000000  0.4318360000000  0.5606430000000 1.0
C      1  0.5456000000000  0.5573260000000  0.5603820000000 1.0
C      1  0.4299690000000  0.5092220000000  0.5589730000000 1.0
C      1  0.4232030000000  0.5475780000000  0.4656490000000 1.0
C      1  0.4926150000000  0.4140390000000  0.4695000000000 1.0
C      1  0.5787290000000  0.5364550000000  0.4685200000000 1.0
C      1  0.5331300000000  0.4559990000000  0.4967060000000 1.0
C      1  0.5232490000000  0.5521760000000  0.4988290000000 1.0
C      1  0.4384390000000  0.5057550000000  0.4907650000000 1.0
C      1  0.4628480000000  0.5456510000000  0.4342410000000 1.0
C      1  0.4898390000000  0.4435820000000  0.4261410000000 1.0
C      1  0.5598980000000  0.5160080000000  0.4269250000000 1.0
C      1  0.4408030000000  0.5586400000000  0.4463510000000 1.0
C      1  0.4757950000000  0.4221770000000  0.4457020000000 1.0
C      1  0.5830820000000  0.5158890000000  0.4493370000000 1.0
C      1  0.4973260000000  0.4449860000000  0.5300340000000 1.0
C      1  0.5497950000000  0.5128020000000  0.5241520000000 1.0
C      1  0.4656800000000  0.5393930000000  0.5207840000000 1.0
C      1  0.4359370000000  0.5285580000000  0.5112260000000 1.0
C      1  0.5182300000000  0.4321210000000  0.5106390000000 1.0
C      1  0.5510740000000  0.5434290000000  0.5118050000000 1.0
C      1  0.4574130000000  0.4608140000000  0.4976270000000 1.0
C      1  0.5480520000000  0.4924540000000  0.4899850000000 1.0
C      1  0.4823960000000  0.5538230000000  0.4874410000000 1.0
C      1  0.4305260000000  0.4466150000000  0.5136400000000 1.0
C      1  0.5910120000000  0.4679330000000  0.5128920000000 1.0
C      1  0.4706540000000  0.5792140000000  0.5074730000000 1.0
C      1  0.5210960000000  0.5752790000000  0.4759490000000 1.0
C      1  0.4255350000000  0.4794760000000  0.4824450000000 1.0
C      1  0.5530180000000  0.4485700000000  0.4720880000000 1.0
C      1  0.5362530000000  0.4855200000000  0.4291870000000 1.0
C      1  0.4975210000000  0.5321210000000  0.4204410000000 1.0
C      1  0.4746910000000  0.4797590000000  0.4263710000000 1.0
C      1  0.4924680000000  0.5565640000000  0.5503790000000 1.0
C      1  0.4521110000000  0.4604320000000  0.5589760000000 1.0
C      1  0.5518670000000  0.4785600000000  0.5509150000000 1.0
C      1  0.4612430000000  0.4528280000000  0.4427410000000 1.0
C      1  0.5674540000000  0.4863910000000  0.4428100000000 1.0
C      1  0.4891040000000  0.5612680000000  0.4360310000000 1.0
C      1  0.4929760000000  0.5748170000000  0.4626720000000 1.0
C      1  0.4447660000000  0.4580480000000  0.4657850000000 1.0
C      1  0.5729120000000  0.4670380000000  0.4653200000000 1.0
C      1  0.4527760000000  0.5180650000000  0.4649590000000 1.0
C      1  0.5083180000000  0.4609990000000  0.4740840000000 1.0
C      1  0.5304580000000  0.5356800000000  0.4715060000000 1.0
C      1  0.4965050000000  0.5014060000000  0.4887750000000 1.0
C      1  0.4986370000000  0.5000590000000  0.5178960000000 1.0
END
