TITL C-2782234-8014-275 0.00257732081055281 125000 -572.145281997456 0 0 98 (C1) n - 1
REM
REM in /home/nfs/bkarasulu/CARBON/AIRSS/Generating-Clusters/REBO/Higher-Symm/SD-CG/HFTN-CG
REM
REM
REM
REM
REM
REM ./C.cell (12c818d87b63d06a65506943cc24bca4)
REM
REM compiler GCC version 9.2.1 20190827 (Red Hat 9.2.1-1)
REM options -cpp -mtune=generic -march=x86-64 -g -O0 -fpre-include=/usr/include/finclude/math-vector-fortran.h
REM seed -728747116 -309150159 -1746270868 528739465 -1174931377 1201327122 1674408059 1248359604 -2135993408 2085938369 -913727671 -790359131 1599432098 1703302174 -2141608202 1475666165 -885784452 -121734303 849116927 -955314645 694764903 406564027 -674656935 -141249274 -571617967 791975407 1030592162 -1496974540 1404182561 -686809400 549465329 -1652652436 1462660132
REM
CELL 1.54180   50.00000   50.00000   50.00000   90.00000   90.00000   90.00000
LATT -1
SFAC C  
C      1  0.5386870000000  0.4783740000000  0.5099950000000 1.0
C      1  0.5275480000000  0.4821300000000  0.4525480000000 1.0
C      1  0.5357020000000  0.4485670000000  0.4928260000000 1.0
C      1  0.5358090000000  0.5235770000000  0.4293720000000 1.0
C      1  0.5223250000000  0.4353410000000  0.4365160000000 1.0
C      1  0.4714340000000  0.4676220000000  0.4537280000000 1.0
C      1  0.5335140000000  0.5008710000000  0.5340290000000 1.0
C      1  0.5073400000000  0.4228090000000  0.4579020000000 1.0
C      1  0.4983070000000  0.5764940000000  0.5058190000000 1.0
C      1  0.5273380000000  0.4632810000000  0.5740460000000 1.0
C      1  0.4857650000000  0.4305770000000  0.5076890000000 1.0
C      1  0.4806250000000  0.5532650000000  0.4061500000000 1.0
C      1  0.4902900000000  0.4640590000000  0.4758850000000 1.0
C      1  0.4856370000000  0.5092710000000  0.4961030000000 1.0
C      1  0.4779310000000  0.4943870000000  0.4387640000000 1.0
C      1  0.4782470000000  0.5617380000000  0.4555460000000 1.0
C      1  0.5067660000000  0.5750800000000  0.5462960000000 1.0
C      1  0.4357770000000  0.4707440000000  0.5103620000000 1.0
C      1  0.5747980000000  0.5297480000000  0.5251640000000 1.0
C      1  0.5355290000000  0.5089220000000  0.4809370000000 1.0
C      1  0.5141680000000  0.5149370000000  0.4126780000000 1.0
C      1  0.4366600000000  0.4433760000000  0.4907990000000 1.0
C      1  0.4384740000000  0.5392650000000  0.5533630000000 1.0
C      1  0.5514200000000  0.5803380000000  0.5286680000000 1.0
C      1  0.5673940000000  0.4389480000000  0.4553450000000 1.0
C      1  0.4535810000000  0.4357280000000  0.5185940000000 1.0
C      1  0.5780810000000  0.4733620000000  0.5239770000000 1.0
C      1  0.4894290000000  0.5496680000000  0.4853330000000 1.0
C      1  0.4526140000000  0.5024540000000  0.4213130000000 1.0
C      1  0.5391660000000  0.4411830000000  0.5240900000000 1.0
C      1  0.4792230000000  0.4690540000000  0.5825870000000 1.0
C      1  0.4684300000000  0.4587230000000  0.5299920000000 1.0
C      1  0.5254890000000  0.4945520000000  0.5873450000000 1.0
C      1  0.4864910000000  0.4705460000000  0.5063820000000 1.0
C      1  0.4856630000000  0.5645110000000  0.5702190000000 1.0
C      1  0.4607570000000  0.4914110000000  0.5086850000000 1.0
C      1  0.4647380000000  0.5525990000000  0.4294770000000 1.0
C      1  0.5502630000000  0.4291010000000  0.4363050000000 1.0
C      1  0.4783270000000  0.5373940000000  0.5140370000000 1.0
C      1  0.4259000000000  0.4986160000000  0.5267170000000 1.0
C      1  0.5358580000000  0.5327960000000  0.5334880000000 1.0
C      1  0.5115010000000  0.4612300000000  0.5217070000000 1.0
C      1  0.5169820000000  0.4888820000000  0.5548240000000 1.0
C      1  0.4432830000000  0.4850980000000  0.4564520000000 1.0
C      1  0.5623750000000  0.5543350000000  0.5363980000000 1.0
C      1  0.5545130000000  0.4514590000000  0.5664040000000 1.0
C      1  0.5084670000000  0.4901210000000  0.4795320000000 1.0
C      1  0.4470850000000  0.5141250000000  0.5754390000000 1.0
C      1  0.4433880000000  0.4724130000000  0.4256340000000 1.0
C      1  0.5027850000000  0.4899850000000  0.4221500000000 1.0
C      1  0.5608170000000  0.4504200000000  0.5396700000000 1.0
C      1  0.4471970000000  0.5306810000000  0.4315560000000 1.0
C      1  0.5083680000000  0.4392970000000  0.4836890000000 1.0
C      1  0.5373390000000  0.5487000000000  0.4437840000000 1.0
C      1  0.5425160000000  0.5465670000000  0.5030150000000 1.0
C      1  0.4824800000000  0.4096080000000  0.4586670000000 1.0
C      1  0.4564500000000  0.5705120000000  0.4778500000000 1.0
C      1  0.4544360000000  0.4457200000000  0.4369680000000 1.0
C      1  0.5464920000000  0.5011820000000  0.4433100000000 1.0
C      1  0.5119080000000  0.5611580000000  0.4505140000000 1.0
C      1  0.4788820000000  0.5606210000000  0.5368240000000 1.0
C      1  0.5252050000000  0.5642350000000  0.4926180000000 1.0
C      1  0.4994680000000  0.5348070000000  0.3991110000000 1.0
C      1  0.4658550000000  0.4806910000000  0.5468800000000 1.0
C      1  0.5630620000000  0.5017030000000  0.4796750000000 1.0
C      1  0.4824780000000  0.5159800000000  0.4637370000000 1.0
C      1  0.5737120000000  0.4767720000000  0.4907740000000 1.0
C      1  0.4418950000000  0.5529460000000  0.5241810000000 1.0
C      1  0.5626550000000  0.4532880000000  0.4788440000000 1.0
C      1  0.4993480000000  0.4350800000000  0.5388110000000 1.0
C      1  0.5135520000000  0.5432290000000  0.5512060000000 1.0
C      1  0.4629870000000  0.4231700000000  0.4830340000000 1.0
C      1  0.4889870000000  0.4964950000000  0.5502300000000 1.0
C      1  0.4195000000000  0.5029430000000  0.4943010000000 1.0
C      1  0.4414320000000  0.4932990000000  0.5530440000000 1.0
C      1  0.4877510000000  0.5243980000000  0.5505650000000 1.0
C      1  0.4497470000000  0.5148500000000  0.4591000000000 1.0
C      1  0.4326980000000  0.5250060000000  0.4816770000000 1.0
C      1  0.4256400000000  0.4733710000000  0.4785790000000 1.0
C      1  0.4972500000000  0.4542630000000  0.5668430000000 1.0
C      1  0.5621640000000  0.5019680000000  0.5195440000000 1.0
C      1  0.4996200000000  0.5120310000000  0.5915820000000 1.0
C      1  0.5712970000000  0.4858580000000  0.5548770000000 1.0
C      1  0.5122930000000  0.5290480000000  0.4740810000000 1.0
C      1  0.4746360000000  0.4978280000000  0.5875120000000 1.0
C      1  0.5036630000000  0.5391040000000  0.5838050000000 1.0
C      1  0.5246800000000  0.5869540000000  0.5252100000000 1.0
C      1  0.5629820000000  0.5507540000000  0.4578170000000 1.0
C      1  0.4669520000000  0.5385720000000  0.5679690000000 1.0
C      1  0.4498990000000  0.5209440000000  0.5175580000000 1.0
C      1  0.4387990000000  0.5499040000000  0.4917910000000 1.0
C      1  0.5553650000000  0.4917630000000  0.5725190000000 1.0
C      1  0.5167420000000  0.4634980000000  0.4309470000000 1.0
C      1  0.5675550000000  0.5484990000000  0.4897820000000 1.0
C      1  0.4644770000000  0.5744760000000  0.5097920000000 1.0
C      1  0.5130900000000  0.4088060000000  0.5466580000000 1.0
C      1  0.5788680000000  0.5246320000000  0.4721630000000 1.0
C      1  0.4549370000000  0.4213000000000  0.4497260000000 1.0
END
