TITL C-2782230-7391-1242 -0.00344950197113675 125000 -365.351545590366 0 0 63 (C1) n - 1
REM
REM in /home/nfs/bkarasulu/CARBON/AIRSS/Generating-Clusters/REBO/Higher-Symm/SD-CG/HFTN-CG
REM
REM
REM
REM
REM
REM ./C.cell (12c818d87b63d06a65506943cc24bca4)
REM
REM compiler GCC version 9.2.1 20190827 (Red Hat 9.2.1-1)
REM options -cpp -mtune=generic -march=x86-64 -g -O0 -fpre-include=/usr/include/finclude/math-vector-fortran.h
REM seed -1144680 1259519485 -1642016787 -1594775211 -1768992553 -1375645672 -1121048411 -64460187 -339421346 1926245148 -2066735518 842683770 887440509 -1615324934 1404940323 -1600787529 303526123 -153469945 -1110456090 696869132 -1852961171 944422316 -537024917 1583707520 585745818 -988022461 590751665 1786700321 1385853917 -456980015 -1098227472 44285201 -198618150
REM
CELL 1.54180   50.00000   50.00000   50.00000   90.00000   90.00000   90.00000
LATT -1
SFAC C  
C      1  0.5192840000000  0.5067080000000  0.5193760000000 1.0
C      1  0.4746000000000  0.5096900000000  0.4778210000000 1.0
C      1  0.5135990000000  0.4566650000000  0.5475770000000 1.0
C      1  0.4928480000000  0.4629350000000  0.4536750000000 1.0
C      1  0.4639010000000  0.4993940000000  0.5553870000000 1.0
C      1  0.5438970000000  0.5044260000000  0.4396630000000 1.0
C      1  0.5039850000000  0.4341340000000  0.5331400000000 1.0
C      1  0.5015610000000  0.4384390000000  0.4655200000000 1.0
C      1  0.4503570000000  0.5412700000000  0.4791680000000 1.0
C      1  0.5497250000000  0.5319110000000  0.5144660000000 1.0
C      1  0.4400520000000  0.4925700000000  0.5415430000000 1.0
C      1  0.5690650000000  0.4996460000000  0.4542900000000 1.0
C      1  0.5071990000000  0.5339020000000  0.4422590000000 1.0
C      1  0.4977120000000  0.5345340000000  0.5593890000000 1.0
C      1  0.5312950000000  0.4785340000000  0.5045490000000 1.0
C      1  0.4763810000000  0.4831720000000  0.4992970000000 1.0
C      1  0.5378140000000  0.4264370000000  0.4984610000000 1.0
C      1  0.4676530000000  0.4278530000000  0.4989260000000 1.0
C      1  0.5602180000000  0.4637410000000  0.5277360000000 1.0
C      1  0.4476200000000  0.4696460000000  0.4750460000000 1.0
C      1  0.5483220000000  0.5406130000000  0.4689270000000 1.0
C      1  0.4602820000000  0.5326410000000  0.5234990000000 1.0
C      1  0.4490310000000  0.4430400000000  0.4847940000000 1.0
C      1  0.5570720000000  0.4386090000000  0.5147090000000 1.0
C      1  0.5340390000000  0.5448430000000  0.4940360000000 1.0
C      1  0.4692320000000  0.5457050000000  0.5002430000000 1.0
C      1  0.5304640000000  0.4393980000000  0.4728820000000 1.0
C      1  0.4756760000000  0.4381860000000  0.5251730000000 1.0
C      1  0.4715390000000  0.5264010000000  0.5488940000000 1.0
C      1  0.5351370000000  0.5321430000000  0.4441410000000 1.0
C      1  0.4361700000000  0.4644520000000  0.5365360000000 1.0
C      1  0.5682010000000  0.4734180000000  0.4654910000000 1.0
C      1  0.5716460000000  0.4870970000000  0.5148740000000 1.0
C      1  0.4362720000000  0.4918330000000  0.4883450000000 1.0
C      1  0.5706760000000  0.5209510000000  0.4744200000000 1.0
C      1  0.4368790000000  0.5102700000000  0.5172200000000 1.0
C      1  0.5395540000000  0.4698140000000  0.5470380000000 1.0
C      1  0.4667740000000  0.4752870000000  0.4540500000000 1.0
C      1  0.5690810000000  0.5131810000000  0.5029560000000 1.0
C      1  0.4300130000000  0.5233500000000  0.4876420000000 1.0
C      1  0.4640340000000  0.5018510000000  0.4406720000000 1.0
C      1  0.5370490000000  0.4972880000000  0.5535880000000 1.0
C      1  0.5402660000000  0.5269520000000  0.5421310000000 1.0
C      1  0.4622710000000  0.5326480000000  0.4526830000000 1.0
C      1  0.4888430000000  0.4781330000000  0.5516810000000 1.0
C      1  0.5193310000000  0.4838790000000  0.4494480000000 1.0
C      1  0.5226870000000  0.5467990000000  0.5564370000000 1.0
C      1  0.4847230000000  0.5499830000000  0.4414510000000 1.0
C      1  0.5054070000000  0.5051560000000  0.5494350000000 1.0
C      1  0.4957620000000  0.5065910000000  0.4510630000000 1.0
C      1  0.4683090000000  0.4678050000000  0.5278860000000 1.0
C      1  0.5385620000000  0.4683480000000  0.4728810000000 1.0
C      1  0.5029310000000  0.4264040000000  0.4986180000000 1.0
C      1  0.5019110000000  0.5541470000000  0.4965590000000 1.0
C      1  0.5021720000000  0.4605870000000  0.5017240000000 1.0
C      1  0.5008580000000  0.5217020000000  0.4960440000000 1.0
C      1  0.5026910000000  0.6639120000000  0.4921410000000 1.0
C      1  0.5021290000000  0.5847500000000  0.4953270000000 1.0
C      1  0.5006900000000  0.3679850000000  0.4952330000000 1.0
C      1  0.5016660000000  0.3934430000000  0.4967080000000 1.0
C      1  0.5073140000000  0.4898850000000  0.4855750000000 1.0
C      1  0.5023160000000  0.6111180000000  0.4942660000000 1.0
C      1  0.5025050000000  0.6377270000000  0.4931950000000 1.0
END
