TITL C-2782230-7391-1069 -0.00320873650521406 125000 -495.817584256101 0 0 85 (C5) n - 1
REM
REM in /home/nfs/bkarasulu/CARBON/AIRSS/Generating-Clusters/REBO/Higher-Symm/SD-CG/HFTN-CG
REM
REM
REM
REM
REM
REM ./C.cell (12c818d87b63d06a65506943cc24bca4)
REM
REM compiler GCC version 9.2.1 20190827 (Red Hat 9.2.1-1)
REM options -cpp -mtune=generic -march=x86-64 -g -O0 -fpre-include=/usr/include/finclude/math-vector-fortran.h
REM seed -1112374104 -1445533462 -874754189 -1243448889 1368926087 -1937490308 1454549925 -705958715 -739513271 1231774054 520674296 1851336616 2145778205 529069572 -1273154623 -470246182 2012383690 1557382636 818697026 -885724249 -1608492049 835157920 1451318204 -824191651 579937895 -502853237 2013914244 813538212 1956593635 -1765338235 1119363707 -363501940 1775787328
REM
CELL 1.54180   50.00000   50.00000   50.00000   90.00000   90.00000   90.00000
LATT -1
SFAC C  
C      1  0.5280200000000  0.5424380000000  0.5734630000000 1.0
C      1  0.5785270000000  0.5424370000000  0.4960520000000 1.0
C      1  0.5205120000000  0.5424340000000  0.4240950000000 1.0
C      1  0.4341500000000  0.5424340000000  0.4570350000000 1.0
C      1  0.4387900000000  0.5424370000000  0.5493490000000 1.0
C      1  0.4683660000000  0.5408930000000  0.5638920000000 1.0
C      1  0.4294590000000  0.5408910000000  0.4896580000000 1.0
C      1  0.4880360000000  0.5408900000000  0.4297150000000 1.0
C      1  0.5631470000000  0.5408920000000  0.4669020000000 1.0
C      1  0.5509900000000  0.5408940000000  0.5498280000000 1.0
C      1  0.4607190000000  0.5595160000000  0.5294910000000 1.0
C      1  0.5159110000000  0.5595170000000  0.5464700000000 1.0
C      1  0.5491140000000  0.5595160000000  0.4992270000000 1.0
C      1  0.5144430000000  0.5595150000000  0.4530500000000 1.0
C      1  0.4598120000000  0.5595150000000  0.4717540000000 1.0
C      1  0.5382310000000  0.5602270000000  0.5248430000000 1.0
C      1  0.4881850000000  0.5602270000000  0.5440360000000 1.0
C      1  0.4544670000000  0.5602250000000  0.5023710000000 1.0
C      1  0.4836730000000  0.5602240000000  0.4574270000000 1.0
C      1  0.5354420000000  0.5602250000000  0.4713160000000 1.0
C      1  0.5297000000000  0.4886210000000  0.5308950000000 1.0
C      1  0.5385600000000  0.4886200000000  0.4813010000000 1.0
C      1  0.4941320000000  0.4886190000000  0.4575490000000 1.0
C      1  0.4578130000000  0.4886190000000  0.4924630000000 1.0
C      1  0.4797950000000  0.4886210000000  0.5377940000000 1.0
C      1  0.4571740000000  0.4864670000000  0.5212110000000 1.0
C      1  0.4665940000000  0.4864660000000  0.4658250000000 1.0
C      1  0.5221800000000  0.4864660000000  0.4576680000000 1.0
C      1  0.5471140000000  0.4864680000000  0.5080140000000 1.0
C      1  0.5069380000000  0.4864680000000  0.5472850000000 1.0
C      1  0.4528320000000  0.5203930000000  0.5013140000000 1.0
C      1  0.4866740000000  0.5203950000000  0.5452650000000 1.0
C      1  0.5389320000000  0.5203950000000  0.5266610000000 1.0
C      1  0.5373870000000  0.5203930000000  0.4712120000000 1.0
C      1  0.4841740000000  0.5203920000000  0.4555460000000 1.0
C      1  0.5546490000000  0.5199470000000  0.4998270000000 1.0
C      1  0.5170520000000  0.5199480000000  0.5519210000000 1.0
C      1  0.4558890000000  0.5199470000000  0.5322610000000 1.0
C      1  0.4556860000000  0.5199450000000  0.4680170000000 1.0
C      1  0.5167230000000  0.5199450000000  0.4479720000000 1.0
C      1  0.5951850000000  0.5155900000000  0.5027370000000 1.0
C      1  0.5320170000000  0.5155870000000  0.4103190000000 1.0
C      1  0.4246020000000  0.5155870000000  0.4418370000000 1.0
C      1  0.4213840000000  0.5155900000000  0.5537340000000 1.0
C      1  0.5268110000000  0.5155920000000  0.5913720000000 1.0
C      1  0.4133460000000  0.5145420000000  0.5014910000000 1.0
C      1  0.4718040000000  0.5145400000000  0.4180480000000 1.0
C      1  0.5692270000000  0.5145420000000  0.4478590000000 1.0
C      1  0.5709810000000  0.5145450000000  0.5497260000000 1.0
C      1  0.4746410000000  0.5145450000000  0.5828730000000 1.0
C      1  0.4179870000000  0.4885730000000  0.5132290000000 1.0
C      1  0.4872370000000  0.4885750000000  0.5820880000000 1.0
C      1  0.5741260000000  0.4885750000000  0.5375050000000 1.0
C      1  0.5585750000000  0.4885720000000  0.4410920000000 1.0
C      1  0.4620760000000  0.4885710000000  0.4260890000000 1.0
C      1  0.5867410000000  0.4891790000000  0.5102650000000 1.0
C      1  0.5170420000000  0.4891810000000  0.5856680000000 1.0
C      1  0.4237920000000  0.4891790000000  0.5426810000000 1.0
C      1  0.4358590000000  0.4891760000000  0.4407110000000 1.0
C      1  0.5365670000000  0.4891760000000  0.4206770000000 1.0
C      1  0.4777340000000  0.4462830000000  0.4492670000000 1.0
C      1  0.4448680000000  0.4462840000000  0.5055000000000 1.0
C      1  0.4881930000000  0.4462860000000  0.5541350000000 1.0
C      1  0.5478360000000  0.4462860000000  0.5279590000000 1.0
C      1  0.5413710000000  0.4462840000000  0.4631470000000 1.0
C      1  0.5118320000000  0.4494950000000  0.4466770000000 1.0
C      1  0.5543710000000  0.4494970000000  0.4947760000000 1.0
C      1  0.5217720000000  0.4494980000000  0.5500960000000 1.0
C      1  0.4590860000000  0.4494970000000  0.5361870000000 1.0
C      1  0.4529420000000  0.4494950000000  0.4722710000000 1.0
C      1  0.4429790000000  0.4709620000000  0.5549520000000 1.0
C      1  0.5346410000000  0.4709630000000  0.5712120000000 1.0
C      1  0.5784310000000  0.4709610000000  0.4890610000000 1.0
C      1  0.5138320000000  0.4709590000000  0.4220280000000 1.0
C      1  0.4301180000000  0.4709590000000  0.4627510000000 1.0
C      1  0.5577300000000  0.4668260000000  0.5488370000000 1.0
C      1  0.4713940000000  0.4668260000000  0.5699970000000 1.0
C      1  0.4245900000000  0.4668240000000  0.4944240000000 1.0
C      1  0.4820010000000  0.4668230000000  0.4265590000000 1.0
C      1  0.5642860000000  0.4668240000000  0.4601880000000 1.0
C      1  0.5235210000000  0.4553770000000  0.4976650000000 1.0
C      1  0.4795990000000  0.4553760000000  0.4880670000000 1.0
C      1  0.5094910000000  0.4553770000000  0.5216480000000 1.0
C      1  0.4823460000000  0.4553770000000  0.5157160000000 1.0
C      1  0.5050460000000  0.4553760000000  0.4769100000000 1.0
END
