TITL C-2782227-3064-601 0.128572191172031 125000 -286.476044022538 0 0 49 (C1) n - 1
REM
REM in /home/nfs/bkarasulu/CARBON/AIRSS/Generating-Clusters/REBO/Higher-Symm/SD-CG/HFTN-CG
REM
REM
REM
REM
REM
REM ./C.cell (12c818d87b63d06a65506943cc24bca4)
REM
REM compiler GCC version 9.2.1 20190827 (Red Hat 9.2.1-1)
REM options -cpp -mtune=generic -march=x86-64 -g -O0 -fpre-include=/usr/include/finclude/math-vector-fortran.h
REM seed 672505845 963360003 1063174626 952191717 -866590448 -1446382190 1239201354 -350119753 -2025637209 583668751 -198871826 -299100778 1316954293 2103253525 1603222188 105267675 -853973987 305146625 400446334 -1241548492 1968442929 364005368 804889461 1706795710 477115177 1433277000 1635269750 625444896 1565478762 -1479249789 -1005916967 1986803813 -910417946
REM
CELL 1.54180   50.00000   50.00000   50.00000   90.00000   90.00000   90.00000
LATT -1
SFAC C  
C      1  0.5268810000000  0.5504100000000  0.4540160000000 1.0
C      1  0.4836800000000  0.4362810000000  0.4575980000000 1.0
C      1  0.5181200000000  0.5123390000000  0.4209690000000 1.0
C      1  0.4923600000000  0.4947360000000  0.4301540000000 1.0
C      1  0.4667040000000  0.5534750000000  0.5135840000000 1.0
C      1  0.4982370000000  0.5165870000000  0.4757610000000 1.0
C      1  0.4841300000000  0.5121650000000  0.5584570000000 1.0
C      1  0.4512780000000  0.4300300000000  0.5467880000000 1.0
C      1  0.4693440000000  0.4558570000000  0.4426840000000 1.0
C      1  0.5249610000000  0.4946150000000  0.5408030000000 1.0
C      1  0.4304500000000  0.5159990000000  0.5114740000000 1.0
C      1  0.4840030000000  0.5030710000000  0.5096900000000 1.0
C      1  0.4963630000000  0.4969030000000  0.5364960000000 1.0
C      1  0.4560340000000  0.4396850000000  0.4974240000000 1.0
C      1  0.5481720000000  0.4738710000000  0.4998780000000 1.0
C      1  0.5469300000000  0.5064580000000  0.4652720000000 1.0
C      1  0.4669810000000  0.4233820000000  0.4769210000000 1.0
C      1  0.4741960000000  0.4831400000000  0.4482040000000 1.0
C      1  0.4791050000000  0.4905070000000  0.4775370000000 1.0
C      1  0.5628700000000  0.5158890000000  0.5238020000000 1.0
C      1  0.5488940000000  0.5339410000000  0.5425440000000 1.0
C      1  0.4534240000000  0.5678180000000  0.4930070000000 1.0
C      1  0.4430120000000  0.4304850000000  0.5206250000000 1.0
C      1  0.5208750000000  0.4804550000000  0.4304880000000 1.0
C      1  0.4714490000000  0.4663150000000  0.5001780000000 1.0
C      1  0.4754290000000  0.4391730000000  0.5561920000000 1.0
C      1  0.5775840000000  0.5232320000000  0.5008620000000 1.0
C      1  0.5256160000000  0.5672480000000  0.4765400000000 1.0
C      1  0.4477650000000  0.5355010000000  0.5289900000000 1.0
C      1  0.5359640000000  0.5561990000000  0.5311920000000 1.0
C      1  0.5313570000000  0.5174150000000  0.5601520000000 1.0
C      1  0.5227420000000  0.5215970000000  0.4624040000000 1.0
C      1  0.5271180000000  0.4644250000000  0.4537560000000 1.0
C      1  0.4971840000000  0.4558140000000  0.5136000000000 1.0
C      1  0.5702630000000  0.5195970000000  0.4747010000000 1.0
C      1  0.5061980000000  0.5235970000000  0.5734800000000 1.0
C      1  0.5436750000000  0.4787480000000  0.4723130000000 1.0
C      1  0.4818480000000  0.5730300000000  0.5336520000000 1.0
C      1  0.4532870000000  0.4915070000000  0.5083760000000 1.0
C      1  0.4566220000000  0.5187900000000  0.5542610000000 1.0
C      1  0.5472050000000  0.4909000000000  0.5224750000000 1.0
C      1  0.4912110000000  0.5354660000000  0.5016000000000 1.0
C      1  0.5142170000000  0.4431670000000  0.4948100000000 1.0
C      1  0.5104600000000  0.4443550000000  0.4662810000000 1.0
C      1  0.4954120000000  0.4504300000000  0.5411480000000 1.0
C      1  0.4390990000000  0.4979730000000  0.5382880000000 1.0
C      1  0.5164600000000  0.5555440000000  0.5036610000000 1.0
C      1  0.5088870000000  0.5731560000000  0.5304900000000 1.0
C      1  0.5259430000000  0.5387240000000  0.4264220000000 1.0
END
