TITL C-2782226-7400-1059 -0.422879212519253 125000 -1009.00010742878 0 0 174 (C1) n - 1
REM
REM in /home/nfs/bkarasulu/CARBON/AIRSS/Generating-Clusters/REBO/Higher-Symm/SD-CG/HFTN-CG
REM
REM
REM
REM
REM
REM ./C.cell (12c818d87b63d06a65506943cc24bca4)
REM
REM compiler GCC version 9.2.1 20190827 (Red Hat 9.2.1-1)
REM options -cpp -mtune=generic -march=x86-64 -g -O0 -fpre-include=/usr/include/finclude/math-vector-fortran.h
REM seed -1154994938 -1045495772 617061253 1932745334 -1124729987 1643984640 -1231182883 1899625192 778660813 1149450444 1222352381 -1332670113 1483018335 -102687901 1074463154 -787209837 1112055971 -1106319354 -644460796 1143283666 640143204 -2092782835 -1699992032 250526626 1770460249 473746421 1161878124 864885494 -312536547 1348387380 1394254794 -1414432810 -788694270
REM
CELL 1.54180   50.00000   50.00000   50.00000   90.00000   90.00000   90.00000
LATT -1
SFAC C  
C      1  0.5435700000000  0.5573990000000  0.5177570000000 1.0
C      1  0.5285630000000  0.4287520000000  0.5165500000000 1.0
C      1  0.4195720000000  0.5063220000000  0.5141520000000 1.0
C      1  0.4391960000000  0.5358390000000  0.4276970000000 1.0
C      1  0.5541020000000  0.5336170000000  0.4269610000000 1.0
C      1  0.5044430000000  0.4380920000000  0.4282810000000 1.0
C      1  0.5709030000000  0.5783640000000  0.4803080000000 1.0
C      1  0.5338110000000  0.4027980000000  0.4836750000000 1.0
C      1  0.3943350000000  0.5172750000000  0.4810520000000 1.0
C      1  0.5023730000000  0.6064490000000  0.4567030000000 1.0
C      1  0.5960270000000  0.4435190000000  0.4575430000000 1.0
C      1  0.4052430000000  0.4371990000000  0.4562390000000 1.0
C      1  0.4338200000000  0.5194850000000  0.4860420000000 1.0
C      1  0.5580320000000  0.5449330000000  0.4975940000000 1.0
C      1  0.5098800000000  0.4338350000000  0.4892160000000 1.0
C      1  0.4400640000000  0.5595460000000  0.5561850000000 1.0
C      1  0.5883650000000  0.5107100000000  0.5417850000000 1.0
C      1  0.4668250000000  0.4208800000000  0.5430900000000 1.0
C      1  0.5358870000000  0.4120570000000  0.4573320000000 1.0
C      1  0.4021410000000  0.5172720000000  0.4530140000000 1.0
C      1  0.5635600000000  0.5747860000000  0.4526340000000 1.0
C      1  0.4935430000000  0.6010220000000  0.4934490000000 1.0
C      1  0.5955920000000  0.4576280000000  0.4928750000000 1.0
C      1  0.4147460000000  0.4389840000000  0.4931330000000 1.0
C      1  0.4385690000000  0.4873540000000  0.5321210000000 1.0
C      1  0.5172670000000  0.5562880000000  0.5360090000000 1.0
C      1  0.5388110000000  0.4531660000000  0.5316420000000 1.0
C      1  0.4376070000000  0.5324190000000  0.5753930000000 1.0
C      1  0.5613440000000  0.5562850000000  0.5922800000000 1.0
C      1  0.5142620000000  0.4339290000000  0.5849100000000 1.0
C      1  0.4643980000000  0.5679010000000  0.5369470000000 1.0
C      1  0.5808360000000  0.4840940000000  0.5276980000000 1.0
C      1  0.4459960000000  0.4401730000000  0.5286440000000 1.0
C      1  0.4521540000000  0.4308310000000  0.4396980000000 1.0
C      1  0.4710980000000  0.5773640000000  0.4333570000000 1.0
C      1  0.5830670000000  0.4904280000000  0.4394810000000 1.0
C      1  0.4148440000000  0.4356940000000  0.5329250000000 1.0
C      1  0.4856680000000  0.5938450000000  0.5421800000000 1.0
C      1  0.6036870000000  0.4621630000000  0.5317540000000 1.0
C      1  0.5286000000000  0.4204720000000  0.5640490000000 1.0
C      1  0.4147970000000  0.5149440000000  0.5649260000000 1.0
C      1  0.5613390000000  0.5652970000000  0.5653230000000 1.0
C      1  0.4970140000000  0.5379330000000  0.4420440000000 1.0
C      1  0.5304590000000  0.4913230000000  0.4420750000000 1.0
C      1  0.4657390000000  0.4805790000000  0.4435900000000 1.0
C      1  0.4406410000000  0.4873960000000  0.4861220000000 1.0
C      1  0.4990830000000  0.5544140000000  0.4909200000000 1.0
C      1  0.5473400000000  0.4691550000000  0.4844260000000 1.0
C      1  0.3943460000000  0.4616480000000  0.5085690000000 1.0
C      1  0.5225230000000  0.6022150000000  0.5117070000000 1.0
C      1  0.5827240000000  0.4335140000000  0.5137650000000 1.0
C      1  0.5153910000000  0.4139760000000  0.5394560000000 1.0
C      1  0.4297890000000  0.5260600000000  0.5369550000000 1.0
C      1  0.5642420000000  0.5417210000000  0.5479780000000 1.0
C      1  0.5576730000000  0.5061680000000  0.5834920000000 1.0
C      1  0.4687640000000  0.4520720000000  0.5839880000000 1.0
C      1  0.4773490000000  0.5510130000000  0.5901420000000 1.0
C      1  0.4251420000000  0.4708650000000  0.5587120000000 1.0
C      1  0.5187120000000  0.5712850000000  0.5665420000000 1.0
C      1  0.5637760000000  0.4580450000000  0.5667300000000 1.0
C      1  0.4486800000000  0.4709580000000  0.5789470000000 1.0
C      1  0.5068650000000  0.5481030000000  0.5873300000000 1.0
C      1  0.5447220000000  0.4800220000000  0.5753420000000 1.0
C      1  0.4930640000000  0.5614430000000  0.5201390000000 1.0
C      1  0.5547540000000  0.4702460000000  0.5163270000000 1.0
C      1  0.4494860000000  0.4678480000000  0.5118470000000 1.0
C      1  0.6042530000000  0.5352500000000  0.4521680000000 1.0
C      1  0.4784400000000  0.3910020000000  0.4553990000000 1.0
C      1  0.4165020000000  0.5714700000000  0.4586380000000 1.0
C      1  0.3901730000000  0.4909670000000  0.4915360000000 1.0
C      1  0.5491930000000  0.5895090000000  0.4947550000000 1.0
C      1  0.5550130000000  0.4173220000000  0.5023520000000 1.0
C      1  0.4831210000000  0.4736740000000  0.4018820000000 1.0
C      1  0.4851800000000  0.5262980000000  0.4058650000000 1.0
C      1  0.5336950000000  0.5038670000000  0.4022830000000 1.0
C      1  0.4612230000000  0.5224770000000  0.5409000000000 1.0
C      1  0.5409870000000  0.5227430000000  0.5458340000000 1.0
C      1  0.4958570000000  0.4610270000000  0.5482450000000 1.0
C      1  0.5555390000000  0.4284680000000  0.5610060000000 1.0
C      1  0.4017710000000  0.4980180000000  0.5420750000000 1.0
C      1  0.5485090000000  0.5796950000000  0.5420250000000 1.0
C      1  0.4709060000000  0.6010990000000  0.5159750000000 1.0
C      1  0.6149790000000  0.4807480000000  0.5074690000000 1.0
C      1  0.4237910000000  0.4128390000000  0.5101710000000 1.0
C      1  0.4628700000000  0.5266350000000  0.5881240000000 1.0
C      1  0.5498810000000  0.5303850000000  0.5984840000000 1.0
C      1  0.4977050000000  0.4605870000000  0.5881050000000 1.0
C      1  0.6038940000000  0.5079120000000  0.5053740000000 1.0
C      1  0.4519110000000  0.4074910000000  0.5065710000000 1.0
C      1  0.4419090000000  0.5903080000000  0.5082730000000 1.0
C      1  0.5036430000000  0.4024370000000  0.4996670000000 1.0
C      1  0.4107840000000  0.5414960000000  0.4983670000000 1.0
C      1  0.5887230000000  0.5550470000000  0.4978480000000 1.0
C      1  0.4900300000000  0.5218960000000  0.4854210000000 1.0
C      1  0.5273860000000  0.4915540000000  0.4945170000000 1.0
C      1  0.4867230000000  0.4815900000000  0.4913940000000 1.0
C      1  0.4760240000000  0.4974400000000  0.5136270000000 1.0
C      1  0.5071730000000  0.5222360000000  0.5131310000000 1.0
C      1  0.5135570000000  0.4835680000000  0.5208850000000 1.0
C      1  0.4243540000000  0.5558200000000  0.5261810000000 1.0
C      1  0.5855570000000  0.5377640000000  0.5270050000000 1.0
C      1  0.4882620000000  0.4081600000000  0.5298020000000 1.0
C      1  0.4525210000000  0.5355510000000  0.4677840000000 1.0
C      1  0.5555000000000  0.5274610000000  0.4746300000000 1.0
C      1  0.4953730000000  0.4412260000000  0.4681460000000 1.0
C      1  0.6079680000000  0.5337200000000  0.4850490000000 1.0
C      1  0.4753550000000  0.3944480000000  0.4876550000000 1.0
C      1  0.4170180000000  0.5724070000000  0.4926290000000 1.0
C      1  0.5158590000000  0.5247590000000  0.4162250000000 1.0
C      1  0.5101730000000  0.4852110000000  0.4149150000000 1.0
C      1  0.4733550000000  0.5005170000000  0.4164750000000 1.0
C      1  0.5697230000000  0.5053180000000  0.5047160000000 1.0
C      1  0.4703550000000  0.4363870000000  0.5061750000000 1.0
C      1  0.4563100000000  0.5591420000000  0.5054790000000 1.0
C      1  0.5826250000000  0.4405560000000  0.5443480000000 1.0
C      1  0.3987720000000  0.4644220000000  0.5394050000000 1.0
C      1  0.5183400000000  0.5956060000000  0.5426460000000 1.0
C      1  0.4921970000000  0.5253960000000  0.5371680000000 1.0
C      1  0.5189170000000  0.4968570000000  0.5444170000000 1.0
C      1  0.4784220000000  0.4864100000000  0.5396470000000 1.0
C      1  0.4396700000000  0.5908000000000  0.4743130000000 1.0
C      1  0.6056420000000  0.5046640000000  0.4667650000000 1.0
C      1  0.4523470000000  0.4099490000000  0.4668520000000 1.0
C      1  0.4780280000000  0.5024120000000  0.5916370000000 1.0
C      1  0.5229700000000  0.5318630000000  0.6076840000000 1.0
C      1  0.5042140000000  0.4910010000000  0.5728490000000 1.0
C      1  0.5347270000000  0.4319800000000  0.4363190000000 1.0
C      1  0.4121960000000  0.4936130000000  0.4385430000000 1.0
C      1  0.5456070000000  0.5637530000000  0.4328670000000 1.0
C      1  0.5127020000000  0.5330090000000  0.5600270000000 1.0
C      1  0.5251990000000  0.4595620000000  0.5563820000000 1.0
C      1  0.4557820000000  0.4957160000000  0.5595070000000 1.0
C      1  0.4459680000000  0.5621350000000  0.4472520000000 1.0
C      1  0.5749920000000  0.5223070000000  0.4489170000000 1.0
C      1  0.4841250000000  0.4211580000000  0.4462720000000 1.0
C      1  0.5827710000000  0.4866370000000  0.4792490000000 1.0
C      1  0.4468390000000  0.4380450000000  0.4813450000000 1.0
C      1  0.4698730000000  0.5800750000000  0.4818870000000 1.0
C      1  0.4656700000000  0.5293900000000  0.5078180000000 1.0
C      1  0.5399740000000  0.5138970000000  0.5149900000000 1.0
C      1  0.4913180000000  0.4582810000000  0.5146030000000 1.0
C      1  0.5139110000000  0.5081310000000  0.6201370000000 1.0
C      1  0.5112400000000  0.4855680000000  0.6057450000000 1.0
C      1  0.4698510000000  0.4848370000000  0.6117440000000 1.0
C      1  0.4807780000000  0.5547020000000  0.4647210000000 1.0
C      1  0.5563260000000  0.4835910000000  0.4580630000000 1.0
C      1  0.4503800000000  0.4647660000000  0.4661000000000 1.0
C      1  0.6173800000000  0.5536660000000  0.4332140000000 1.0
C      1  0.4859890000000  0.3666750000000  0.4404840000000 1.0
C      1  0.4120520000000  0.5421080000000  0.4432470000000 1.0
C      1  0.5293310000000  0.5101690000000  0.4703390000000 1.0
C      1  0.4895190000000  0.4717970000000  0.4632990000000 1.0
C      1  0.4778500000000  0.5160080000000  0.4567880000000 1.0
C      1  0.5187800000000  0.5705540000000  0.4250220000000 1.0
C      1  0.5543340000000  0.4516640000000  0.4274330000000 1.0
C      1  0.4277460000000  0.4716510000000  0.4271840000000 1.0
C      1  0.4142770000000  0.4707350000000  0.4829620000000 1.0
C      1  0.5184620000000  0.5784050000000  0.4879480000000 1.0
C      1  0.5654900000000  0.4448790000000  0.4873630000000 1.0
C      1  0.5481900000000  0.4741280000000  0.4106820000000 1.0
C      1  0.4499830000000  0.4691790000000  0.4088780000000 1.0
C      1  0.4968380000000  0.5585020000000  0.4079990000000 1.0
C      1  0.4630690000000  0.5710910000000  0.5774520000000 1.0
C      1  0.5821990000000  0.5104400000000  0.5692480000000 1.0
C      1  0.4668960000000  0.4267390000000  0.5709870000000 1.0
C      1  0.4730270000000  0.4450600000000  0.4167160000000 1.0
C      1  0.4638090000000  0.5514580000000  0.4132230000000 1.0
C      1  0.5645190000000  0.5038710000000  0.4151340000000 1.0
C      1  0.5105650000000  0.4662240000000  0.4409680000000 1.0
C      1  0.4506450000000  0.5099840000000  0.4371850000000 1.0
C      1  0.5274410000000  0.5309150000000  0.4464890000000 1.0
C      1  0.5800550000000  0.4573720000000  0.4398350000000 1.0
C      1  0.4258910000000  0.4463330000000  0.4404320000000 1.0
C      1  0.4970410000000  0.5869460000000  0.4382860000000 1.0
END
