TITL C-2782239-8622-1180 0.0106718580384375 125000 -361.630841730204 0 0 67 (C1) n - 1
REM
REM in /home/nfs/bkarasulu/CARBON/AIRSS/Generating-Clusters/REBO/Higher-Symm/SD-CG/HFTN-CG
REM
REM
REM
REM
REM
REM ./C.cell (12c818d87b63d06a65506943cc24bca4)
REM
REM compiler GCC version 9.2.1 20190827 (Red Hat 9.2.1-1)
REM options -cpp -mtune=generic -march=x86-64 -g -O0 -fpre-include=/usr/include/finclude/math-vector-fortran.h
REM seed 1305181506 1420396139 -1305089345 -1568979298 -66634799 156010493 -475053049 -1105019232 -579980357 1100626475 1317098508 2023102858 1608365914 -1736755 1687342038 1518005413 -293587947 1115301758 -902494490 -2126127157 -878965966 -155125173 1861473179 -136231291 516298557 1356361630 1441665031 -654401785 -347899655 277708266 -1269323728 -460239511 968223935
REM
CELL 1.54180   50.00000   50.00000   50.00000   90.00000   90.00000   90.00000
LATT -1
SFAC C  
C      1  0.4539930000000  0.5463170000000  0.4635320000000 1.0
C      1  0.4497760000000  0.5090490000000  0.5639990000000 1.0
C      1  0.4558480000000  0.4458390000000  0.4794310000000 1.0
C      1  0.5136720000000  0.4631850000000  0.5247420000000 1.0
C      1  0.5144230000000  0.4967410000000  0.4528460000000 1.0
C      1  0.5144950000000  0.5414370000000  0.5197630000000 1.0
C      1  0.5010440000000  0.4324160000000  0.5331430000000 1.0
C      1  0.5028000000000  0.5056990000000  0.4220460000000 1.0
C      1  0.4999560000000  0.5622720000000  0.5428690000000 1.0
C      1  0.5699680000000  0.5403560000000  0.5195750000000 1.0
C      1  0.5725230000000  0.4644820000000  0.5284160000000 1.0
C      1  0.5659540000000  0.4950060000000  0.4526350000000 1.0
C      1  0.4875960000000  0.5392310000000  0.4839830000000 1.0
C      1  0.4877580000000  0.4936260000000  0.5348750000000 1.0
C      1  0.4877660000000  0.4692900000000  0.4738530000000 1.0
C      1  0.4653070000000  0.4736600000000  0.5507440000000 1.0
C      1  0.4646030000000  0.4700030000000  0.4489180000000 1.0
C      1  0.4657410000000  0.5606100000000  0.4987730000000 1.0
C      1  0.5154360000000  0.5390030000000  0.4398440000000 1.0
C      1  0.5113360000000  0.5298190000000  0.5629980000000 1.0
C      1  0.5169510000000  0.4315350000000  0.4965950000000 1.0
C      1  0.5711710000000  0.4864210000000  0.4852450000000 1.0
C      1  0.5708100000000  0.5192800000000  0.4939940000000 1.0
C      1  0.5715060000000  0.4953090000000  0.5184640000000 1.0
C      1  0.5362570000000  0.5380310000000  0.4984380000000 1.0
C      1  0.5371620000000  0.4820550000000  0.5336670000000 1.0
C      1  0.5387440000000  0.4808790000000  0.4630700000000 1.0
C      1  0.4943920000000  0.5680810000000  0.5107140000000 1.0
C      1  0.4935670000000  0.4583520000000  0.5525060000000 1.0
C      1  0.4930610000000  0.4762290000000  0.4350070000000 1.0
C      1  0.4847870000000  0.5484470000000  0.4512160000000 1.0
C      1  0.4808800000000  0.5145730000000  0.5610630000000 1.0
C      1  0.4875550000000  0.4355820000000  0.4802550000000 1.0
C      1  0.4809120000000  0.5168450000000  0.4455670000000 1.0
C      1  0.4795520000000  0.5364680000000  0.5380970000000 1.0
C      1  0.4810500000000  0.4453540000000  0.5104380000000 1.0
C      1  0.4298970000000  0.5401130000000  0.5258540000000 1.0
C      1  0.4285480000000  0.4624990000000  0.5211140000000 1.0
C      1  0.4289330000000  0.5027670000000  0.4565650000000 1.0
C      1  0.4390700000000  0.4783420000000  0.5408370000000 1.0
C      1  0.4392720000000  0.4774290000000  0.4599030000000 1.0
C      1  0.4403880000000  0.5476590000000  0.5015430000000 1.0
C      1  0.5144810000000  0.4688970000000  0.5736210000000 1.0
C      1  0.5125890000000  0.4512920000000  0.4358360000000 1.0
C      1  0.5155060000000  0.5803060000000  0.4906450000000 1.0
C      1  0.5353390000000  0.4801990000000  0.5643290000000 1.0
C      1  0.5330380000000  0.4530360000000  0.4508520000000 1.0
C      1  0.5354160000000  0.5655680000000  0.4846890000000 1.0
C      1  0.4355230000000  0.5244440000000  0.4792420000000 1.0
C      1  0.4329440000000  0.5098910000000  0.5354780000000 1.0
C      1  0.4359840000000  0.4685720000000  0.4906880000000 1.0
C      1  0.5409030000000  0.5113530000000  0.4789290000000 1.0
C      1  0.5416540000000  0.5121590000000  0.5200840000000 1.0
C      1  0.5426900000000  0.4756510000000  0.5006700000000 1.0
C      1  0.4786450000000  0.5255460000000  0.5122970000000 1.0
C      1  0.4768530000000  0.4728560000000  0.5126630000000 1.0
C      1  0.4783260000000  0.5012590000000  0.4690900000000 1.0
C      1  0.5116690000000  0.5254610000000  0.4696230000000 1.0
C      1  0.5114390000000  0.5125230000000  0.5353690000000 1.0
C      1  0.5134500000000  0.4639540000000  0.4909480000000 1.0
C      1  0.5589940000000  0.5116320000000  0.4316810000000 1.0
C      1  0.5536520000000  0.5497870000000  0.5392510000000 1.0
C      1  0.5561980000000  0.4426560000000  0.5280420000000 1.0
C      1  0.5327830000000  0.4281370000000  0.5223080000000 1.0
C      1  0.5332670000000  0.5209620000000  0.4230010000000 1.0
C      1  0.5301750000000  0.5530860000000  0.5546580000000 1.0
C      1  0.4341400000000  0.5001180000000  0.5029070000000 1.0
END
