TITL C-2782225-7408-952 0.118690249717106 125000 -407.55260777251 0 0 70 (C1) n - 1
REM
REM in /home/nfs/bkarasulu/CARBON/AIRSS/Generating-Clusters/REBO/Higher-Symm/SD-CG/HFTN-CG
REM
REM
REM
REM
REM
REM ./C.cell (12c818d87b63d06a65506943cc24bca4)
REM
REM compiler GCC version 9.2.1 20190827 (Red Hat 9.2.1-1)
REM options -cpp -mtune=generic -march=x86-64 -g -O0 -fpre-include=/usr/include/finclude/math-vector-fortran.h
REM seed -896581012 -1366836456 545919186 -942935143 2083711733 -1165294440 1161785321 52431373 1375641134 -1244237103 -19525808 -1252311837 -1982846935 392620291 1507066254 -1507548946 -274628749 -603288828 -1249648299 -1573550336 -371258111 1309133293 782557452 -1727836995 2026536985 -20752963 910733482 -342525699 -552066261 -1437328878 125104905 -829861648 -2106510448
REM
CELL 1.54180   50.00000   50.00000   50.00000   90.00000   90.00000   90.00000
LATT -1
SFAC C  
C      1  0.4820650000000  0.4119480000000  0.4699490000000 1.0
C      1  0.5781580000000  0.4701100000000  0.4349990000000 1.0
C      1  0.5529140000000  0.4876590000000  0.4224520000000 1.0
C      1  0.4778160000000  0.5862290000000  0.4925500000000 1.0
C      1  0.5641410000000  0.4940280000000  0.4535300000000 1.0
C      1  0.4661040000000  0.4296450000000  0.5312440000000 1.0
C      1  0.5896100000000  0.4514880000000  0.4529180000000 1.0
C      1  0.5087440000000  0.5248270000000  0.5170360000000 1.0
C      1  0.4084080000000  0.4522240000000  0.5152930000000 1.0
C      1  0.4410200000000  0.5445750000000  0.4909300000000 1.0
C      1  0.4336410000000  0.4957690000000  0.5171650000000 1.0
C      1  0.5550270000000  0.5186750000000  0.4657070000000 1.0
C      1  0.5340640000000  0.5541850000000  0.5590640000000 1.0
C      1  0.4629760000000  0.4073710000000  0.4886380000000 1.0
C      1  0.5529610000000  0.5195200000000  0.4932680000000 1.0
C      1  0.5105150000000  0.4846380000000  0.5885560000000 1.0
C      1  0.4585800000000  0.5168850000000  0.4378570000000 1.0
C      1  0.5843860000000  0.4543680000000  0.4798470000000 1.0
C      1  0.4072260000000  0.4801850000000  0.5128650000000 1.0
C      1  0.5047580000000  0.5601740000000  0.5700760000000 1.0
C      1  0.5252850000000  0.5089700000000  0.5996130000000 1.0
C      1  0.4821610000000  0.5618970000000  0.5603770000000 1.0
C      1  0.5206620000000  0.4696390000000  0.4398610000000 1.0
C      1  0.5482910000000  0.4624370000000  0.5227480000000 1.0
C      1  0.5711870000000  0.4659850000000  0.4994190000000 1.0
C      1  0.5086090000000  0.5747800000000  0.4911210000000 1.0
C      1  0.4577110000000  0.5703930000000  0.5046510000000 1.0
C      1  0.5123450000000  0.5035220000000  0.5623710000000 1.0
C      1  0.5465950000000  0.5873160000000  0.5237310000000 1.0
C      1  0.4498480000000  0.4221330000000  0.5090200000000 1.0
C      1  0.4618580000000  0.5203140000000  0.4850220000000 1.0
C      1  0.5433050000000  0.5422800000000  0.5071980000000 1.0
C      1  0.4933620000000  0.4424570000000  0.5348020000000 1.0
C      1  0.4027220000000  0.5080160000000  0.4949940000000 1.0
C      1  0.5090530000000  0.4507830000000  0.5062670000000 1.0
C      1  0.5452440000000  0.4475280000000  0.4752610000000 1.0
C      1  0.4974250000000  0.4541740000000  0.4469870000000 1.0
C      1  0.5443130000000  0.4676420000000  0.4559630000000 1.0
C      1  0.5355380000000  0.5324280000000  0.5362010000000 1.0
C      1  0.5400840000000  0.5337680000000  0.4482040000000 1.0
C      1  0.4405530000000  0.5053040000000  0.4588580000000 1.0
C      1  0.5018260000000  0.4310100000000  0.4638630000000 1.0
C      1  0.5133810000000  0.5194000000000  0.4339280000000 1.0
C      1  0.4515400000000  0.4936140000000  0.4950050000000 1.0
C      1  0.5482570000000  0.5797740000000  0.5500920000000 1.0
C      1  0.4709600000000  0.5586870000000  0.5330990000000 1.0
C      1  0.5027790000000  0.5354980000000  0.4616200000000 1.0
C      1  0.5520900000000  0.5077280000000  0.5412320000000 1.0
C      1  0.5064490000000  0.4995810000000  0.5353690000000 1.0
C      1  0.4930400000000  0.5527640000000  0.5105650000000 1.0
C      1  0.4011920000000  0.5181870000000  0.5236260000000 1.0
C      1  0.4482160000000  0.4747250000000  0.4677330000000 1.0
C      1  0.4815410000000  0.5221650000000  0.4305800000000 1.0
C      1  0.5473720000000  0.4639450000000  0.5560350000000 1.0
C      1  0.4225790000000  0.5207500000000  0.4782930000000 1.0
C      1  0.5277400000000  0.5279740000000  0.5757290000000 1.0
C      1  0.5365940000000  0.5699820000000  0.5036830000000 1.0
C      1  0.4723500000000  0.4664280000000  0.4501540000000 1.0
C      1  0.4903120000000  0.5275340000000  0.4883540000000 1.0
C      1  0.4312550000000  0.4499340000000  0.4741930000000 1.0
C      1  0.5234260000000  0.4932470000000  0.4218410000000 1.0
C      1  0.4423300000000  0.5461450000000  0.5239500000000 1.0
C      1  0.5205550000000  0.4377280000000  0.4848560000000 1.0
C      1  0.5569180000000  0.4940450000000  0.5123460000000 1.0
C      1  0.5027730000000  0.4742770000000  0.5266550000000 1.0
C      1  0.5101700000000  0.5626070000000  0.4623740000000 1.0
C      1  0.4292380000000  0.5217270000000  0.5339100000000 1.0
C      1  0.5257020000000  0.4453810000000  0.5417170000000 1.0
C      1  0.4275810000000  0.4380910000000  0.4998950000000 1.0
C      1  0.5525690000000  0.4908050000000  0.5626880000000 1.0
END
