TITL C-2782230-7391-1130 0.00168849179604153 125000 -805.520309770745 0 0 140 (C1) n - 1
REM
REM in /home/nfs/bkarasulu/CARBON/AIRSS/Generating-Clusters/REBO/Higher-Symm/SD-CG/HFTN-CG
REM
REM
REM
REM
REM
REM ./C.cell (12c818d87b63d06a65506943cc24bca4)
REM
REM compiler GCC version 9.2.1 20190827 (Red Hat 9.2.1-1)
REM options -cpp -mtune=generic -march=x86-64 -g -O0 -fpre-include=/usr/include/finclude/math-vector-fortran.h
REM seed -1964349535 2119678802 -1203146810 -904321900 1772000830 1927175937 1297520385 821190338 1866887095 264631172 -1589642381 1125947993 21885219 -1302466066 893806743 -176503092 1392549320 508284698 1233941159 -1273737145 535952935 1423467406 -722671030 -1616679863 356027538 1696618804 889819824 -276569426 -782507843 1118025788 -1419311781 -2052933292 916376341
REM
CELL 1.54180   50.00000   50.00000   50.00000   90.00000   90.00000   90.00000
LATT -1
SFAC C  
C      1  0.5450120000000  0.6278670000000  0.5191140000000 1.0
C      1  0.5593520000000  0.5745010000000  0.4102890000000 1.0
C      1  0.5604490000000  0.4907520000000  0.3837440000000 1.0
C      1  0.5556030000000  0.3973450000000  0.4301880000000 1.0
C      1  0.5480490000000  0.3743550000000  0.5400050000000 1.0
C      1  0.5578400000000  0.4638900000000  0.6209660000000 1.0
C      1  0.5550920000000  0.5876440000000  0.5839680000000 1.0
C      1  0.4151390000000  0.5220560000000  0.5548770000000 1.0
C      1  0.4120280000000  0.5576180000000  0.5197640000000 1.0
C      1  0.4120490000000  0.5583820000000  0.4639650000000 1.0
C      1  0.4045110000000  0.5013290000000  0.4366440000000 1.0
C      1  0.4070060000000  0.4539390000000  0.4607630000000 1.0
C      1  0.4134340000000  0.4417170000000  0.5121050000000 1.0
C      1  0.4204820000000  0.4733220000000  0.5555510000000 1.0
C      1  0.5172430000000  0.5884330000000  0.5001120000000 1.0
C      1  0.5204900000000  0.5557940000000  0.4357830000000 1.0
C      1  0.5192090000000  0.4821030000000  0.4126720000000 1.0
C      1  0.5175020000000  0.4208550000000  0.4523910000000 1.0
C      1  0.5171400000000  0.4135360000000  0.5288020000000 1.0
C      1  0.5304990000000  0.4704960000000  0.5784100000000 1.0
C      1  0.5329410000000  0.5472190000000  0.5641060000000 1.0
C      1  0.4733840000000  0.5757510000000  0.4635240000000 1.0
C      1  0.4786390000000  0.5260110000000  0.4173790000000 1.0
C      1  0.4743940000000  0.4531620000000  0.4271780000000 1.0
C      1  0.4775820000000  0.4167320000000  0.4852570000000 1.0
C      1  0.4833780000000  0.4439270000000  0.5605390000000 1.0
C      1  0.4919900000000  0.5107280000000  0.5773970000000 1.0
C      1  0.4864380000000  0.5580180000000  0.5408060000000 1.0
C      1  0.4190110000000  0.4846870000000  0.5246590000000 1.0
C      1  0.4061220000000  0.5116000000000  0.5287840000000 1.0
C      1  0.4007500000000  0.5322200000000  0.5110840000000 1.0
C      1  0.4070670000000  0.5313610000000  0.4809980000000 1.0
C      1  0.3969340000000  0.5083040000000  0.4665740000000 1.0
C      1  0.4149090000000  0.4843710000000  0.4712380000000 1.0
C      1  0.4224480000000  0.4692720000000  0.4980420000000 1.0
C      1  0.4899980000000  0.5182680000000  0.5240060000000 1.0
C      1  0.4692760000000  0.5344130000000  0.5088630000000 1.0
C      1  0.4723300000000  0.5350600000000  0.4775510000000 1.0
C      1  0.4697710000000  0.5048320000000  0.4622110000000 1.0
C      1  0.4722750000000  0.4778710000000  0.4797160000000 1.0
C      1  0.4752260000000  0.4655180000000  0.5077400000000 1.0
C      1  0.4833900000000  0.4872420000000  0.5303620000000 1.0
C      1  0.5670520000000  0.4183500000000  0.5280860000000 1.0
C      1  0.5805590000000  0.4610740000000  0.5782290000000 1.0
C      1  0.5800960000000  0.5455930000000  0.5797630000000 1.0
C      1  0.5655270000000  0.5809570000000  0.5312720000000 1.0
C      1  0.5656930000000  0.5583610000000  0.4559310000000 1.0
C      1  0.5613210000000  0.5145040000000  0.4308940000000 1.0
C      1  0.5647440000000  0.4361740000000  0.4582180000000 1.0
C      1  0.5180240000000  0.5466530000000  0.5362440000000 1.0
C      1  0.4982260000000  0.5654540000000  0.4836780000000 1.0
C      1  0.5045010000000  0.5293680000000  0.4373790000000 1.0
C      1  0.5014980000000  0.4699300000000  0.4379340000000 1.0
C      1  0.5064470000000  0.4333220000000  0.4812690000000 1.0
C      1  0.5086240000000  0.4442920000000  0.5383250000000 1.0
C      1  0.5178750000000  0.4962520000000  0.5607410000000 1.0
C      1  0.5020870000000  0.4818440000000  0.4652930000000 1.0
C      1  0.5058340000000  0.4609590000000  0.4916200000000 1.0
C      1  0.5117490000000  0.4700190000000  0.5223720000000 1.0
C      1  0.5197910000000  0.5023330000000  0.5297910000000 1.0
C      1  0.5251970000000  0.5294910000000  0.5100360000000 1.0
C      1  0.5046170000000  0.5349530000000  0.4886310000000 1.0
C      1  0.5027400000000  0.5142630000000  0.4631450000000 1.0
C      1  0.4122480000000  0.4728580000000  0.4332880000000 1.0
C      1  0.4165370000000  0.4341290000000  0.4803360000000 1.0
C      1  0.4193910000000  0.4440700000000  0.5402220000000 1.0
C      1  0.4269790000000  0.4990050000000  0.5697320000000 1.0
C      1  0.4236880000000  0.5500820000000  0.5462860000000 1.0
C      1  0.4192510000000  0.5709280000000  0.4952720000000 1.0
C      1  0.4174710000000  0.5323060000000  0.4423910000000 1.0
C      1  0.6109600000000  0.4903430000000  0.5358720000000 1.0
C      1  0.6074960000000  0.5180640000000  0.5399110000000 1.0
C      1  0.6012780000000  0.5365360000000  0.5181200000000 1.0
C      1  0.5957040000000  0.5285840000000  0.4906920000000 1.0
C      1  0.5945800000000  0.5026650000000  0.4770350000000 1.0
C      1  0.5957830000000  0.4755290000000  0.4873040000000 1.0
C      1  0.5985720000000  0.4673280000000  0.5165090000000 1.0
C      1  0.4461420000000  0.4606890000000  0.4773980000000 1.0
C      1  0.4488570000000  0.4680480000000  0.5280240000000 1.0
C      1  0.4556610000000  0.4980140000000  0.5421350000000 1.0
C      1  0.4460840000000  0.5225290000000  0.5282690000000 1.0
C      1  0.4376010000000  0.5291500000000  0.4959790000000 1.0
C      1  0.4440100000000  0.5349260000000  0.4629820000000 1.0
C      1  0.4434790000000  0.4861430000000  0.4540340000000 1.0
C      1  0.5054000000000  0.5759120000000  0.4520700000000 1.0
C      1  0.5083160000000  0.5119570000000  0.4096130000000 1.0
C      1  0.5039330000000  0.4366670000000  0.4307480000000 1.0
C      1  0.5049220000000  0.4072460000000  0.5031380000000 1.0
C      1  0.5156450000000  0.4460490000000  0.5711280000000 1.0
C      1  0.5234540000000  0.5234890000000  0.5797610000000 1.0
C      1  0.5091280000000  0.5778220000000  0.5288180000000 1.0
C      1  0.5731020000000  0.5457500000000  0.4791080000000 1.0
C      1  0.5720190000000  0.5056380000000  0.4544170000000 1.0
C      1  0.5745770000000  0.4573170000000  0.4727030000000 1.0
C      1  0.5759720000000  0.4433300000000  0.5221920000000 1.0
C      1  0.5907060000000  0.4699700000000  0.5521460000000 1.0
C      1  0.5889170000000  0.5240140000000  0.5642190000000 1.0
C      1  0.5795490000000  0.5578590000000  0.5269950000000 1.0
C      1  0.5244160000000  0.4168920000000  0.5621310000000 1.0
C      1  0.5387650000000  0.4996980000000  0.5941940000000 1.0
C      1  0.5368700000000  0.5798820000000  0.5477140000000 1.0
C      1  0.5213190000000  0.5950420000000  0.4704640000000 1.0
C      1  0.5369660000000  0.5308950000000  0.4145090000000 1.0
C      1  0.5210170000000  0.4513790000000  0.4087350000000 1.0
C      1  0.5086600000000  0.3949250000000  0.4726740000000 1.0
C      1  0.4484760000000  0.5330770000000  0.4300210000000 1.0
C      1  0.4444350000000  0.4690170000000  0.4270800000000 1.0
C      1  0.4482800000000  0.4291930000000  0.4761130000000 1.0
C      1  0.4512980000000  0.4455420000000  0.5501130000000 1.0
C      1  0.4591630000000  0.5026880000000  0.5732790000000 1.0
C      1  0.4549880000000  0.5503650000000  0.5451100000000 1.0
C      1  0.4403080000000  0.5758870000000  0.4697810000000 1.0
C      1  0.5547540000000  0.5016500000000  0.4796860000000 1.0
C      1  0.5559350000000  0.4754400000000  0.4897340000000 1.0
C      1  0.5586800000000  0.4686860000000  0.5172840000000 1.0
C      1  0.5679260000000  0.4864880000000  0.5375720000000 1.0
C      1  0.5680250000000  0.5134350000000  0.5439270000000 1.0
C      1  0.5621190000000  0.5328070000000  0.5249350000000 1.0
C      1  0.5527100000000  0.5272890000000  0.4959140000000 1.0
C      1  0.4511980000000  0.6216570000000  0.4385300000000 1.0
C      1  0.4459340000000  0.5421140000000  0.3741520000000 1.0
C      1  0.4493860000000  0.4419900000000  0.3775990000000 1.0
C      1  0.4530470000000  0.3780690000000  0.4519350000000 1.0
C      1  0.4516080000000  0.4196420000000  0.6005140000000 1.0
C      1  0.4671830000000  0.5139010000000  0.6281570000000 1.0
C      1  0.4734020000000  0.5710600000000  0.5945840000000 1.0
C      1  0.5459210000000  0.4008980000000  0.5326870000000 1.0
C      1  0.5582230000000  0.4647650000000  0.5932920000000 1.0
C      1  0.5568950000000  0.5614290000000  0.5769810000000 1.0
C      1  0.5406070000000  0.6005740000000  0.5204870000000 1.0
C      1  0.5501550000000  0.5634900000000  0.4334240000000 1.0
C      1  0.5457510000000  0.4990350000000  0.4056610000000 1.0
C      1  0.5472450000000  0.4179630000000  0.4466550000000 1.0
C      1  0.4542970000000  0.5361590000000  0.3975980000000 1.0
C      1  0.4541300000000  0.4510460000000  0.4010720000000 1.0
C      1  0.4577340000000  0.3992470000000  0.4655100000000 1.0
C      1  0.4590860000000  0.4315310000000  0.5791100000000 1.0
C      1  0.4711650000000  0.5104880000000  0.6030940000000 1.0
C      1  0.4721080000000  0.5631180000000  0.5703040000000 1.0
C      1  0.4538090000000  0.5999560000000  0.4518560000000 1.0
END
