TITL C-2782225-7408-555 0.00160442795153617 125000 -464.451867848935 0 0 82 (C1) n - 1
REM
REM in /home/nfs/bkarasulu/CARBON/AIRSS/Generating-Clusters/REBO/Higher-Symm/SD-CG/HFTN-CG
REM
REM
REM
REM
REM
REM ./C.cell (12c818d87b63d06a65506943cc24bca4)
REM
REM compiler GCC version 9.2.1 20190827 (Red Hat 9.2.1-1)
REM options -cpp -mtune=generic -march=x86-64 -g -O0 -fpre-include=/usr/include/finclude/math-vector-fortran.h
REM seed 1450907310 -938398237 1082553722 410461004 -1072225091 -1705588698 445028844 1499439977 303911271 -536646759 -1310596795 1395533399 1798533775 -1412734913 2000648259 -1928352116 -353200679 -1819586923 -1902936474 -1256494182 -463574411 -332417412 1311691450 1885599898 1712635941 -1894590682 -1181632166 -1162508258 -1869582120 -1969264318 -284395533 -620083288 -1921864136
REM
CELL 1.54180   50.00000   50.00000   50.00000   90.00000   90.00000   90.00000
LATT -1
SFAC C  
C      1  0.5206630000000  0.5183580000000  0.4576660000000 1.0
C      1  0.5172230000000  0.4499760000000  0.5056820000000 1.0
C      1  0.5153680000000  0.5219270000000  0.5420610000000 1.0
C      1  0.4894980000000  0.5248310000000  0.4573800000000 1.0
C      1  0.4868040000000  0.4559520000000  0.5014430000000 1.0
C      1  0.4848520000000  0.5284960000000  0.5435620000000 1.0
C      1  0.5467980000000  0.4749810000000  0.5673010000000 1.0
C      1  0.5445210000000  0.5664770000000  0.4898920000000 1.0
C      1  0.5426150000000  0.4558410000000  0.4466450000000 1.0
C      1  0.4568820000000  0.4763310000000  0.5662280000000 1.0
C      1  0.4553580000000  0.5720050000000  0.4889640000000 1.0
C      1  0.4558800000000  0.4550950000000  0.4448280000000 1.0
C      1  0.5282440000000  0.4364940000000  0.5431300000000 1.0
C      1  0.5261830000000  0.5626560000000  0.5349000000000 1.0
C      1  0.5241860000000  0.4959250000000  0.4247660000000 1.0
C      1  0.4777970000000  0.4391410000000  0.5414150000000 1.0
C      1  0.4755570000000  0.5667810000000  0.5342450000000 1.0
C      1  0.4743370000000  0.4961000000000  0.4235850000000 1.0
C      1  0.5341200000000  0.4723850000000  0.5182180000000 1.0
C      1  0.5264010000000  0.5274320000000  0.5141930000000 1.0
C      1  0.5325050000000  0.4942680000000  0.4725100000000 1.0
C      1  0.4699110000000  0.4766760000000  0.5174670000000 1.0
C      1  0.4737090000000  0.5289530000000  0.5139540000000 1.0
C      1  0.4744540000000  0.4979520000000  0.4672490000000 1.0
C      1  0.4543350000000  0.4707930000000  0.4877780000000 1.0
C      1  0.4564740000000  0.5047090000000  0.5294660000000 1.0
C      1  0.4562580000000  0.5242150000000  0.4786320000000 1.0
C      1  0.5471960000000  0.4690470000000  0.4880060000000 1.0
C      1  0.5457880000000  0.5021770000000  0.5262710000000 1.0
C      1  0.5449070000000  0.5199750000000  0.4888440000000 1.0
C      1  0.4325440000000  0.4921940000000  0.4809520000000 1.0
C      1  0.4319470000000  0.4888840000000  0.5151250000000 1.0
C      1  0.4335910000000  0.5200340000000  0.5007060000000 1.0
C      1  0.5713480000000  0.4905060000000  0.4807620000000 1.0
C      1  0.5716390000000  0.4856990000000  0.5148130000000 1.0
C      1  0.5733840000000  0.5173710000000  0.5018610000000 1.0
C      1  0.4338390000000  0.4601570000000  0.5265420000000 1.0
C      1  0.4338000000000  0.5426970000000  0.5206240000000 1.0
C      1  0.4328140000000  0.4972700000000  0.4514520000000 1.0
C      1  0.5714870000000  0.4583550000000  0.5283230000000 1.0
C      1  0.5716740000000  0.5415280000000  0.5215460000000 1.0
C      1  0.5678910000000  0.4968550000000  0.4508990000000 1.0
C      1  0.4654890000000  0.5521530000000  0.4407840000000 1.0
C      1  0.4710460000000  0.4232450000000  0.4848300000000 1.0
C      1  0.4642040000000  0.5280460000000  0.5777370000000 1.0
C      1  0.5296190000000  0.5532480000000  0.4404480000000 1.0
C      1  0.5356520000000  0.4203930000000  0.4861940000000 1.0
C      1  0.5306810000000  0.5246760000000  0.5788000000000 1.0
C      1  0.5399860000000  0.4994780000000  0.5765250000000 1.0
C      1  0.5382030000000  0.5633800000000  0.4638270000000 1.0
C      1  0.5400830000000  0.4355480000000  0.4643630000000 1.0
C      1  0.4592490000000  0.5016700000000  0.5753800000000 1.0
C      1  0.4586620000000  0.5660290000000  0.4627180000000 1.0
C      1  0.4617210000000  0.4354190000000  0.4626680000000 1.0
C      1  0.4837270000000  0.4678690000000  0.4704440000000 1.0
C      1  0.4868050000000  0.4942350000000  0.5412070000000 1.0
C      1  0.4834250000000  0.5438720000000  0.4849460000000 1.0
C      1  0.5154230000000  0.4652380000000  0.4753070000000 1.0
C      1  0.5185640000000  0.4890590000000  0.5427230000000 1.0
C      1  0.5154700000000  0.5379230000000  0.4846780000000 1.0
C      1  0.5148760000000  0.5276770000000  0.4266550000000 1.0
C      1  0.5208720000000  0.4197080000000  0.5154090000000 1.0
C      1  0.5142070000000  0.5479060000000  0.5625160000000 1.0
C      1  0.4808810000000  0.5277970000000  0.4260520000000 1.0
C      1  0.4872180000000  0.4248020000000  0.5133920000000 1.0
C      1  0.4804950000000  0.5527630000000  0.5639070000000 1.0
C      1  0.5888790000000  0.5430880000000  0.5431170000000 1.0
C      1  0.5824850000000  0.5172170000000  0.4392230000000 1.0
C      1  0.5883880000000  0.4383660000000  0.5193730000000 1.0
C      1  0.4180480000000  0.5415960000000  0.5433040000000 1.0
C      1  0.4171160000000  0.5168990000000  0.4400530000000 1.0
C      1  0.4186100000000  0.4398980000000  0.5154680000000 1.0
C      1  0.4543040000000  0.4551910000000  0.5471450000000 1.0
C      1  0.4535480000000  0.5633560000000  0.5160780000000 1.0
C      1  0.4530890000000  0.4825280000000  0.4371810000000 1.0
C      1  0.5510290000000  0.4534800000000  0.5489380000000 1.0
C      1  0.5492150000000  0.5599630000000  0.5173600000000 1.0
C      1  0.5465500000000  0.4825310000000  0.4370790000000 1.0
C      1  0.4992410000000  0.4821270000000  0.4184820000000 1.0
C      1  0.5027440000000  0.4414330000000  0.5565710000000 1.0
C      1  0.5015790000000  0.5747490000000  0.5241210000000 1.0
C      1  0.4867990000000  0.5061470000000  0.4968790000000 1.0
END
