TITL C-2782234-8014-12 -0.00170478615888036 125000 -182.553036820058 0 0 33 (C1) n - 1
REM
REM in /home/nfs/bkarasulu/CARBON/AIRSS/Generating-Clusters/REBO/Higher-Symm/SD-CG/HFTN-CG
REM
REM
REM
REM
REM
REM ./C.cell (12c818d87b63d06a65506943cc24bca4)
REM
REM compiler GCC version 9.2.1 20190827 (Red Hat 9.2.1-1)
REM options -cpp -mtune=generic -march=x86-64 -g -O0 -fpre-include=/usr/include/finclude/math-vector-fortran.h
REM seed 882356671 -849064984 -1914015874 -1930359314 594388099 1495777682 -715082642 -644723947 931211925 -844115653 -214582599 236616730 379087357 933430389 2044267436 -507893631 1143839893 -1953301408 893353128 -1006864977 121721357 -443110326 -1980253946 1058852955 1653926530 -465184513 -1558080165 992087469 500817529 553968825 922033199 542238724 -112530663
REM
CELL 1.54180   50.00000   50.00000   50.00000   90.00000   90.00000   90.00000
LATT -1
SFAC C  
C      1  0.4230270000000  0.5032310000000  0.4858430000000 1.0
C      1  0.4899940000000  0.5787620000000  0.5061280000000 1.0
C      1  0.6051690000000  0.5954370000000  0.5411530000000 1.0
C      1  0.6269980000000  0.6081880000000  0.5480610000000 1.0
C      1  0.4546370000000  0.4630550000000  0.4743520000000 1.0
C      1  0.4499100000000  0.4756820000000  0.4429540000000 1.0
C      1  0.4941970000000  0.4700660000000  0.5096740000000 1.0
C      1  0.4302770000000  0.4854650000000  0.4650980000000 1.0
C      1  0.5067250000000  0.4542450000000  0.4850200000000 1.0
C      1  0.4206680000000  0.5552930000000  0.4855920000000 1.0
C      1  0.5251200000000  0.4752420000000  0.5135990000000 1.0
C      1  0.5176990000000  0.4403830000000  0.4634170000000 1.0
C      1  0.4396980000000  0.5733790000000  0.4913400000000 1.0
C      1  0.4643980000000  0.5807850000000  0.4986520000000 1.0
C      1  0.5414190000000  0.4522740000000  0.5131640000000 1.0
C      1  0.5063910000000  0.4428380000000  0.4387180000000 1.0
C      1  0.4369840000000  0.4960550000000  0.5089920000000 1.0
C      1  0.4789640000000  0.4757720000000  0.5377900000000 1.0
C      1  0.4134470000000  0.5294150000000  0.4832450000000 1.0
C      1  0.4526550000000  0.4870500000000  0.5339870000000 1.0
C      1  0.5829870000000  0.5824800000000  0.5341340000000 1.0
C      1  0.5332360000000  0.5015690000000  0.5169370000000 1.0
C      1  0.5288920000000  0.4281430000000  0.5056790000000 1.0
C      1  0.5370280000000  0.5279200000000  0.5188460000000 1.0
C      1  0.5679950000000  0.4534280000000  0.5188930000000 1.0
C      1  0.5608050000000  0.5695230000000  0.5271150000000 1.0
C      1  0.4644540000000  0.4342290000000  0.4736960000000 1.0
C      1  0.5142400000000  0.5700260000000  0.5131240000000 1.0
C      1  0.4842060000000  0.4181740000000  0.4819930000000 1.0
C      1  0.5375390000000  0.5559320000000  0.5197520000000 1.0
C      1  0.5080550000000  0.4153650000000  0.4942660000000 1.0
C      1  0.4626060000000  0.4760230000000  0.5014840000000 1.0
C      1  0.5395810000000  0.4245700000000  0.4673000000000 1.0
END
