TITL C-2782235-7892-677 -0.00121339600507802 125000 -186.280114220419 0 0 32 (Cs) n - 1
REM
REM in /home/nfs/bkarasulu/CARBON/AIRSS/Generating-Clusters/REBO/Higher-Symm/SD-CG/HFTN-CG
REM
REM
REM
REM
REM
REM ./C.cell (12c818d87b63d06a65506943cc24bca4)
REM
REM compiler GCC version 9.2.1 20190827 (Red Hat 9.2.1-1)
REM options -cpp -mtune=generic -march=x86-64 -g -O0 -fpre-include=/usr/include/finclude/math-vector-fortran.h
REM seed -522321926 -1667805755 1907878686 422179333 321417137 -1515377929 167036562 1909022773 1459453372 -1266053167 -409254429 -699993721 -1917034290 1541663423 -1666122654 -1783957197 630867971 -325370834 1687424603 1757351627 -462626664 501316585 -1112879544 -1162957608 799624696 -655678510 -479936304 -1281096885 464559215 758001815 717131704 -1897675520 54446995
REM
CELL 1.54180   50.00000   50.00000   50.00000   90.00000   90.00000   90.00000
LATT -1
SFAC C  
C      1  0.4978350000000  0.5737180000000  0.4611320000000 1.0
C      1  0.4940320000000  0.4595950000000  0.4251360000000 1.0
C      1  0.4959200000000  0.4241570000000  0.5429390000000 1.0
C      1  0.4989360000000  0.5416200000000  0.5753230000000 1.0
C      1  0.4940090000000  0.4251630000000  0.4595460000000 1.0
C      1  0.4960000000000  0.5429870000000  0.4241870000000 1.0
C      1  0.4989590000000  0.5752920000000  0.5416730000000 1.0
C      1  0.4977600000000  0.4610810000000  0.5736960000000 1.0
C      1  0.4870400000000  0.5139990000000  0.5337580000000 1.0
C      1  0.4847310000000  0.5310260000000  0.4834410000000 1.0
C      1  0.4782960000000  0.4841730000000  0.4650690000000 1.0
C      1  0.4821390000000  0.4623290000000  0.5136590000000 1.0
C      1  0.4846990000000  0.4834270000000  0.5310100000000 1.0
C      1  0.4782830000000  0.4650890000000  0.4841400000000 1.0
C      1  0.4821740000000  0.5136920000000  0.4623310000000 1.0
C      1  0.4870540000000  0.5337530000000  0.5140170000000 1.0
C      1  0.4897660000000  0.5172560000000  0.4326260000000 1.0
C      1  0.4873440000000  0.4351930000000  0.4849430000000 1.0
C      1  0.4926530000000  0.4855360000000  0.5610570000000 1.0
C      1  0.4941770000000  0.5641600000000  0.5167930000000 1.0
C      1  0.4873770000000  0.4849890000000  0.4351790000000 1.0
C      1  0.4927030000000  0.5610670000000  0.4855760000000 1.0
C      1  0.4941450000000  0.5167510000000  0.5641710000000 1.0
C      1  0.4897090000000  0.4326170000000  0.5172090000000 1.0
C      1  0.5001310000000  0.4331320000000  0.5695100000000 1.0
C      1  0.5002210000000  0.5695490000000  0.4331820000000 1.0
C      1  0.5017620000000  0.5690390000000  0.5690890000000 1.0
C      1  0.4978250000000  0.4322620000000  0.4322210000000 1.0
C      1  0.5061980000000  0.5898030000000  0.4160370000000 1.0
C      1  0.5060820000000  0.4159700000000  0.5897570000000 1.0
C      1  0.5048200000000  0.4136580000000  0.4136090000000 1.0
C      1  0.5067820000000  0.5879170000000  0.5879830000000 1.0
END
