TITL C-2782235-7892-1343 0.000246607062673034 125000 -370.101330373952 0 0 64 (C1) n - 1
REM
REM in /home/nfs/bkarasulu/CARBON/AIRSS/Generating-Clusters/REBO/Higher-Symm/SD-CG/HFTN-CG
REM
REM
REM
REM
REM
REM ./C.cell (12c818d87b63d06a65506943cc24bca4)
REM
REM compiler GCC version 9.2.1 20190827 (Red Hat 9.2.1-1)
REM options -cpp -mtune=generic -march=x86-64 -g -O0 -fpre-include=/usr/include/finclude/math-vector-fortran.h
REM seed -1747250584 -672249612 1235048100 -1677551658 -840434055 -70092217 -1374299297 754147769 -1347758276 -591089079 -1135189311 1816556998 -820128953 -674615466 1152587332 1469777878 238411636 -899389865 782425454 1038554489 594677621 1184042958 -584162693 1874868324 -578532506 679394010 960768296 -909891364 -316103450 634678794 -708709931 -1088669995 -728254398
REM
CELL 1.54180   50.00000   50.00000   50.00000   90.00000   90.00000   90.00000
LATT -1
SFAC C  
C      1  0.5092930000000  0.5407200000000  0.4190080000000 1.0
C      1  0.4927340000000  0.4523920000000  0.5817170000000 1.0
C      1  0.5392430000000  0.4989710000000  0.4445260000000 1.0
C      1  0.4687510000000  0.5027320000000  0.5615920000000 1.0
C      1  0.5256260000000  0.5066240000000  0.5185860000000 1.0
C      1  0.4680150000000  0.4939380000000  0.4748860000000 1.0
C      1  0.5401380000000  0.5098560000000  0.5740900000000 1.0
C      1  0.4566760000000  0.4881020000000  0.4201400000000 1.0
C      1  0.4514100000000  0.4525570000000  0.5154690000000 1.0
C      1  0.5509110000000  0.5414380000000  0.4894990000000 1.0
C      1  0.5325780000000  0.5233320000000  0.4319500000000 1.0
C      1  0.4800680000000  0.4792880000000  0.5714380000000 1.0
C      1  0.5825920000000  0.4885800000000  0.5061140000000 1.0
C      1  0.4175100000000  0.5132180000000  0.5006460000000 1.0
C      1  0.4712420000000  0.4717170000000  0.4967290000000 1.0
C      1  0.5264180000000  0.5192820000000  0.4934040000000 1.0
C      1  0.5167530000000  0.5466400000000  0.4506830000000 1.0
C      1  0.4855810000000  0.4549620000000  0.5491750000000 1.0
C      1  0.4360040000000  0.4683320000000  0.4570660000000 1.0
C      1  0.5579160000000  0.5338550000000  0.5412710000000 1.0
C      1  0.5187570000000  0.5118290000000  0.5601530000000 1.0
C      1  0.4767660000000  0.5052230000000  0.4284700000000 1.0
C      1  0.5103180000000  0.5203130000000  0.4695910000000 1.0
C      1  0.4769140000000  0.4811380000000  0.5289490000000 1.0
C      1  0.4378700000000  0.4374730000000  0.4513270000000 1.0
C      1  0.5608870000000  0.5525760000000  0.5153260000000 1.0
C      1  0.4893550000000  0.5261310000000  0.5553140000000 1.0
C      1  0.5166150000000  0.4821320000000  0.4517240000000 1.0
C      1  0.5694560000000  0.5263220000000  0.4691720000000 1.0
C      1  0.4360530000000  0.4676950000000  0.5324670000000 1.0
C      1  0.4990860000000  0.5013270000000  0.5342090000000 1.0
C      1  0.4902630000000  0.5000240000000  0.4557430000000 1.0
C      1  0.4879890000000  0.5536320000000  0.5442340000000 1.0
C      1  0.5150410000000  0.4547810000000  0.4597970000000 1.0
C      1  0.4480450000000  0.4968660000000  0.5387120000000 1.0
C      1  0.5622830000000  0.5007200000000  0.4612310000000 1.0
C      1  0.5370970000000  0.5588840000000  0.5359940000000 1.0
C      1  0.4622750000000  0.4515670000000  0.4704340000000 1.0
C      1  0.5695130000000  0.4855990000000  0.5314910000000 1.0
C      1  0.4247630000000  0.5173820000000  0.4731610000000 1.0
C      1  0.4486310000000  0.5595360000000  0.4872310000000 1.0
C      1  0.5523350000000  0.4415350000000  0.5163640000000 1.0
C      1  0.5038650000000  0.5596840000000  0.4988850000000 1.0
C      1  0.4989900000000  0.4419370000000  0.5022610000000 1.0
C      1  0.4854980000000  0.5272100000000  0.4132120000000 1.0
C      1  0.5024670000000  0.4375150000000  0.6018420000000 1.0
C      1  0.4787760000000  0.4418370000000  0.5221480000000 1.0
C      1  0.5243240000000  0.5564760000000  0.4792330000000 1.0
C      1  0.4327020000000  0.5447340000000  0.4682620000000 1.0
C      1  0.5645470000000  0.4576760000000  0.5370380000000 1.0
C      1  0.4410130000000  0.4955460000000  0.4634880000000 1.0
C      1  0.5497430000000  0.5068220000000  0.5353840000000 1.0
C      1  0.5584340000000  0.4480960000000  0.4855920000000 1.0
C      1  0.4455770000000  0.5516270000000  0.5173280000000 1.0
C      1  0.4922580000000  0.4457490000000  0.4748660000000 1.0
C      1  0.5099320000000  0.5611900000000  0.5273290000000 1.0
C      1  0.4623400000000  0.5628960000000  0.5369630000000 1.0
C      1  0.5394340000000  0.4406030000000  0.4655410000000 1.0
C      1  0.5319340000000  0.4769340000000  0.4928130000000 1.0
C      1  0.4707970000000  0.5231670000000  0.5052210000000 1.0
C      1  0.4408350000000  0.5194820000000  0.5202150000000 1.0
C      1  0.5642250000000  0.4800010000000  0.4827740000000 1.0
C      1  0.5252240000000  0.4526420000000  0.5073410000000 1.0
C      1  0.4773130000000  0.5489550000000  0.4931810000000 1.0
END
