TITL C-2782235-7892-1413 0.000214018401080494 125000 -667.335144930055 0 0 113 (C1) n - 1
REM
REM in /home/nfs/bkarasulu/CARBON/AIRSS/Generating-Clusters/REBO/Higher-Symm/SD-CG/HFTN-CG
REM
REM
REM
REM
REM
REM ./C.cell (12c818d87b63d06a65506943cc24bca4)
REM
REM compiler GCC version 9.2.1 20190827 (Red Hat 9.2.1-1)
REM options -cpp -mtune=generic -march=x86-64 -g -O0 -fpre-include=/usr/include/finclude/math-vector-fortran.h
REM seed 286119573 157817223 518307189 620287216 -246095513 1658165230 115306619 459753490 -331633397 56555361 -387918764 199009278 -888817430 -770772705 -916491510 1907083360 -1218340778 2095965266 1914191630 -379197753 -1046393527 21161850 -570863903 -1297609252 1387938274 -454950472 -1154983775 1886310035 1955880071 1149041898 2032146131 1301034179 -1358936233
REM
CELL 1.54180   50.00000   50.00000   50.00000   90.00000   90.00000   90.00000
LATT -1
SFAC C  
C      1  0.4641170000000  0.5714400000000  0.5302250000000 1.0
C      1  0.5677170000000  0.5358410000000  0.5273650000000 1.0
C      1  0.5377100000000  0.4257420000000  0.5294720000000 1.0
C      1  0.4321060000000  0.4629020000000  0.5293810000000 1.0
C      1  0.4377510000000  0.4493450000000  0.5018840000000 1.0
C      1  0.4522040000000  0.5680210000000  0.5019120000000 1.0
C      1  0.5648410000000  0.5500620000000  0.4998750000000 1.0
C      1  0.5595360000000  0.4352980000000  0.5083560000000 1.0
C      1  0.5767810000000  0.4831090000000  0.5098180000000 1.0
C      1  0.4852280000000  0.4210410000000  0.5180390000000 1.0
C      1  0.4232590000000  0.5173880000000  0.5119130000000 1.0
C      1  0.5165570000000  0.5776030000000  0.5104390000000 1.0
C      1  0.5351630000000  0.4366800000000  0.4346460000000 1.0
C      1  0.4392650000000  0.4638150000000  0.4333330000000 1.0
C      1  0.4657600000000  0.5638560000000  0.4347510000000 1.0
C      1  0.5618890000000  0.5354300000000  0.4316450000000 1.0
C      1  0.4570820000000  0.5696750000000  0.4618490000000 1.0
C      1  0.5683100000000  0.5451050000000  0.4583920000000 1.0
C      1  0.5443800000000  0.4321020000000  0.4621760000000 1.0
C      1  0.4367420000000  0.4545390000000  0.4607690000000 1.0
C      1  0.4872660000000  0.5898020000000  0.5131460000000 1.0
C      1  0.5844640000000  0.5122080000000  0.5096640000000 1.0
C      1  0.5141580000000  0.4160760000000  0.5140440000000 1.0
C      1  0.4171720000000  0.4878800000000  0.5118020000000 1.0
C      1  0.5518520000000  0.5050510000000  0.5722550000000 1.0
C      1  0.5060180000000  0.4448650000000  0.5766090000000 1.0
C      1  0.4440520000000  0.4895650000000  0.5803260000000 1.0
C      1  0.4928910000000  0.5491290000000  0.5726840000000 1.0
C      1  0.5235550000000  0.4896060000000  0.6071980000000 1.0
C      1  0.4929880000000  0.4806280000000  0.6010200000000 1.0
C      1  0.4789810000000  0.5097290000000  0.6080210000000 1.0
C      1  0.5087370000000  0.5168720000000  0.6061900000000 1.0
C      1  0.5259360000000  0.5657010000000  0.4794820000000 1.0
C      1  0.5634160000000  0.4740980000000  0.4796810000000 1.0
C      1  0.4772880000000  0.4263290000000  0.4858480000000 1.0
C      1  0.4373540000000  0.5260860000000  0.4819420000000 1.0
C      1  0.4910600000000  0.5362440000000  0.4487990000000 1.0
C      1  0.5350180000000  0.5088600000000  0.4498430000000 1.0
C      1  0.5083850000000  0.4641200000000  0.4458460000000 1.0
C      1  0.4637370000000  0.4925360000000  0.4465950000000 1.0
C      1  0.5036510000000  0.4743460000000  0.4754870000000 1.0
C      1  0.4796410000000  0.4945740000000  0.4743770000000 1.0
C      1  0.4945370000000  0.5226760000000  0.4780280000000 1.0
C      1  0.5185370000000  0.5026420000000  0.4770220000000 1.0
C      1  0.4587960000000  0.5400690000000  0.4198830000000 1.0
C      1  0.5362630000000  0.5418300000000  0.4195130000000 1.0
C      1  0.5399140000000  0.4612170000000  0.4191600000000 1.0
C      1  0.4666980000000  0.4585170000000  0.4160470000000 1.0
C      1  0.5193810000000  0.4212920000000  0.4807810000000 1.0
C      1  0.4250220000000  0.4796350000000  0.4796020000000 1.0
C      1  0.4823320000000  0.5818260000000  0.4801040000000 1.0
C      1  0.5772070000000  0.5198540000000  0.4771850000000 1.0
C      1  0.4747370000000  0.4623390000000  0.4513920000000 1.0
C      1  0.4610880000000  0.5249900000000  0.4565140000000 1.0
C      1  0.5240490000000  0.5389400000000  0.4570260000000 1.0
C      1  0.5384510000000  0.4754660000000  0.4559690000000 1.0
C      1  0.5399800000000  0.5324440000000  0.5705710000000 1.0
C      1  0.5341540000000  0.4580460000000  0.5708730000000 1.0
C      1  0.4552080000000  0.4621620000000  0.5760100000000 1.0
C      1  0.4641880000000  0.5414260000000  0.5732470000000 1.0
C      1  0.5629460000000  0.4796910000000  0.4325940000000 1.0
C      1  0.4795230000000  0.4332070000000  0.4344900000000 1.0
C      1  0.4365270000000  0.5201280000000  0.4334080000000 1.0
C      1  0.5214630000000  0.5655460000000  0.4358510000000 1.0
C      1  0.4531020000000  0.4532650000000  0.5481970000000 1.0
C      1  0.4515840000000  0.5505080000000  0.5478570000000 1.0
C      1  0.5453480000000  0.5451250000000  0.5446500000000 1.0
C      1  0.5463760000000  0.4522460000000  0.5446040000000 1.0
C      1  0.4968590000000  0.4511690000000  0.4948640000000 1.0
C      1  0.4624910000000  0.5092500000000  0.4977380000000 1.0
C      1  0.5134100000000  0.5394380000000  0.4981120000000 1.0
C      1  0.5377150000000  0.4881330000000  0.4978290000000 1.0
C      1  0.4365070000000  0.5577110000000  0.4798800000000 1.0
C      1  0.5577770000000  0.5661520000000  0.4765810000000 1.0
C      1  0.5643330000000  0.4428390000000  0.4795060000000 1.0
C      1  0.4485910000000  0.4340890000000  0.4795230000000 1.0
C      1  0.5416730000000  0.4823050000000  0.5866580000000 1.0
C      1  0.4794870000000  0.4523740000000  0.5915100000000 1.0
C      1  0.4580880000000  0.5169250000000  0.5897910000000 1.0
C      1  0.5154650000000  0.5368340000000  0.5862350000000 1.0
C      1  0.4919360000000  0.4811000000000  0.4208390000000 1.0
C      1  0.4764430000000  0.5115350000000  0.4213410000000 1.0
C      1  0.5088380000000  0.5220040000000  0.4230970000000 1.0
C      1  0.5244640000000  0.4915450000000  0.4222330000000 1.0
C      1  0.5193420000000  0.4716280000000  0.5212680000000 1.0
C      1  0.4818060000000  0.4746000000000  0.5088770000000 1.0
C      1  0.4805010000000  0.5266360000000  0.5163470000000 1.0
C      1  0.5270930000000  0.5187810000000  0.5207360000000 1.0
C      1  0.4974720000000  0.5164560000000  0.5506000000000 1.0
C      1  0.5183690000000  0.4963570000000  0.5526340000000 1.0
C      1  0.4927100000000  0.4810940000000  0.5677220000000 1.0
C      1  0.4717500000000  0.5029490000000  0.5549450000000 1.0
C      1  0.4778790000000  0.4414830000000  0.5366550000000 1.0
C      1  0.4349050000000  0.5282220000000  0.5360700000000 1.0
C      1  0.5227260000000  0.5590020000000  0.5316960000000 1.0
C      1  0.5598030000000  0.4750440000000  0.5315590000000 1.0
C      1  0.4271190000000  0.4891470000000  0.4305990000000 1.0
C      1  0.4911120000000  0.5760990000000  0.4305730000000 1.0
C      1  0.5735350000000  0.5098270000000  0.4284040000000 1.0
C      1  0.5102880000000  0.4233350000000  0.4313250000000 1.0
C      1  0.5485130000000  0.5205140000000  0.4959330000000 1.0
C      1  0.5297320000000  0.4491050000000  0.4983140000000 1.0
C      1  0.4532120000000  0.4782320000000  0.4992380000000 1.0
C      1  0.4824820000000  0.5536150000000  0.4995170000000 1.0
C      1  0.5799730000000  0.4947750000000  0.4582980000000 1.0
C      1  0.4941930000000  0.4170390000000  0.4606580000000 1.0
C      1  0.4218180000000  0.5046910000000  0.4604180000000 1.0
C      1  0.5062710000000  0.5846800000000  0.4598090000000 1.0
C      1  0.5470230000000  0.5005870000000  0.5411030000000 1.0
C      1  0.5034070000000  0.4584050000000  0.5453030000000 1.0
C      1  0.4426880000000  0.5063640000000  0.5537270000000 1.0
C      1  0.4965760000000  0.5460030000000  0.5398020000000 1.0
C      1  0.5004480000000  0.4995910000000  0.5146190000000 1.0
END
