TITL C-2782231-7322-853 1.4811518748703e-05 125000 -487.616630416959 0 0 85 (C5) n - 1
REM
REM in /home/nfs/bkarasulu/CARBON/AIRSS/Generating-Clusters/REBO/Higher-Symm/SD-CG/HFTN-CG
REM
REM
REM
REM
REM
REM ./C.cell (12c818d87b63d06a65506943cc24bca4)
REM
REM compiler GCC version 9.2.1 20190827 (Red Hat 9.2.1-1)
REM options -cpp -mtune=generic -march=x86-64 -g -O0 -fpre-include=/usr/include/finclude/math-vector-fortran.h
REM seed -1196827207 -1347327552 351579436 882569174 493041975 561704089 610190388 2065560011 -777582379 -1327568500 -259867211 -819637886 1862979240 -708999593 1894531539 1760779696 873301537 -1807717816 -588220320 -1927479262 1577656221 -634304653 -55520697 -116875035 1175225921 1128624210 -2142707067 481113748 1668115428 -314728025 2044366068 -1860169260 -1880414177
REM
CELL 1.54180   50.00000   50.00000   50.00000   90.00000   90.00000   90.00000
LATT -1
SFAC C  
C      1  0.5394110000000  0.4864020000000  0.5579300000000 1.0
C      1  0.4992450000000  0.4583170000000  0.5579310000000 1.0
C      1  0.4601220000000  0.4878390000000  0.5579300000000 1.0
C      1  0.4761100000000  0.5341690000000  0.5579290000000 1.0
C      1  0.5251130000000  0.5332810000000  0.5579290000000 1.0
C      1  0.5099210000000  0.5808380000000  0.5015870000000 1.0
C      1  0.5799470000000  0.5155450000000  0.5015890000000 1.0
C      1  0.5394890000000  0.4287700000000  0.5015920000000 1.0
C      1  0.4444590000000  0.4404320000000  0.5015920000000 1.0
C      1  0.4261840000000  0.5344150000000  0.5015890000000 1.0
C      1  0.5657850000000  0.4296240000000  0.4857970000000 1.0
C      1  0.4533970000000  0.4156870000000  0.4857980000000 1.0
C      1  0.4054130000000  0.5182680000000  0.4857950000000 1.0
C      1  0.4881450000000  0.5956030000000  0.4857930000000 1.0
C      1  0.5872600000000  0.5408170000000  0.4857940000000 1.0
C      1  0.5280080000000  0.4575750000000  0.5580080000000 1.0
C      1  0.4683050000000  0.4602540000000  0.5580090000000 1.0
C      1  0.4524040000000  0.5178630000000  0.5580070000000 1.0
C      1  0.5022790000000  0.5507880000000  0.5580060000000 1.0
C      1  0.5490050000000  0.5135280000000  0.5580070000000 1.0
C      1  0.4904690000000  0.5257900000000  0.5283330000000 1.0
C      1  0.5215820000000  0.5170340000000  0.5283330000000 1.0
C      1  0.5228690000000  0.4847390000000  0.5283340000000 1.0
C      1  0.4925520000000  0.4735350000000  0.5283350000000 1.0
C      1  0.4725280000000  0.4989060000000  0.5283340000000 1.0
C      1  0.5667790000000  0.5574100000000  0.4789800000000 1.0
C      1  0.5752370000000  0.4542290000000  0.4789830000000 1.0
C      1  0.4797190000000  0.4143010000000  0.4789840000000 1.0
C      1  0.4122290000000  0.4928050000000  0.4789820000000 1.0
C      1  0.4660350000000  0.5812510000000  0.4789790000000 1.0
C      1  0.4298740000000  0.5590080000000  0.5246470000000 1.0
C      1  0.5344490000000  0.5849290000000  0.5246460000000 1.0
C      1  0.5914170000000  0.4934820000000  0.5246480000000 1.0
C      1  0.5220500000000  0.4110440000000  0.5246510000000 1.0
C      1  0.4222110000000  0.4515410000000  0.5246500000000 1.0
C      1  0.4993780000000  0.4731530000000  0.4594020000000 1.0
C      1  0.4742760000000  0.4922940000000  0.4594010000000 1.0
C      1  0.4847230000000  0.5220830000000  0.4594000000000 1.0
C      1  0.5162830000000  0.5213520000000  0.4594000000000 1.0
C      1  0.5253400000000  0.4911120000000  0.4594010000000 1.0
C      1  0.5720670000000  0.4763530000000  0.5021310000000 1.0
C      1  0.4997800000000  0.4241530000000  0.5021330000000 1.0
C      1  0.4277970000000  0.4767710000000  0.5021310000000 1.0
C      1  0.4555960000000  0.5614910000000  0.5021290000000 1.0
C      1  0.5447600000000  0.5612330000000  0.5021280000000 1.0
C      1  0.4984280000000  0.4502810000000  0.4368470000000 1.0
C      1  0.4522300000000  0.4861300000000  0.4368460000000 1.0
C      1  0.4720490000000  0.5411440000000  0.4368440000000 1.0
C      1  0.5304950000000  0.5392960000000  0.4368440000000 1.0
C      1  0.5467980000000  0.4831400000000  0.4368460000000 1.0
C      1  0.5276810000000  0.5080760000000  0.4233490000000 1.0
C      1  0.5162370000000  0.4761680000000  0.4233500000000 1.0
C      1  0.4823530000000  0.4771920000000  0.4233500000000 1.0
C      1  0.4728570000000  0.5097330000000  0.4233490000000 1.0
C      1  0.5008710000000  0.5288200000000  0.4233480000000 1.0
C      1  0.4769600000000  0.5149240000000  0.4920330000000 1.0
C      1  0.5070740000000  0.5265240000000  0.4920330000000 1.0
C      1  0.5274120000000  0.5014680000000  0.4920340000000 1.0
C      1  0.5098670000000  0.4743830000000  0.4920340000000 1.0
C      1  0.4786860000000  0.4827000000000  0.4920340000000 1.0
C      1  0.5573310000000  0.5001470000000  0.4857780000000 1.0
C      1  0.5178560000000  0.4455200000000  0.4857800000000 1.0
C      1  0.4537050000000  0.4661820000000  0.4857800000000 1.0
C      1  0.4535320000000  0.5335780000000  0.4857780000000 1.0
C      1  0.5175760000000  0.5545700000000  0.4857770000000 1.0
C      1  0.4985360000000  0.4211320000000  0.5417540000000 1.0
C      1  0.4245390000000  0.4770210000000  0.5417530000000 1.0
C      1  0.4548260000000  0.5646680000000  0.5417500000000 1.0
C      1  0.5475430000000  0.5629470000000  0.5417500000000 1.0
C      1  0.5745570000000  0.4742370000000  0.5417520000000 1.0
C      1  0.4607930000000  0.5551790000000  0.4630460000000 1.0
C      1  0.5403640000000  0.5543390000000  0.4630460000000 1.0
C      1  0.5641530000000  0.4784020000000  0.4630480000000 1.0
C      1  0.4992850000000  0.4323120000000  0.4630500000000 1.0
C      1  0.4354040000000  0.4797630000000  0.4630490000000 1.0
C      1  0.5727940000000  0.5194440000000  0.5347710000000 1.0
C      1  0.5409860000000  0.4367780000000  0.5347730000000 1.0
C      1  0.4525370000000  0.4414840000000  0.5347740000000 1.0
C      1  0.4296800000000  0.5270590000000  0.5347710000000 1.0
C      1  0.5040040000000  0.5752400000000  0.5347690000000 1.0
C      1  0.4798060000000  0.5570090000000  0.5256020000000 1.0
C      1  0.5479780000000  0.5368230000000  0.5256030000000 1.0
C      1  0.5498460000000  0.4657490000000  0.5256050000000 1.0
C      1  0.4828280000000  0.4420100000000  0.5256060000000 1.0
C      1  0.4395410000000  0.4984120000000  0.5256040000000 1.0
END
