TITL C-2782231-7322-649 0.000200764566912577 125000 -713.3999366966 0 0 125 (C1) n - 1
REM
REM in /home/nfs/bkarasulu/CARBON/AIRSS/Generating-Clusters/REBO/Higher-Symm/SD-CG/HFTN-CG
REM
REM
REM
REM
REM
REM ./C.cell (12c818d87b63d06a65506943cc24bca4)
REM
REM compiler GCC version 9.2.1 20190827 (Red Hat 9.2.1-1)
REM options -cpp -mtune=generic -march=x86-64 -g -O0 -fpre-include=/usr/include/finclude/math-vector-fortran.h
REM seed -442685413 672005053 1110457740 -1530463551 886238927 -981870095 795015691 -632286959 779053740 -2020566131 1459260332 -1426992378 -380498268 321772596 -1020135489 -1493845077 -437982670 -980745484 -185764637 1568264441 -169601297 1724249598 1856634455 -927590044 1308431617 1413025818 -1474434261 -304919331 513016585 1715757843 -1658469199 -462984252 1563560840
REM
CELL 1.54180   50.00000   50.00000   50.00000   90.00000   90.00000   90.00000
LATT -1
SFAC C  
C      1  0.5531130000000  0.5698800000000  0.5259090000000 1.0
C      1  0.5713890000000  0.5301410000000  0.5527060000000 1.0
C      1  0.5314050000000  0.5606810000000  0.5779090000000 1.0
C      1  0.5456740000000  0.4292970000000  0.4694510000000 1.0
C      1  0.4493340000000  0.5698490000000  0.4687720000000 1.0
C      1  0.4404870000000  0.4250730000000  0.5288920000000 1.0
C      1  0.5795610000000  0.4672340000000  0.4518770000000 1.0
C      1  0.4171720000000  0.5310030000000  0.4473230000000 1.0
C      1  0.4226280000000  0.4709740000000  0.5537310000000 1.0
C      1  0.5367090000000  0.4534920000000  0.4206200000000 1.0
C      1  0.4669250000000  0.5450610000000  0.4244030000000 1.0
C      1  0.4719410000000  0.4512330000000  0.5671220000000 1.0
C      1  0.5498060000000  0.5355440000000  0.5768130000000 1.0
C      1  0.5732810000000  0.5493960000000  0.5274560000000 1.0
C      1  0.5330940000000  0.5758400000000  0.5491240000000 1.0
C      1  0.5559820000000  0.4751280000000  0.4317550000000 1.0
C      1  0.4484290000000  0.4699720000000  0.5743030000000 1.0
C      1  0.4420840000000  0.5266100000000  0.4268730000000 1.0
C      1  0.5764960000000  0.4408210000000  0.4681170000000 1.0
C      1  0.4197060000000  0.4505190000000  0.5310630000000 1.0
C      1  0.4225460000000  0.5517440000000  0.4704390000000 1.0
C      1  0.5293020000000  0.4326750000000  0.4435580000000 1.0
C      1  0.4659280000000  0.4260340000000  0.5471410000000 1.0
C      1  0.4722680000000  0.5650140000000  0.4488590000000 1.0
C      1  0.4630120000000  0.5217470000000  0.5638510000000 1.0
C      1  0.5258920000000  0.5670140000000  0.4596260000000 1.0
C      1  0.5608320000000  0.4575920000000  0.5161830000000 1.0
C      1  0.4654340000000  0.4796960000000  0.4387690000000 1.0
C      1  0.5414430000000  0.5267390000000  0.4366780000000 1.0
C      1  0.5436960000000  0.4856910000000  0.5571780000000 1.0
C      1  0.5181550000000  0.4421030000000  0.5433660000000 1.0
C      1  0.4849050000000  0.5547350000000  0.5365340000000 1.0
C      1  0.4803560000000  0.4414940000000  0.4637870000000 1.0
C      1  0.5650760000000  0.5406290000000  0.4800840000000 1.0
C      1  0.4448490000000  0.4701060000000  0.4855650000000 1.0
C      1  0.4376630000000  0.5383180000000  0.5211940000000 1.0
C      1  0.4648590000000  0.5550320000000  0.5185650000000 1.0
C      1  0.5238820000000  0.4670540000000  0.5624880000000 1.0
C      1  0.5648770000000  0.5209170000000  0.4580250000000 1.0
C      1  0.4619780000000  0.4434420000000  0.4837260000000 1.0
C      1  0.5369250000000  0.4381240000000  0.5234350000000 1.0
C      1  0.5478540000000  0.5666490000000  0.4781920000000 1.0
C      1  0.5205980000000  0.5450720000000  0.4370570000000 1.0
C      1  0.4839890000000  0.5394430000000  0.5627740000000 1.0
C      1  0.4860540000000  0.4612590000000  0.4399710000000 1.0
C      1  0.5622990000000  0.4801460000000  0.5324440000000 1.0
C      1  0.4435350000000  0.4848780000000  0.4618810000000 1.0
C      1  0.4357660000000  0.5229540000000  0.5448230000000 1.0
C      1  0.5544720000000  0.4203920000000  0.5008520000000 1.0
C      1  0.4134020000000  0.5030130000000  0.5604780000000 1.0
C      1  0.4976320000000  0.5569380000000  0.4169930000000 1.0
C      1  0.5398700000000  0.5785980000000  0.5021910000000 1.0
C      1  0.4464380000000  0.4181190000000  0.4971190000000 1.0
C      1  0.4422180000000  0.5728190000000  0.5014950000000 1.0
C      1  0.4192060000000  0.4973720000000  0.4416720000000 1.0
C      1  0.5857910000000  0.4994000000000  0.4425870000000 1.0
C      1  0.5813290000000  0.4984890000000  0.5541020000000 1.0
C      1  0.5017790000000  0.4486810000000  0.5803920000000 1.0
C      1  0.4999150000000  0.5549620000000  0.5864770000000 1.0
C      1  0.5035600000000  0.4467650000000  0.4164840000000 1.0
C      1  0.5600690000000  0.5049730000000  0.4198130000000 1.0
C      1  0.4144410000000  0.5515610000000  0.5023720000000 1.0
C      1  0.4975940000000  0.4219540000000  0.5582980000000 1.0
C      1  0.5593020000000  0.5030760000000  0.5804390000000 1.0
C      1  0.4445710000000  0.4953200000000  0.4178590000000 1.0
C      1  0.4416240000000  0.5021910000000  0.5808820000000 1.0
C      1  0.4249430000000  0.4456960000000  0.4983850000000 1.0
C      1  0.5837060000000  0.4392020000000  0.5006620000000 1.0
C      1  0.5854650000000  0.5370070000000  0.5041440000000 1.0
C      1  0.5001320000000  0.5805530000000  0.4426880000000 1.0
C      1  0.5001710000000  0.5756400000000  0.5579730000000 1.0
C      1  0.4982720000000  0.4232570000000  0.4416590000000 1.0
C      1  0.5211800000000  0.4112520000000  0.4989760000000 1.0
C      1  0.4094230000000  0.4978220000000  0.5267150000000 1.0
C      1  0.5015900000000  0.5238100000000  0.4079770000000 1.0
C      1  0.5119510000000  0.5889330000000  0.5021800000000 1.0
C      1  0.4800330000000  0.4108250000000  0.4979400000000 1.0
C      1  0.4721980000000  0.5902860000000  0.5019670000000 1.0
C      1  0.4084960000000  0.4986780000000  0.4743850000000 1.0
C      1  0.5969940000000  0.4940800000000  0.4746770000000 1.0
C      1  0.5994930000000  0.4917980000000  0.5260480000000 1.0
C      1  0.4998560000000  0.4815550000000  0.5906450000000 1.0
C      1  0.4998690000000  0.5214480000000  0.5944180000000 1.0
C      1  0.5022670000000  0.4803180000000  0.4087980000000 1.0
C      1  0.5274210000000  0.5016810000000  0.4093620000000 1.0
C      1  0.4095680000000  0.5175590000000  0.5014570000000 1.0
C      1  0.4999080000000  0.4114470000000  0.5255210000000 1.0
C      1  0.5260740000000  0.5019580000000  0.5891470000000 1.0
C      1  0.4767830000000  0.5005500000000  0.4070730000000 1.0
C      1  0.4726340000000  0.5011640000000  0.5962960000000 1.0
C      1  0.4085460000000  0.4764540000000  0.5001250000000 1.0
C      1  0.5950310000000  0.4715150000000  0.5001230000000 1.0
C      1  0.5981380000000  0.5111300000000  0.5018070000000 1.0
C      1  0.4932840000000  0.5898360000000  0.4751760000000 1.0
C      1  0.4938050000000  0.5922970000000  0.5283260000000 1.0
C      1  0.5019760000000  0.4098520000000  0.4731100000000 1.0
C      1  0.4678230000000  0.5116010000000  0.4455590000000 1.0
C      1  0.5115030000000  0.4496390000000  0.4682730000000 1.0
C      1  0.4424130000000  0.4746670000000  0.5192180000000 1.0
C      1  0.4723450000000  0.4901610000000  0.5586790000000 1.0
C      1  0.5342840000000  0.5157120000000  0.5524980000000 1.0
C      1  0.5344160000000  0.4967680000000  0.4489740000000 1.0
C      1  0.5154920000000  0.5564830000000  0.5264680000000 1.0
C      1  0.4872640000000  0.4484250000000  0.5306280000000 1.0
C      1  0.4976750000000  0.5509510000000  0.4688970000000 1.0
C      1  0.4477930000000  0.5353440000000  0.4888520000000 1.0
C      1  0.5573340000000  0.4641850000000  0.4847020000000 1.0
C      1  0.5468380000000  0.5279460000000  0.5032820000000 1.0
C      1  0.4612160000000  0.4497700000000  0.5156250000000 1.0
C      1  0.5183260000000  0.4710990000000  0.4440590000000 1.0
C      1  0.4429810000000  0.5178510000000  0.4657290000000 1.0
C      1  0.4740520000000  0.5537470000000  0.4870290000000 1.0
C      1  0.5207000000000  0.5382850000000  0.5037900000000 1.0
C      1  0.5292840000000  0.4499520000000  0.4929530000000 1.0
C      1  0.5171040000000  0.5397160000000  0.5543560000000 1.0
C      1  0.4911710000000  0.5301660000000  0.4453400000000 1.0
C      1  0.4942990000000  0.4729980000000  0.5501180000000 1.0
C      1  0.4466490000000  0.4930010000000  0.5417910000000 1.0
C      1  0.5581550000000  0.4894720000000  0.4689680000000 1.0
C      1  0.5554660000000  0.5128430000000  0.5273760000000 1.0
C      1  0.5018980000000  0.5213520000000  0.4950350000000 1.0
C      1  0.4700260000000  0.5059000000000  0.5132760000000 1.0
C      1  0.5097390000000  0.4761660000000  0.5128490000000 1.0
C      1  0.4821520000000  0.4798500000000  0.4749680000000 1.0
C      1  0.4912080000000  0.4920300000000  0.4982300000000 1.0
END
