TITL C-2782226-7400-1500 0.000264388504440399 125000 -395.291969357187 0 0 67 (C1) n - 1
REM
REM in /home/nfs/bkarasulu/CARBON/AIRSS/Generating-Clusters/REBO/Higher-Symm/SD-CG/HFTN-CG
REM
REM
REM
REM
REM
REM ./C.cell (12c818d87b63d06a65506943cc24bca4)
REM
REM compiler GCC version 9.2.1 20190827 (Red Hat 9.2.1-1)
REM options -cpp -mtune=generic -march=x86-64 -g -O0 -fpre-include=/usr/include/finclude/math-vector-fortran.h
REM seed 1579173252 1533785905 2006572546 -1470024591 -1273514380 1123557808 72936776 1082028118 -412090492 1429621409 -975926075 1486280849 605338556 1851916072 -457574340 1206803504 -914052361 -990120405 -675118308 257310871 834260283 -487973849 1735360402 590735473 -1305157660 1463620865 -1815744767 -465070041 443837860 1336339981 -736829460 -2055491764 -181541570
REM
CELL 1.54180   50.00000   50.00000   50.00000   90.00000   90.00000   90.00000
LATT -1
SFAC C  
C      1  0.4696500000000  0.4319530000000  0.5224170000000 1.0
C      1  0.4629710000000  0.4324010000000  0.4902310000000 1.0
C      1  0.4840680000000  0.4329580000000  0.4652970000000 1.0
C      1  0.5164760000000  0.4331440000000  0.4663230000000 1.0
C      1  0.5358630000000  0.4329250000000  0.4920050000000 1.0
C      1  0.5282000000000  0.4324470000000  0.5231610000000 1.0
C      1  0.4989590000000  0.4320180000000  0.5369130000000 1.0
C      1  0.4799450000000  0.5562380000000  0.5599490000000 1.0
C      1  0.4402480000000  0.5568620000000  0.5220760000000 1.0
C      1  0.4438980000000  0.5571860000000  0.4674020000000 1.0
C      1  0.4888440000000  0.5565050000000  0.4360860000000 1.0
C      1  0.5414180000000  0.5560190000000  0.4524230000000 1.0
C      1  0.5614700000000  0.5559090000000  0.5038470000000 1.0
C      1  0.5343650000000  0.5558570000000  0.5519190000000 1.0
C      1  0.5644190000000  0.4818170000000  0.5058910000000 1.0
C      1  0.5347240000000  0.4814020000000  0.5543970000000 1.0
C      1  0.4791720000000  0.4813380000000  0.5610300000000 1.0
C      1  0.4396080000000  0.4818420000000  0.5225160000000 1.0
C      1  0.4438750000000  0.4823360000000  0.4679360000000 1.0
C      1  0.4898610000000  0.4818720000000  0.4353550000000 1.0
C      1  0.5443790000000  0.4818140000000  0.4522640000000 1.0
C      1  0.5416350000000  0.5307880000000  0.5641160000000 1.0
C      1  0.4749310000000  0.5308000000000  0.5724680000000 1.0
C      1  0.4277940000000  0.5312910000000  0.5260410000000 1.0
C      1  0.4326100000000  0.5316890000000  0.4603920000000 1.0
C      1  0.4870010000000  0.5312650000000  0.4223590000000 1.0
C      1  0.5517560000000  0.5311440000000  0.4422820000000 1.0
C      1  0.5760730000000  0.5311910000000  0.5056410000000 1.0
C      1  0.5328230000000  0.5181940000000  0.5127900000000 1.0
C      1  0.5088780000000  0.5170100000000  0.5324150000000 1.0
C      1  0.4817200000000  0.5151620000000  0.5258710000000 1.0
C      1  0.4686300000000  0.5148620000000  0.5013650000000 1.0
C      1  0.4777910000000  0.5158040000000  0.4751900000000 1.0
C      1  0.5035440000000  0.5176330000000  0.4643960000000 1.0
C      1  0.5299330000000  0.5178540000000  0.4804980000000 1.0
C      1  0.4631380000000  0.4642670000000  0.5140640000000 1.0
C      1  0.4657180000000  0.4648830000000  0.4803660000000 1.0
C      1  0.4937520000000  0.4653620000000  0.4610810000000 1.0
C      1  0.5263410000000  0.4654010000000  0.4710740000000 1.0
C      1  0.5387680000000  0.4650570000000  0.5028580000000 1.0
C      1  0.5215650000000  0.4645170000000  0.5323060000000 1.0
C      1  0.4878820000000  0.4641190000000  0.5372120000000 1.0
C      1  0.4595810000000  0.5647300000000  0.5416450000000 1.0
C      1  0.4413200000000  0.5653180000000  0.4947220000000 1.0
C      1  0.4659650000000  0.5650580000000  0.4509460000000 1.0
C      1  0.5154730000000  0.5640100000000  0.4434870000000 1.0
C      1  0.5519130000000  0.5635970000000  0.4780030000000 1.0
C      1  0.5484080000000  0.5635430000000  0.5281920000000 1.0
C      1  0.5073160000000  0.5639540000000  0.5568240000000 1.0
C      1  0.4241140000000  0.5068190000000  0.4773410000000 1.0
C      1  0.4695110000000  0.5058350000000  0.4276690000000 1.0
C      1  0.5375870000000  0.5053580000000  0.4316460000000 1.0
C      1  0.5760650000000  0.5054630000000  0.4880350000000 1.0
C      1  0.5560800000000  0.5051690000000  0.5533560000000 1.0
C      1  0.4926300000000  0.5054090000000  0.5779820000000 1.0
C      1  0.4347650000000  0.5062900000000  0.5435250000000 1.0
C      1  0.5176210000000  0.5087200000000  0.5617640000000 1.0
C      1  0.4638590000000  0.5088000000000  0.5511240000000 1.0
C      1  0.4378490000000  0.5092040000000  0.5042660000000 1.0
C      1  0.4556970000000  0.5096940000000  0.4538380000000 1.0
C      1  0.5083250000000  0.5092760000000  0.4339730000000 1.0
C      1  0.5566180000000  0.5091970000000  0.4660600000000 1.0
C      1  0.5607110000000  0.5090720000000  0.5243040000000 1.0
C      1  0.4990770000000  0.4462940000000  0.4997090000000 1.0
C      1  0.4993080000000  0.4189460000000  0.4993090000000 1.0
C      1  0.5117340000000  0.4958020000000  0.4986390000000 1.0
C      1  0.4996810000000  0.4729160000000  0.4999080000000 1.0
END
