TITL C-2782230-7391-114 -0.00182162561369577 125000 -1055.60777068707 0 0 179 (C1) n - 1
REM
REM in /home/nfs/bkarasulu/CARBON/AIRSS/Generating-Clusters/REBO/Higher-Symm/SD-CG/HFTN-CG
REM
REM
REM
REM
REM
REM ./C.cell (12c818d87b63d06a65506943cc24bca4)
REM
REM compiler GCC version 9.2.1 20190827 (Red Hat 9.2.1-1)
REM options -cpp -mtune=generic -march=x86-64 -g -O0 -fpre-include=/usr/include/finclude/math-vector-fortran.h
REM seed -2139397355 1918933358 1174008068 -737152913 -11699297 -1000908263 -1149451670 516022273 -517946750 613489068 -973006653 -630219904 -2084057578 -1683329969 -236839251 -1855500491 -291909203 673974236 -2026446341 1792317099 1798243572 938587098 848967714 572828825 -2000592641 1922833744 -1042172060 1150553499 -1482058060 951162697 -198837836 -1480077772 -837251368
REM
CELL 1.54180   50.00000   50.00000   50.00000   90.00000   90.00000   90.00000
LATT -1
SFAC C  
C      1  0.4376440000000  0.4279840000000  0.5505510000000 1.0
C      1  0.4367020000000  0.5219180000000  0.5868920000000 1.0
C      1  0.4406000000000  0.5755540000000  0.5037050000000 1.0
C      1  0.4389680000000  0.5283870000000  0.4148960000000 1.0
C      1  0.4361170000000  0.4295400000000  0.4467810000000 1.0
C      1  0.5085050000000  0.4493260000000  0.5039090000000 1.0
C      1  0.5107540000000  0.4838400000000  0.5601480000000 1.0
C      1  0.5055840000000  0.5476960000000  0.5439230000000 1.0
C      1  0.5202210000000  0.5419650000000  0.4717060000000 1.0
C      1  0.5088290000000  0.4843620000000  0.4589970000000 1.0
C      1  0.5322480000000  0.4876720000000  0.3936520000000 1.0
C      1  0.5350780000000  0.3991640000000  0.4812130000000 1.0
C      1  0.5373840000000  0.4553810000000  0.5878100000000 1.0
C      1  0.5287240000000  0.5723040000000  0.5803790000000 1.0
C      1  0.5420550000000  0.5908120000000  0.4473360000000 1.0
C      1  0.5052070000000  0.4646360000000  0.5947540000000 1.0
C      1  0.4975070000000  0.5785280000000  0.5680910000000 1.0
C      1  0.5095770000000  0.5826090000000  0.4425700000000 1.0
C      1  0.5053720000000  0.4778900000000  0.4089710000000 1.0
C      1  0.5026680000000  0.4018150000000  0.4911100000000 1.0
C      1  0.5018740000000  0.4214720000000  0.5651700000000 1.0
C      1  0.4972590000000  0.5412920000000  0.6058730000000 1.0
C      1  0.5056020000000  0.5987520000000  0.4915960000000 1.0
C      1  0.5018640000000  0.5247410000000  0.3873800000000 1.0
C      1  0.4985290000000  0.4088880000000  0.4464490000000 1.0
C      1  0.4415710000000  0.5723300000000  0.4728970000000 1.0
C      1  0.4356160000000  0.4968200000000  0.4238130000000 1.0
C      1  0.4317480000000  0.4279570000000  0.4799740000000 1.0
C      1  0.4329510000000  0.4587300000000  0.5629090000000 1.0
C      1  0.4294990000000  0.5437710000000  0.5641780000000 1.0
C      1  0.5109610000000  0.5728560000000  0.4728440000000 1.0
C      1  0.5046900000000  0.4996890000000  0.4315960000000 1.0
C      1  0.5055130000000  0.4307830000000  0.4789240000000 1.0
C      1  0.5059240000000  0.4534120000000  0.5634020000000 1.0
C      1  0.4987530000000  0.5467310000000  0.5737320000000 1.0
C      1  0.4492590000000  0.4882770000000  0.4748290000000 1.0
C      1  0.4468960000000  0.4754030000000  0.5049770000000 1.0
C      1  0.4483180000000  0.4999310000000  0.5255750000000 1.0
C      1  0.4444900000000  0.5247160000000  0.5092360000000 1.0
C      1  0.4515390000000  0.5205370000000  0.4793800000000 1.0
C      1  0.4843090000000  0.5101360000000  0.6110020000000 1.0
C      1  0.4840180000000  0.5911740000000  0.5158330000000 1.0
C      1  0.4904040000000  0.5438640000000  0.4115730000000 1.0
C      1  0.4855950000000  0.4345570000000  0.4280790000000 1.0
C      1  0.4846850000000  0.4113330000000  0.5380280000000 1.0
C      1  0.4839230000000  0.5252040000000  0.4363910000000 1.0
C      1  0.4814960000000  0.4427040000000  0.4605900000000 1.0
C      1  0.4834280000000  0.4456620000000  0.5395200000000 1.0
C      1  0.4803860000000  0.5184260000000  0.5780490000000 1.0
C      1  0.4889580000000  0.5630520000000  0.4970820000000 1.0
C      1  0.5557360000000  0.4872110000000  0.4849700000000 1.0
C      1  0.5485240000000  0.4795690000000  0.5112750000000 1.0
C      1  0.5546540000000  0.5017350000000  0.5278090000000 1.0
C      1  0.5575400000000  0.5300410000000  0.5103200000000 1.0
C      1  0.5612390000000  0.5186990000000  0.4817760000000 1.0
C      1  0.4585970000000  0.4500420000000  0.4039100000000 1.0
C      1  0.4560370000000  0.3924280000000  0.5180060000000 1.0
C      1  0.4553100000000  0.4833640000000  0.6075970000000 1.0
C      1  0.4504330000000  0.5910200000000  0.5494310000000 1.0
C      1  0.4631000000000  0.5705750000000  0.4227510000000 1.0
C      1  0.4626490000000  0.4526710000000  0.4856270000000 1.0
C      1  0.4648380000000  0.4739370000000  0.5403590000000 1.0
C      1  0.4735340000000  0.5239690000000  0.5450280000000 1.0
C      1  0.4804760000000  0.5306270000000  0.4933460000000 1.0
C      1  0.4666430000000  0.5010390000000  0.4485050000000 1.0
C      1  0.4459440000000  0.4491720000000  0.5264670000000 1.0
C      1  0.4468940000000  0.5085290000000  0.5576390000000 1.0
C      1  0.4410070000000  0.5509660000000  0.5168970000000 1.0
C      1  0.4456010000000  0.5278150000000  0.4470090000000 1.0
C      1  0.4446320000000  0.4588620000000  0.4582830000000 1.0
C      1  0.4594060000000  0.4978210000000  0.3991030000000 1.0
C      1  0.4557130000000  0.4050740000000  0.4715140000000 1.0
C      1  0.4578650000000  0.4435270000000  0.5811840000000 1.0
C      1  0.4522340000000  0.5587160000000  0.5850520000000 1.0
C      1  0.4639640000000  0.5954010000000  0.4633060000000 1.0
C      1  0.5211140000000  0.5293750000000  0.4291440000000 1.0
C      1  0.5191500000000  0.4360940000000  0.4491620000000 1.0
C      1  0.5194540000000  0.4295150000000  0.5368140000000 1.0
C      1  0.5176160000000  0.5175760000000  0.5923100000000 1.0
C      1  0.5230650000000  0.5837520000000  0.5155420000000 1.0
C      1  0.5521840000000  0.4163020000000  0.4385360000000 1.0
C      1  0.5534440000000  0.4180420000000  0.5542530000000 1.0
C      1  0.5558970000000  0.5280960000000  0.5962620000000 1.0
C      1  0.5557550000000  0.6113540000000  0.4885930000000 1.0
C      1  0.5493900000000  0.5341290000000  0.4016880000000 1.0
C      1  0.4058340000000  0.5336290000000  0.5094230000000 1.0
C      1  0.4122590000000  0.5195100000000  0.4727670000000 1.0
C      1  0.4103480000000  0.4798510000000  0.4763620000000 1.0
C      1  0.4077200000000  0.4547310000000  0.5167170000000 1.0
C      1  0.4087670000000  0.5001370000000  0.5310010000000 1.0
C      1  0.4806530000000  0.4719680000000  0.4473440000000 1.0
C      1  0.4791590000000  0.4371950000000  0.5082270000000 1.0
C      1  0.4806060000000  0.4886840000000  0.5647860000000 1.0
C      1  0.4791890000000  0.5535630000000  0.5282710000000 1.0
C      1  0.4875030000000  0.5422680000000  0.4629590000000 1.0
C      1  0.4585470000000  0.5489250000000  0.4004390000000 1.0
C      1  0.4544840000000  0.4230490000000  0.4214560000000 1.0
C      1  0.4549740000000  0.4014660000000  0.5488210000000 1.0
C      1  0.4512600000000  0.5141460000000  0.6141580000000 1.0
C      1  0.4548230000000  0.5945800000000  0.5202730000000 1.0
C      1  0.4698850000000  0.5207640000000  0.3868990000000 1.0
C      1  0.4673480000000  0.4046110000000  0.4463620000000 1.0
C      1  0.4695620000000  0.4189050000000  0.5735850000000 1.0
C      1  0.4641050000000  0.5438240000000  0.6059740000000 1.0
C      1  0.4774740000000  0.6106370000000  0.4816090000000 1.0
C      1  0.5471900000000  0.4587660000000  0.3863410000000 1.0
C      1  0.5516520000000  0.3835660000000  0.5049860000000 1.0
C      1  0.5553350000000  0.4708260000000  0.6107490000000 1.0
C      1  0.5471620000000  0.5949500000000  0.5642460000000 1.0
C      1  0.5591520000000  0.5761120000000  0.4233180000000 1.0
C      1  0.5326150000000  0.3797390000000  0.5256730000000 1.0
C      1  0.5375620000000  0.4856760000000  0.6267640000000 1.0
C      1  0.5318120000000  0.6082250000000  0.5458480000000 1.0
C      1  0.5419810000000  0.5609110000000  0.4069720000000 1.0
C      1  0.5324330000000  0.4379540000000  0.3968880000000 1.0
C      1  0.4485130000000  0.4223420000000  0.5069660000000 1.0
C      1  0.4489560000000  0.4821010000000  0.5759570000000 1.0
C      1  0.4499120000000  0.5580040000000  0.5452130000000 1.0
C      1  0.4594690000000  0.5562910000000  0.4518450000000 1.0
C      1  0.4520120000000  0.4699000000000  0.4287400000000 1.0
C      1  0.5771100000000  0.4660010000000  0.5532660000000 1.0
C      1  0.5769260000000  0.5483730000000  0.5526420000000 1.0
C      1  0.5784250000000  0.5539440000000  0.4741320000000 1.0
C      1  0.5768290000000  0.4940690000000  0.4218830000000 1.0
C      1  0.5736440000000  0.4380310000000  0.4821490000000 1.0
C      1  0.5740820000000  0.5648140000000  0.4995840000000 1.0
C      1  0.5927640000000  0.5133510000000  0.4433110000000 1.0
C      1  0.5864130000000  0.4579870000000  0.4585370000000 1.0
C      1  0.5760400000000  0.4559410000000  0.5281280000000 1.0
C      1  0.5795150000000  0.5192320000000  0.5537930000000 1.0
C      1  0.5666770000000  0.5674090000000  0.4531330000000 1.0
C      1  0.5630930000000  0.4783880000000  0.4052390000000 1.0
C      1  0.5598820000000  0.4156210000000  0.4983750000000 1.0
C      1  0.5620840000000  0.4771630000000  0.5781830000000 1.0
C      1  0.5600130000000  0.5661060000000  0.5659000000000 1.0
C      1  0.4786240000000  0.5892330000000  0.4398920000000 1.0
C      1  0.4758530000000  0.4746260000000  0.3971970000000 1.0
C      1  0.4718910000000  0.3938020000000  0.4919050000000 1.0
C      1  0.4729560000000  0.4600800000000  0.5989160000000 1.0
C      1  0.4660780000000  0.5810360000000  0.5734180000000 1.0
C      1  0.5592470000000  0.5068310000000  0.5727070000000 1.0
C      1  0.5526350000000  0.5858710000000  0.5038210000000 1.0
C      1  0.5653830000000  0.5244260000000  0.4263710000000 1.0
C      1  0.5584080000000  0.4428760000000  0.4520830000000 1.0
C      1  0.5577870000000  0.4298340000000  0.5259510000000 1.0
C      1  0.5361480000000  0.4536640000000  0.5197270000000 1.0
C      1  0.5292690000000  0.5114240000000  0.5634800000000 1.0
C      1  0.5356990000000  0.5542260000000  0.5091250000000 1.0
C      1  0.5438680000000  0.5256480000000  0.4533290000000 1.0
C      1  0.5349800000000  0.4647260000000  0.4516120000000 1.0
C      1  0.4144830000000  0.4541020000000  0.4885360000000 1.0
C      1  0.4143990000000  0.4727900000000  0.5385500000000 1.0
C      1  0.4129820000000  0.5297480000000  0.5403570000000 1.0
C      1  0.4195200000000  0.5484310000000  0.4832770000000 1.0
C      1  0.4185920000000  0.4978550000000  0.4511330000000 1.0
C      1  0.5789350000000  0.5499670000000  0.5239750000000 1.0
C      1  0.5918700000000  0.5226570000000  0.4731790000000 1.0
C      1  0.5821240000000  0.4846200000000  0.4668380000000 1.0
C      1  0.5841610000000  0.4643830000000  0.5011730000000 1.0
C      1  0.5856190000000  0.5069360000000  0.5268080000000 1.0
C      1  0.5197660000000  0.5258010000000  0.4986860000000 1.0
C      1  0.5109910000000  0.4977690000000  0.4860110000000 1.0
C      1  0.5087870000000  0.4802040000000  0.5076570000000 1.0
C      1  0.5155480000000  0.4928700000000  0.5312440000000 1.0
C      1  0.5224510000000  0.5246910000000  0.5326220000000 1.0
C      1  0.5404720000000  0.3980990000000  0.4512780000000 1.0
C      1  0.5432230000000  0.4282700000000  0.5744820000000 1.0
C      1  0.5425710000000  0.5489780000000  0.5975040000000 1.0
C      1  0.5478290000000  0.6148380000000  0.4650310000000 1.0
C      1  0.5291580000000  0.5171660000000  0.3896590000000 1.0
C      1  0.5108910000000  0.4909820000000  0.6110310000000 1.0
C      1  0.5039370000000  0.5924410000000  0.5413670000000 1.0
C      1  0.5141710000000  0.5615870000000  0.4205330000000 1.0
C      1  0.5118130000000  0.4482700000000  0.4179460000000 1.0
C      1  0.5097530000000  0.4006660000000  0.5217760000000 1.0
C      1  0.5457340000000  0.4924390000000  0.4468000000000 1.0
C      1  0.4005440000000  0.5020790000000  0.4989410000000 1.0
C      1  0.5925490000000  0.4973560000000  0.4966970000000 1.0
C      1  0.4844120000000  0.5155320000000  0.5176000000000 1.0
END
