TITL C-2782225-7408-640 0.00373759734191738 125000 -1104.56772454286 0 0 196 (C1) n - 1
REM
REM in /home/nfs/bkarasulu/CARBON/AIRSS/Generating-Clusters/REBO/Higher-Symm/SD-CG/HFTN-CG
REM
REM
REM
REM
REM
REM ./C.cell (12c818d87b63d06a65506943cc24bca4)
REM
REM compiler GCC version 9.2.1 20190827 (Red Hat 9.2.1-1)
REM options -cpp -mtune=generic -march=x86-64 -g -O0 -fpre-include=/usr/include/finclude/math-vector-fortran.h
REM seed -95705850 -2146622464 -5298816 -750716412 657000144 -2022051165 -217955773 1732251209 539562894 2134478179 1938850989 -2042951152 719356896 587686963 867544233 323198882 393613601 -1629022886 1283560446 -215958221 -1006945362 578409697 -1359115787 -414524199 783620785 1430833065 318753550 1143318084 2069380533 -2004080458 -66729095 -272299690 -597796232
REM
CELL 1.54180   50.00000   50.00000   50.00000   90.00000   90.00000   90.00000
LATT -1
SFAC C  
C      1  0.5005430000000  0.5356750000000  0.5213390000000 1.0
C      1  0.5249920000000  0.4942200000000  0.5419430000000 1.0
C      1  0.5422210000000  0.5203610000000  0.4960760000000 1.0
C      1  0.4984630000000  0.4585870000000  0.4806780000000 1.0
C      1  0.5037940000000  0.4577630000000  0.5202350000000 1.0
C      1  0.4980520000000  0.5441640000000  0.4823770000000 1.0
C      1  0.5187030000000  0.5056920000000  0.4565940000000 1.0
C      1  0.4770870000000  0.5024430000000  0.5434980000000 1.0
C      1  0.4795340000000  0.4985290000000  0.4581790000000 1.0
C      1  0.5438270000000  0.4806200000000  0.5000030000000 1.0
C      1  0.4578430000000  0.4781830000000  0.4980550000000 1.0
C      1  0.4557770000000  0.5176370000000  0.5031950000000 1.0
C      1  0.5045150000000  0.5172980000000  0.5450960000000 1.0
C      1  0.5233060000000  0.5427590000000  0.5022860000000 1.0
C      1  0.5444110000000  0.5024560000000  0.5217630000000 1.0
C      1  0.5027340000000  0.4778750000000  0.4579820000000 1.0
C      1  0.4953060000000  0.5260530000000  0.4572240000000 1.0
C      1  0.4986680000000  0.4779540000000  0.5423410000000 1.0
C      1  0.5250300000000  0.4570550000000  0.4976900000000 1.0
C      1  0.4744510000000  0.5416640000000  0.5054790000000 1.0
C      1  0.4772780000000  0.4559070000000  0.5035320000000 1.0
C      1  0.5426090000000  0.4986480000000  0.4739220000000 1.0
C      1  0.4562640000000  0.5016490000000  0.4768190000000 1.0
C      1  0.4553230000000  0.4957240000000  0.5242910000000 1.0
C      1  0.5955350000000  0.4914220000000  0.5222540000000 1.0
C      1  0.5231370000000  0.5952700000000  0.4909080000000 1.0
C      1  0.4916380000000  0.5212110000000  0.5962160000000 1.0
C      1  0.5940490000000  0.5058040000000  0.4795770000000 1.0
C      1  0.4035050000000  0.5062890000000  0.5220110000000 1.0
C      1  0.4043020000000  0.4919910000000  0.4785910000000 1.0
C      1  0.5220570000000  0.4053440000000  0.5070920000000 1.0
C      1  0.4781210000000  0.4040390000000  0.4927920000000 1.0
C      1  0.4783370000000  0.5889530000000  0.5021090000000 1.0
C      1  0.4922950000000  0.4793510000000  0.4069290000000 1.0
C      1  0.5061350000000  0.4798700000000  0.5938520000000 1.0
C      1  0.5070060000000  0.5228670000000  0.4051160000000 1.0
C      1  0.5908040000000  0.5247000000000  0.5010110000000 1.0
C      1  0.5253600000000  0.5009510000000  0.5903940000000 1.0
C      1  0.4999520000000  0.5865840000000  0.5220760000000 1.0
C      1  0.5911210000000  0.4721280000000  0.5002840000000 1.0
C      1  0.4050480000000  0.5253130000000  0.5001240000000 1.0
C      1  0.4088440000000  0.4733540000000  0.5005360000000 1.0
C      1  0.5256320000000  0.5006990000000  0.4093330000000 1.0
C      1  0.4740830000000  0.5019210000000  0.4125750000000 1.0
C      1  0.4720010000000  0.4997120000000  0.5914260000000 1.0
C      1  0.4999990000000  0.4081370000000  0.4741160000000 1.0
C      1  0.5019660000000  0.5936800000000  0.4705190000000 1.0
C      1  0.5000100000000  0.4097320000000  0.5255190000000 1.0
C      1  0.4554160000000  0.4803130000000  0.5678090000000 1.0
C      1  0.5676310000000  0.4556970000000  0.4807900000000 1.0
C      1  0.4785000000000  0.5708470000000  0.4609300000000 1.0
C      1  0.4595360000000  0.5237050000000  0.4353190000000 1.0
C      1  0.5410840000000  0.5203810000000  0.5666290000000 1.0
C      1  0.5396250000000  0.4807770000000  0.4340530000000 1.0
C      1  0.5665660000000  0.5401040000000  0.5200750000000 1.0
C      1  0.4305650000000  0.5390280000000  0.4814520000000 1.0
C      1  0.4324500000000  0.4574530000000  0.5203140000000 1.0
C      1  0.4798380000000  0.4335340000000  0.5404460000000 1.0
C      1  0.5198550000000  0.4325840000000  0.4600280000000 1.0
C      1  0.5200720000000  0.5647680000000  0.5397920000000 1.0
C      1  0.4559470000000  0.5691670000000  0.4851340000000 1.0
C      1  0.5696230000000  0.4860500000000  0.4676750000000 1.0
C      1  0.4863100000000  0.4678330000000  0.5690120000000 1.0
C      1  0.4650020000000  0.4289490000000  0.5109950000000 1.0
C      1  0.5345190000000  0.5702680000000  0.5103640000000 1.0
C      1  0.5363640000000  0.4299650000000  0.4892110000000 1.0
C      1  0.5708200000000  0.5102090000000  0.5346050000000 1.0
C      1  0.4285880000000  0.4870680000000  0.5347420000000 1.0
C      1  0.4294460000000  0.5102580000000  0.4648340000000 1.0
C      1  0.4889080000000  0.5381040000000  0.4294890000000 1.0
C      1  0.5105180000000  0.4651510000000  0.4311700000000 1.0
C      1  0.5102260000000  0.5333510000000  0.5708880000000 1.0
C      1  0.4159270000000  0.4631930000000  0.5559950000000 1.0
C      1  0.5559200000000  0.4165740000000  0.4642760000000 1.0
C      1  0.4642410000000  0.5576510000000  0.4153450000000 1.0
C      1  0.4164140000000  0.5349150000000  0.4446350000000 1.0
C      1  0.5832510000000  0.5345910000000  0.5556100000000 1.0
C      1  0.5828510000000  0.4635600000000  0.4450520000000 1.0
C      1  0.5551610000000  0.5828080000000  0.5349630000000 1.0
C      1  0.4419620000000  0.5868160000000  0.4593920000000 1.0
C      1  0.4443710000000  0.4162520000000  0.5354330000000 1.0
C      1  0.4642800000000  0.4446260000000  0.5823300000000 1.0
C      1  0.5348890000000  0.4449900000000  0.4175280000000 1.0
C      1  0.5338410000000  0.5556000000000  0.5830620000000 1.0
C      1  0.4182650000000  0.5641510000000  0.4622020000000 1.0
C      1  0.5641340000000  0.4624540000000  0.4201960000000 1.0
C      1  0.4621330000000  0.4187060000000  0.5645240000000 1.0
C      1  0.4172430000000  0.4339710000000  0.5382620000000 1.0
C      1  0.5808920000000  0.5640140000000  0.5381900000000 1.0
C      1  0.5832190000000  0.4335010000000  0.4612980000000 1.0
C      1  0.5639400000000  0.5391220000000  0.5815250000000 1.0
C      1  0.4338340000000  0.4602950000000  0.5831380000000 1.0
C      1  0.4351670000000  0.5399640000000  0.4191750000000 1.0
C      1  0.4632640000000  0.5830990000000  0.4330710000000 1.0
C      1  0.5378520000000  0.4188790000000  0.4353260000000 1.0
C      1  0.5361250000000  0.5814520000000  0.5634110000000 1.0
C      1  0.4097230000000  0.5447730000000  0.5636670000000 1.0
C      1  0.5618480000000  0.4105020000000  0.5407650000000 1.0
C      1  0.5406080000000  0.5631230000000  0.4111150000000 1.0
C      1  0.4102750000000  0.4575860000000  0.4389980000000 1.0
C      1  0.5899000000000  0.4568580000000  0.5620200000000 1.0
C      1  0.5903140000000  0.5441750000000  0.4362040000000 1.0
C      1  0.5620670000000  0.5886210000000  0.4579910000000 1.0
C      1  0.4392740000000  0.5876720000000  0.5380720000000 1.0
C      1  0.4383910000000  0.4099240000000  0.4578180000000 1.0
C      1  0.5438940000000  0.4356790000000  0.5902370000000 1.0
C      1  0.4581400000000  0.4388010000000  0.4110730000000 1.0
C      1  0.4585690000000  0.5627900000000  0.5886500000000 1.0
C      1  0.4179530000000  0.5622620000000  0.5355480000000 1.0
C      1  0.5627250000000  0.5379980000000  0.4173070000000 1.0
C      1  0.5366630000000  0.4171000000000  0.5626650000000 1.0
C      1  0.4179670000000  0.4362870000000  0.4645010000000 1.0
C      1  0.5826180000000  0.5622590000000  0.4639620000000 1.0
C      1  0.5813910000000  0.4374260000000  0.5352980000000 1.0
C      1  0.5636200000000  0.4624840000000  0.5829470000000 1.0
C      1  0.4366410000000  0.5373640000000  0.5831470000000 1.0
C      1  0.4370960000000  0.4643180000000  0.4191970000000 1.0
C      1  0.5347830000000  0.5818340000000  0.4387410000000 1.0
C      1  0.4644020000000  0.4182630000000  0.4374370000000 1.0
C      1  0.4641790000000  0.5799840000000  0.5598320000000 1.0
C      1  0.4564040000000  0.4315810000000  0.4738610000000 1.0
C      1  0.4733660000000  0.4566040000000  0.4335910000000 1.0
C      1  0.4320720000000  0.4728210000000  0.4576320000000 1.0
C      1  0.4564790000000  0.5639270000000  0.5240780000000 1.0
C      1  0.5444720000000  0.5661290000000  0.4737430000000 1.0
C      1  0.5427740000000  0.4331950000000  0.5267470000000 1.0
C      1  0.4732760000000  0.5424070000000  0.5680190000000 1.0
C      1  0.5265130000000  0.5435380000000  0.4331950000000 1.0
C      1  0.5260880000000  0.4548190000000  0.5701660000000 1.0
C      1  0.4292450000000  0.5253210000000  0.5458410000000 1.0
C      1  0.5700470000000  0.5255040000000  0.4545610000000 1.0
C      1  0.5680250000000  0.4735260000000  0.5449950000000 1.0
C      1  0.4572500000000  0.4817820000000  0.4421550000000 1.0
C      1  0.4822740000000  0.4402430000000  0.4586350000000 1.0
C      1  0.4401400000000  0.4564260000000  0.4827740000000 1.0
C      1  0.4551530000000  0.5181050000000  0.5605860000000 1.0
C      1  0.5423680000000  0.4795990000000  0.5616340000000 1.0
C      1  0.5444420000000  0.5183690000000  0.4393650000000 1.0
C      1  0.4827370000000  0.5564320000000  0.5415800000000 1.0
C      1  0.5173030000000  0.4400070000000  0.5446140000000 1.0
C      1  0.5178450000000  0.5589920000000  0.4592940000000 1.0
C      1  0.4372570000000  0.5384950000000  0.5193490000000 1.0
C      1  0.5587690000000  0.4588530000000  0.5190840000000 1.0
C      1  0.5608640000000  0.5403660000000  0.4802420000000 1.0
C      1  0.4609550000000  0.6077350000000  0.4789100000000 1.0
C      1  0.4823090000000  0.4591500000000  0.6074050000000 1.0
C      1  0.6079400000000  0.4823880000000  0.4585180000000 1.0
C      1  0.4576130000000  0.3905660000000  0.5170690000000 1.0
C      1  0.5416890000000  0.3913330000000  0.4824730000000 1.0
C      1  0.5433610000000  0.6085010000000  0.5156620000000 1.0
C      1  0.4825780000000  0.5425740000000  0.3906960000000 1.0
C      1  0.5165620000000  0.5414620000000  0.6090500000000 1.0
C      1  0.5168250000000  0.4597940000000  0.3924850000000 1.0
C      1  0.6090370000000  0.5162520000000  0.5423270000000 1.0
C      1  0.3909420000000  0.5168410000000  0.4587100000000 1.0
C      1  0.3904820000000  0.4824380000000  0.5434290000000 1.0
C      1  0.4525720000000  0.4761290000000  0.6069880000000 1.0
C      1  0.4786920000000  0.6086940000000  0.4497090000000 1.0
C      1  0.6068270000000  0.4532090000000  0.4762320000000 1.0
C      1  0.4543170000000  0.5241850000000  0.3959130000000 1.0
C      1  0.5461440000000  0.4771250000000  0.3951600000000 1.0
C      1  0.5456240000000  0.5237520000000  0.6058430000000 1.0
C      1  0.4764450000000  0.3943650000000  0.5452800000000 1.0
C      1  0.5221820000000  0.6042250000000  0.5419250000000 1.0
C      1  0.5236400000000  0.3937450000000  0.4536190000000 1.0
C      1  0.6056580000000  0.5450530000000  0.5242340000000 1.0
C      1  0.3932580000000  0.4541480000000  0.5243760000000 1.0
C      1  0.3922800000000  0.5463790000000  0.4759280000000 1.0
C      1  0.4842600000000  0.4495010000000  0.3946240000000 1.0
C      1  0.3933330000000  0.4842720000000  0.4483050000000 1.0
C      1  0.4479000000000  0.3931110000000  0.4843420000000 1.0
C      1  0.4842840000000  0.5523440000000  0.6058490000000 1.0
C      1  0.5149110000000  0.5532610000000  0.3939320000000 1.0
C      1  0.5141540000000  0.4480840000000  0.6015460000000 1.0
C      1  0.3979040000000  0.5141690000000  0.5540480000000 1.0
C      1  0.6016830000000  0.5142240000000  0.4478640000000 1.0
C      1  0.6065880000000  0.4836490000000  0.5525330000000 1.0
C      1  0.4493040000000  0.6029350000000  0.5108390000000 1.0
C      1  0.5535240000000  0.6066360000000  0.4831550000000 1.0
C      1  0.5521530000000  0.3935380000000  0.5149520000000 1.0
C      1  0.4923050000000  0.4027140000000  0.4424650000000 1.0
C      1  0.4030410000000  0.4416630000000  0.4935910000000 1.0
C      1  0.4429650000000  0.4930570000000  0.4052080000000 1.0
C      1  0.4912310000000  0.5947940000000  0.5530910000000 1.0
C      1  0.5078120000000  0.4027700000000  0.5568620000000 1.0
C      1  0.5112320000000  0.6041920000000  0.4401720000000 1.0
C      1  0.4012050000000  0.5572100000000  0.5075260000000 1.0
C      1  0.5987190000000  0.4408000000000  0.5074090000000 1.0
C      1  0.5974430000000  0.5560330000000  0.4925660000000 1.0
C      1  0.4410040000000  0.5077540000000  0.5988300000000 1.0
C      1  0.5565950000000  0.4920560000000  0.5975050000000 1.0
C      1  0.5569470000000  0.5090050000000  0.4025600000000 1.0
C      1  0.4594710000000  0.5424660000000  0.4636760000000 1.0
C      1  0.4590460000000  0.4596920000000  0.5409460000000 1.0
C      1  0.5402890000000  0.4597680000000  0.4608860000000 1.0
C      1  0.5388750000000  0.5381020000000  0.5388070000000 1.0
END
