TITL C-2782231-7322-733 0.00279651803694775 125000 -1114.27127980449 0 0 193 (C1) n - 1
REM
REM in /home/nfs/bkarasulu/CARBON/AIRSS/Generating-Clusters/REBO/Higher-Symm/SD-CG/HFTN-CG
REM
REM
REM
REM
REM
REM ./C.cell (12c818d87b63d06a65506943cc24bca4)
REM
REM compiler GCC version 9.2.1 20190827 (Red Hat 9.2.1-1)
REM options -cpp -mtune=generic -march=x86-64 -g -O0 -fpre-include=/usr/include/finclude/math-vector-fortran.h
REM seed 646361831 -296028296 -17746982 1817519290 -10697674 165924438 -400771502 766309864 1257510655 -1638883117 1298415551 -1884747741 -1879678116 1145230489 -255160805 -882845449 -1077402948 -1527317187 -137402186 793992519 314952600 772862535 1308037142 -1642292195 1540673892 1660021810 831052187 430350436 -1978363854 -197502869 -1792580378 271527634 -602458279
REM
CELL 1.54180   50.00000   50.00000   50.00000   90.00000   90.00000   90.00000
LATT -1
SFAC C  
C      1  0.5077050000000  0.5496490000000  0.5941080000000 1.0
C      1  0.4990570000000  0.5349070000000  0.3980250000000 1.0
C      1  0.3846050000000  0.4919240000000  0.5260600000000 1.0
C      1  0.6088450000000  0.4942580000000  0.4641560000000 1.0
C      1  0.5017050000000  0.4752070000000  0.4696110000000 1.0
C      1  0.4852400000000  0.4725270000000  0.5373850000000 1.0
C      1  0.4986480000000  0.5819330000000  0.4194060000000 1.0
C      1  0.5056690000000  0.5751660000000  0.5817670000000 1.0
C      1  0.4200560000000  0.5489510000000  0.5472850000000 1.0
C      1  0.5759880000000  0.5505110000000  0.4488670000000 1.0
C      1  0.5114560000000  0.4485700000000  0.4311110000000 1.0
C      1  0.4917880000000  0.4454800000000  0.5664310000000 1.0
C      1  0.4424550000000  0.4631290000000  0.5760260000000 1.0
C      1  0.5494970000000  0.4548580000000  0.4413020000000 1.0
C      1  0.5226950000000  0.6057120000000  0.4588610000000 1.0
C      1  0.4787880000000  0.6033540000000  0.5450650000000 1.0
C      1  0.5298280000000  0.5083920000000  0.5007490000000 1.0
C      1  0.4592310000000  0.5084380000000  0.5059950000000 1.0
C      1  0.4012280000000  0.5435260000000  0.5192040000000 1.0
C      1  0.5954490000000  0.5441660000000  0.4749160000000 1.0
C      1  0.4881400000000  0.5320100000000  0.4773630000000 1.0
C      1  0.5048930000000  0.5283330000000  0.5255840000000 1.0
C      1  0.4371500000000  0.5913700000000  0.5128280000000 1.0
C      1  0.5631600000000  0.5898590000000  0.4873940000000 1.0
C      1  0.5573520000000  0.5720870000000  0.4371920000000 1.0
C      1  0.4450840000000  0.5677990000000  0.5605800000000 1.0
C      1  0.4999530000000  0.4135030000000  0.5718670000000 1.0
C      1  0.4983890000000  0.4194300000000  0.4234590000000 1.0
C      1  0.5087570000000  0.5182760000000  0.4440730000000 1.0
C      1  0.4882100000000  0.4960310000000  0.5604490000000 1.0
C      1  0.6120490000000  0.5283450000000  0.5226040000000 1.0
C      1  0.3871560000000  0.5245020000000  0.4678960000000 1.0
C      1  0.5086270000000  0.4841230000000  0.5077210000000 1.0
C      1  0.4758210000000  0.4806380000000  0.4994630000000 1.0
C      1  0.5136540000000  0.5996980000000  0.5013610000000 1.0
C      1  0.4864160000000  0.5990330000000  0.5009680000000 1.0
C      1  0.5660670000000  0.4764690000000  0.4741030000000 1.0
C      1  0.4299390000000  0.4761190000000  0.5267590000000 1.0
C      1  0.5497220000000  0.4219350000000  0.5723710000000 1.0
C      1  0.4674300000000  0.4222950000000  0.4335720000000 1.0
C      1  0.4137250000000  0.4811280000000  0.4524050000000 1.0
C      1  0.5849210000000  0.4829380000000  0.5425290000000 1.0
C      1  0.4285190000000  0.5054620000000  0.5894170000000 1.0
C      1  0.5702010000000  0.5107960000000  0.4015110000000 1.0
C      1  0.4699080000000  0.4089810000000  0.5583420000000 1.0
C      1  0.5229240000000  0.4131560000000  0.4450890000000 1.0
C      1  0.5326450000000  0.5558730000000  0.4770280000000 1.0
C      1  0.4702890000000  0.5606800000000  0.5267500000000 1.0
C      1  0.5196560000000  0.4198650000000  0.5456380000000 1.0
C      1  0.4798330000000  0.4236600000000  0.4714150000000 1.0
C      1  0.5231000000000  0.5025280000000  0.5330640000000 1.0
C      1  0.4803960000000  0.4999340000000  0.4732340000000 1.0
C      1  0.5280410000000  0.4517070000000  0.5464370000000 1.0
C      1  0.4660820000000  0.4476800000000  0.4546620000000 1.0
C      1  0.5811210000000  0.4382910000000  0.4994270000000 1.0
C      1  0.4132020000000  0.4329880000000  0.5016590000000 1.0
C      1  0.4683400000000  0.5568290000000  0.4530730000000 1.0
C      1  0.5396720000000  0.5546620000000  0.5476890000000 1.0
C      1  0.6000120000000  0.5186910000000  0.4943210000000 1.0
C      1  0.3963230000000  0.5173090000000  0.4976590000000 1.0
C      1  0.4562670000000  0.4625400000000  0.4833070000000 1.0
C      1  0.5375140000000  0.4688330000000  0.5175670000000 1.0
C      1  0.5115940000000  0.5115140000000  0.3862900000000 1.0
C      1  0.4828610000000  0.5095570000000  0.6089730000000 1.0
C      1  0.5004590000000  0.4624400000000  0.6167720000000 1.0
C      1  0.4999870000000  0.4638480000000  0.3769780000000 1.0
C      1  0.4593720000000  0.5603150000000  0.4826160000000 1.0
C      1  0.5374870000000  0.5504690000000  0.5162330000000 1.0
C      1  0.4269770000000  0.5181640000000  0.5022350000000 1.0
C      1  0.5692850000000  0.5096990000000  0.4960980000000 1.0
C      1  0.5449030000000  0.4506310000000  0.4100550000000 1.0
C      1  0.4630210000000  0.4471790000000  0.5940750000000 1.0
C      1  0.5570290000000  0.4077750000000  0.5531150000000 1.0
C      1  0.4535810000000  0.4009010000000  0.4483620000000 1.0
C      1  0.4555890000000  0.5216280000000  0.4745940000000 1.0
C      1  0.5541190000000  0.5125870000000  0.5247980000000 1.0
C      1  0.4739910000000  0.5827830000000  0.5717980000000 1.0
C      1  0.5288370000000  0.5887940000000  0.4301510000000 1.0
C      1  0.5222790000000  0.4375510000000  0.4956670000000 1.0
C      1  0.4754070000000  0.4372720000000  0.5130470000000 1.0
C      1  0.4724210000000  0.5747930000000  0.5027230000000 1.0
C      1  0.5277390000000  0.5773250000000  0.5009490000000 1.0
C      1  0.4866650000000  0.5643170000000  0.5484680000000 1.0
C      1  0.5184600000000  0.5664990000000  0.4525270000000 1.0
C      1  0.4646960000000  0.4545490000000  0.5548330000000 1.0
C      1  0.5227930000000  0.4542920000000  0.4593490000000 1.0
C      1  0.5764600000000  0.4384850000000  0.4672950000000 1.0
C      1  0.4187990000000  0.4382150000000  0.5324790000000 1.0
C      1  0.4371830000000  0.4104660000000  0.5112110000000 1.0
C      1  0.5593800000000  0.4127620000000  0.4922120000000 1.0
C      1  0.4506330000000  0.5493100000000  0.4270280000000 1.0
C      1  0.5529410000000  0.5433070000000  0.5759820000000 1.0
C      1  0.4548960000000  0.4050780000000  0.4824100000000 1.0
C      1  0.5425740000000  0.4091170000000  0.5220660000000 1.0
C      1  0.5105120000000  0.4142710000000  0.4734600000000 1.0
C      1  0.4885890000000  0.4134220000000  0.5336220000000 1.0
C      1  0.4332280000000  0.5292650000000  0.4567120000000 1.0
C      1  0.5709340000000  0.5292380000000  0.5434020000000 1.0
C      1  0.5069420000000  0.6050650000000  0.5404040000000 1.0
C      1  0.4945490000000  0.6070310000000  0.4626490000000 1.0
C      1  0.5477470000000  0.4509410000000  0.4810570000000 1.0
C      1  0.4503600000000  0.4499790000000  0.5263350000000 1.0
C      1  0.5682240000000  0.5673820000000  0.5572560000000 1.0
C      1  0.4390310000000  0.5719000000000  0.4502650000000 1.0
C      1  0.4932870000000  0.4481050000000  0.4855350000000 1.0
C      1  0.5045160000000  0.4483690000000  0.5231800000000 1.0
C      1  0.4782270000000  0.4767940000000  0.5868120000000 1.0
C      1  0.5294770000000  0.4732580000000  0.4022330000000 1.0
C      1  0.5566060000000  0.5363880000000  0.4694440000000 1.0
C      1  0.4476660000000  0.5387830000000  0.5293490000000 1.0
C      1  0.4292040000000  0.5082360000000  0.5323130000000 1.0
C      1  0.5516240000000  0.5052190000000  0.4681170000000 1.0
C      1  0.5231700000000  0.3842000000000  0.5124110000000 1.0
C      1  0.4769790000000  0.3823500000000  0.4936010000000 1.0
C      1  0.5007080000000  0.4411010000000  0.3967920000000 1.0
C      1  0.5038530000000  0.4358830000000  0.5974490000000 1.0
C      1  0.4695770000000  0.5277440000000  0.4102070000000 1.0
C      1  0.5295740000000  0.5293980000000  0.5887140000000 1.0
C      1  0.5674790000000  0.4811860000000  0.4407840000000 1.0
C      1  0.4227840000000  0.4798090000000  0.5595260000000 1.0
C      1  0.4082950000000  0.5423680000000  0.4600610000000 1.0
C      1  0.5929530000000  0.5448790000000  0.5353510000000 1.0
C      1  0.4794220000000  0.5920440000000  0.4377610000000 1.0
C      1  0.5236450000000  0.5880350000000  0.5628010000000 1.0
C      1  0.4372250000000  0.4348580000000  0.4791980000000 1.0
C      1  0.5556760000000  0.4408990000000  0.5200660000000 1.0
C      1  0.5521450000000  0.4736380000000  0.5825200000000 1.0
C      1  0.4494380000000  0.4708860000000  0.4172620000000 1.0
C      1  0.5608830000000  0.5921050000000  0.5176950000000 1.0
C      1  0.4361950000000  0.5924220000000  0.4787700000000 1.0
C      1  0.5386470000000  0.5968730000000  0.5340480000000 1.0
C      1  0.4626620000000  0.6007880000000  0.4642990000000 1.0
C      1  0.5763360000000  0.4526290000000  0.5681940000000 1.0
C      1  0.4272980000000  0.4467150000000  0.4273260000000 1.0
C      1  0.4111820000000  0.5712620000000  0.4696590000000 1.0
C      1  0.5858600000000  0.5757680000000  0.5311520000000 1.0
C      1  0.4021430000000  0.4598590000000  0.4839460000000 1.0
C      1  0.5993070000000  0.4631560000000  0.5111050000000 1.0
C      1  0.4669760000000  0.4948240000000  0.4018850000000 1.0
C      1  0.5335040000000  0.4969770000000  0.5990390000000 1.0
C      1  0.5628420000000  0.5430320000000  0.5005870000000 1.0
C      1  0.4365330000000  0.5476470000000  0.4981300000000 1.0
C      1  0.4503510000000  0.5931440000000  0.5384480000000 1.0
C      1  0.5501070000000  0.5925040000000  0.4634590000000 1.0
C      1  0.5375650000000  0.5508220000000  0.4212490000000 1.0
C      1  0.4635220000000  0.5447880000000  0.5777780000000 1.0
C      1  0.5927500000000  0.5194570000000  0.4238260000000 1.0
C      1  0.4139920000000  0.5185230000000  0.5613740000000 1.0
C      1  0.4990880000000  0.4751260000000  0.4174280000000 1.0
C      1  0.5114400000000  0.4702360000000  0.5791720000000 1.0
C      1  0.5951300000000  0.4786390000000  0.4824200000000 1.0
C      1  0.4021130000000  0.4751260000000  0.5128320000000 1.0
C      1  0.4035930000000  0.4559390000000  0.5488840000000 1.0
C      1  0.5886980000000  0.4560310000000  0.4483510000000 1.0
C      1  0.4257670000000  0.4938840000000  0.4252810000000 1.0
C      1  0.5782880000000  0.4929200000000  0.5721580000000 1.0
C      1  0.4402630000000  0.4159500000000  0.5447350000000 1.0
C      1  0.5541370000000  0.4154030000000  0.4586980000000 1.0
C      1  0.3945790000000  0.4919960000000  0.4749230000000 1.0
C      1  0.6032590000000  0.4956510000000  0.5194120000000 1.0
C      1  0.4747770000000  0.4506550000000  0.4160470000000 1.0
C      1  0.5340770000000  0.4454080000000  0.5854540000000 1.0
C      1  0.5366050000000  0.5244440000000  0.4324570000000 1.0
C      1  0.4600480000000  0.5247490000000  0.5568180000000 1.0
C      1  0.5082520000000  0.3863340000000  0.4846780000000 1.0
C      1  0.4926050000000  0.3865400000000  0.5205230000000 1.0
C      1  0.5391130000000  0.5002060000000  0.3924870000000 1.0
C      1  0.4556710000000  0.4957460000000  0.6041200000000 1.0
C      1  0.5125430000000  0.5573710000000  0.4089240000000 1.0
C      1  0.4827630000000  0.5368160000000  0.5977700000000 1.0
C      1  0.4919410000000  0.4901080000000  0.3811890000000 1.0
C      1  0.5050460000000  0.4898700000000  0.6133820000000 1.0
C      1  0.5518410000000  0.4760560000000  0.5473900000000 1.0
C      1  0.4470970000000  0.4745930000000  0.4528280000000 1.0
C      1  0.4131290000000  0.5698120000000  0.5023050000000 1.0
C      1  0.5845840000000  0.5664170000000  0.4983840000000 1.0
C      1  0.4489880000000  0.4250230000000  0.5765880000000 1.0
C      1  0.5489270000000  0.4214210000000  0.4255140000000 1.0
C      1  0.3905860000000  0.5165770000000  0.5371300000000 1.0
C      1  0.6011510000000  0.5195860000000  0.4518160000000 1.0
C      1  0.5096710000000  0.5494540000000  0.5459970000000 1.0
C      1  0.4964890000000  0.5466210000000  0.4501490000000 1.0
C      1  0.5173360000000  0.5029690000000  0.5707840000000 1.0
C      1  0.4907210000000  0.5047750000000  0.4245930000000 1.0
C      1  0.4820360000000  0.5057740000000  0.5294490000000 1.0
C      1  0.5198540000000  0.5022050000000  0.4687820000000 1.0
C      1  0.4492380000000  0.5006770000000  0.5654940000000 1.0
C      1  0.5559160000000  0.5051470000000  0.4283650000000 1.0
C      1  0.4176330000000  0.4478390000000  0.4558120000000 1.0
C      1  0.5814020000000  0.4503660000000  0.5374610000000 1.0
C      1  0.5734350000000  0.5201470000000  0.5714740000000 1.0
C      1  0.4350600000000  0.5198850000000  0.4283630000000 1.0
C      1  0.5093460000000  0.5418130000000  0.4975900000000 1.0
END
