TITL C-2782233-7966-1324 0.00138958791397291 125000 -768.898523900817 0 0 131 (C1) n - 1
REM
REM in /home/nfs/bkarasulu/CARBON/AIRSS/Generating-Clusters/REBO/Higher-Symm/SD-CG/HFTN-CG
REM
REM
REM
REM
REM
REM ./C.cell (12c818d87b63d06a65506943cc24bca4)
REM
REM compiler GCC version 9.2.1 20190827 (Red Hat 9.2.1-1)
REM options -cpp -mtune=generic -march=x86-64 -g -O0 -fpre-include=/usr/include/finclude/math-vector-fortran.h
REM seed -1277061938 1193448496 -286281627 -327947810 -1571175146 1270505679 1982181499 1028761205 633531656 -771765156 754148336 -1163143447 -1447492436 1722007488 -1215717372 1209549281 1177662552 -1869578237 1611543128 2142674322 -828092810 2016139390 -1558099060 -442321643 -294448047 -638183137 -1763660463 -793523173 -1274333874 1223138090 1218848921 504019068 -251116423
REM
CELL 1.54180   50.00000   50.00000   50.00000   90.00000   90.00000   90.00000
LATT -1
SFAC C  
C      1  0.5481830000000  0.4684380000000  0.4314500000000 1.0
C      1  0.5503170000000  0.4494630000000  0.5601710000000 1.0
C      1  0.5504260000000  0.5800430000000  0.5139830000000 1.0
C      1  0.5024530000000  0.5964260000000  0.5349980000000 1.0
C      1  0.5004800000000  0.4803580000000  0.4031090000000 1.0
C      1  0.5020670000000  0.4235140000000  0.5661500000000 1.0
C      1  0.4504060000000  0.5787970000000  0.5208390000000 1.0
C      1  0.4612600000000  0.4721410000000  0.4184530000000 1.0
C      1  0.4529870000000  0.4453540000000  0.5558920000000 1.0
C      1  0.4822470000000  0.4470070000000  0.5405520000000 1.0
C      1  0.4795300000000  0.5641600000000  0.5270890000000 1.0
C      1  0.4842830000000  0.4855500000000  0.4394360000000 1.0
C      1  0.4272790000000  0.5591170000000  0.4585440000000 1.0
C      1  0.4287520000000  0.4260180000000  0.4707620000000 1.0
C      1  0.4276780000000  0.5141740000000  0.5734420000000 1.0
C      1  0.4118120000000  0.5494680000000  0.4854680000000 1.0
C      1  0.4183320000000  0.4511720000000  0.4577170000000 1.0
C      1  0.4156080000000  0.4948840000000  0.5527620000000 1.0
C      1  0.4991290000000  0.5275510000000  0.4251090000000 1.0
C      1  0.5004230000000  0.4205210000000  0.5151520000000 1.0
C      1  0.5023240000000  0.5532600000000  0.5614850000000 1.0
C      1  0.4395550000000  0.4322020000000  0.5000100000000 1.0
C      1  0.4409020000000  0.5387370000000  0.5588000000000 1.0
C      1  0.4379490000000  0.5338290000000  0.4421450000000 1.0
C      1  0.4048630000000  0.5012620000000  0.4687500000000 1.0
C      1  0.4056440000000  0.4711770000000  0.5063780000000 1.0
C      1  0.4059450000000  0.5327370000000  0.5212240000000 1.0
C      1  0.4661520000000  0.4662760000000  0.4694300000000 1.0
C      1  0.4647970000000  0.4937660000000  0.5422180000000 1.0
C      1  0.4653070000000  0.5412970000000  0.4844460000000 1.0
C      1  0.5816280000000  0.5033250000000  0.4812770000000 1.0
C      1  0.5954260000000  0.4838210000000  0.5053040000000 1.0
C      1  0.5931900000000  0.5156970000000  0.5091720000000 1.0
C      1  0.5322870000000  0.4910280000000  0.5883800000000 1.0
C      1  0.5310500000000  0.5826120000000  0.4643850000000 1.0
C      1  0.5319450000000  0.4195560000000  0.4458300000000 1.0
C      1  0.4413070000000  0.4725630000000  0.5507590000000 1.0
C      1  0.4427880000000  0.5598990000000  0.4953950000000 1.0
C      1  0.4457790000000  0.4658570000000  0.4445750000000 1.0
C      1  0.5800300000000  0.5433300000000  0.5448200000000 1.0
C      1  0.5840010000000  0.5119440000000  0.4340810000000 1.0
C      1  0.5786560000000  0.4393320000000  0.5119420000000 1.0
C      1  0.4156360000000  0.5637930000000  0.5161590000000 1.0
C      1  0.4169250000000  0.4821300000000  0.4432260000000 1.0
C      1  0.4117020000000  0.4654170000000  0.5378300000000 1.0
C      1  0.5343700000000  0.4996180000000  0.4570240000000 1.0
C      1  0.5412430000000  0.4709230000000  0.5124600000000 1.0
C      1  0.5396990000000  0.5265300000000  0.5152070000000 1.0
C      1  0.5181050000000  0.5378140000000  0.5819570000000 1.0
C      1  0.5170720000000  0.5516660000000  0.4288150000000 1.0
C      1  0.5165400000000  0.4086120000000  0.4923400000000 1.0
C      1  0.4899280000000  0.4527750000000  0.5102670000000 1.0
C      1  0.4912870000000  0.5345580000000  0.5349630000000 1.0
C      1  0.4881750000000  0.5147970000000  0.4547290000000 1.0
C      1  0.4009040000000  0.4707820000000  0.4774560000000 1.0
C      1  0.4029700000000  0.5007530000000  0.5215720000000 1.0
C      1  0.4010180000000  0.5185900000000  0.4919050000000 1.0
C      1  0.5322990000000  0.4593130000000  0.5803950000000 1.0
C      1  0.5313440000000  0.5918380000000  0.4958970000000 1.0
C      1  0.5299130000000  0.4468650000000  0.4281040000000 1.0
C      1  0.4661510000000  0.4371330000000  0.4808140000000 1.0
C      1  0.4659220000000  0.5171700000000  0.5624020000000 1.0
C      1  0.4653300000000  0.5475650000000  0.4549180000000 1.0
C      1  0.5383970000000  0.4987440000000  0.4260100000000 1.0
C      1  0.5426570000000  0.4276950000000  0.5413200000000 1.0
C      1  0.5437690000000  0.5738630000000  0.5426950000000 1.0
C      1  0.5045020000000  0.5104130000000  0.5934200000000 1.0
C      1  0.5034690000000  0.5776590000000  0.4447740000000 1.0
C      1  0.5037030000000  0.4091820000000  0.4621770000000 1.0
C      1  0.5557750000000  0.4186150000000  0.4668060000000 1.0
C      1  0.5561210000000  0.5093400000000  0.5822010000000 1.0
C      1  0.5551070000000  0.5685620000000  0.4513570000000 1.0
C      1  0.5441010000000  0.5416010000000  0.4869040000000 1.0
C      1  0.5438420000000  0.4734250000000  0.4726450000000 1.0
C      1  0.5468220000000  0.4934980000000  0.5364580000000 1.0
C      1  0.4709890000000  0.5510280000000  0.5649850000000 1.0
C      1  0.4663640000000  0.5319480000000  0.4253200000000 1.0
C      1  0.4680320000000  0.4195050000000  0.5102390000000 1.0
C      1  0.5872440000000  0.4926590000000  0.4537690000000 1.0
C      1  0.5887660000000  0.4629410000000  0.5286580000000 1.0
C      1  0.5901730000000  0.5473280000000  0.5153940000000 1.0
C      1  0.4612490000000  0.5793430000000  0.5515360000000 1.0
C      1  0.4695510000000  0.5030960000000  0.4141340000000 1.0
C      1  0.4651100000000  0.4179650000000  0.5428650000000 1.0
C      1  0.4606310000000  0.5002130000000  0.4688760000000 1.0
C      1  0.4622190000000  0.4724350000000  0.5152770000000 1.0
C      1  0.4627810000000  0.5294480000000  0.5165430000000 1.0
C      1  0.5087010000000  0.5590630000000  0.4715470000000 1.0
C      1  0.5158720000000  0.4393180000000  0.4668060000000 1.0
C      1  0.5105240000000  0.4966090000000  0.5642540000000 1.0
C      1  0.5761750000000  0.4957870000000  0.5694100000000 1.0
C      1  0.5765280000000  0.5671790000000  0.4681370000000 1.0
C      1  0.5764350000000  0.4360110000000  0.4612250000000 1.0
C      1  0.5688670000000  0.4657260000000  0.4943900000000 1.0
C      1  0.5677590000000  0.5178900000000  0.5296240000000 1.0
C      1  0.5528020000000  0.5115440000000  0.4806060000000 1.0
C      1  0.5582220000000  0.5228600000000  0.4275240000000 1.0
C      1  0.5572810000000  0.4219470000000  0.5169700000000 1.0
C      1  0.5588550000000  0.5551110000000  0.5591480000000 1.0
C      1  0.5153560000000  0.4185090000000  0.5417290000000 1.0
C      1  0.5166460000000  0.5781030000000  0.5511850000000 1.0
C      1  0.5125330000000  0.5035380000000  0.4115720000000 1.0
C      1  0.4367800000000  0.5402470000000  0.5296500000000 1.0
C      1  0.4344790000000  0.5076230000000  0.4555510000000 1.0
C      1  0.4350540000000  0.4579470000000  0.5140670000000 1.0
C      1  0.4741060000000  0.4131210000000  0.4607260000000 1.0
C      1  0.4737530000000  0.5084450000000  0.5924870000000 1.0
C      1  0.4725810000000  0.5779680000000  0.4486990000000 1.0
C      1  0.4952720000000  0.4904650000000  0.5273210000000 1.0
C      1  0.4955790000000  0.5290080000000  0.4942660000000 1.0
C      1  0.4948080000000  0.4829270000000  0.4779320000000 1.0
C      1  0.5463420000000  0.5363980000000  0.5779130000000 1.0
C      1  0.5455870000000  0.5483710000000  0.4330530000000 1.0
C      1  0.5447640000000  0.4122230000000  0.4928620000000 1.0
C      1  0.5707720000000  0.4658440000000  0.4532430000000 1.0
C      1  0.5684560000000  0.4717330000000  0.5493600000000 1.0
C      1  0.5694810000000  0.5610170000000  0.4983300000000 1.0
C      1  0.5031770000000  0.4569420000000  0.4189990000000 1.0
C      1  0.5054250000000  0.4498480000000  0.5759210000000 1.0
C      1  0.5050010000000  0.5913880000000  0.5072750000000 1.0
C      1  0.5018880000000  0.4623630000000  0.4520380000000 1.0
C      1  0.4947530000000  0.4712040000000  0.5557660000000 1.0
C      1  0.4950780000000  0.5627200000000  0.4997340000000 1.0
C      1  0.4438430000000  0.5812360000000  0.4549700000000 1.0
C      1  0.4459030000000  0.4095710000000  0.4564780000000 1.0
C      1  0.4444500000000  0.5052920000000  0.5939590000000 1.0
C      1  0.5172370000000  0.5124690000000  0.5365240000000 1.0
C      1  0.5175120000000  0.5263710000000  0.4691340000000 1.0
C      1  0.5163150000000  0.4619680000000  0.4907740000000 1.0
C      1  0.4759480000000  0.5011580000000  0.5004920000000 1.0
C      1  0.5298250000000  0.4982740000000  0.5006700000000 1.0
END
