TITL C-2782236-320-169 0.0249004974790917 125000 -335.305906563589 0 0 58 (C1) n - 1
REM
REM in /home/nfs/bkarasulu/CARBON/AIRSS/Generating-Clusters/REBO/Higher-Symm/SD-CG/HFTN-CG
REM
REM
REM
REM
REM
REM ./C.cell (12c818d87b63d06a65506943cc24bca4)
REM
REM compiler GCC version 9.2.1 20190827 (Red Hat 9.2.1-1)
REM options -cpp -mtune=generic -march=x86-64 -g -O0 -fpre-include=/usr/include/finclude/math-vector-fortran.h
REM seed 383742228 198025935 -978532513 -1306388306 374389759 1593578998 -2092683538 -1821442353 876692694 -1216895869 -1732915052 -1802625095 1768445639 253157481 1944858557 2019463395 -1016126350 -1227753337 1568621669 -2010863692 50851930 1398431156 -1411187394 1712612884 -1096089019 -959442144 1043293976 -484365832 1140920220 -1714548154 -1363539687 -1110825570 -1628199555
REM
CELL 1.54180   50.00000   50.00000   50.00000   90.00000   90.00000   90.00000
LATT -1
SFAC C  
C      1  0.4764090000000  0.5042650000000  0.5729380000000 1.0
C      1  0.4913570000000  0.5300480000000  0.5661460000000 1.0
C      1  0.5211120000000  0.5227310000000  0.5659600000000 1.0
C      1  0.5237350000000  0.4941140000000  0.5703810000000 1.0
C      1  0.4970090000000  0.4816160000000  0.5722300000000 1.0
C      1  0.4282510000000  0.5113660000000  0.4523980000000 1.0
C      1  0.4784950000000  0.5644640000000  0.4574200000000 1.0
C      1  0.5476640000000  0.5347470000000  0.4807840000000 1.0
C      1  0.5480840000000  0.4646800000000  0.4679210000000 1.0
C      1  0.4814150000000  0.4387660000000  0.4588820000000 1.0
C      1  0.4369220000000  0.5240470000000  0.5518860000000 1.0
C      1  0.5147070000000  0.5799770000000  0.5421370000000 1.0
C      1  0.5792000000000  0.4630830000000  0.5514030000000 1.0
C      1  0.5317800000000  0.4308500000000  0.5603010000000 1.0
C      1  0.4432950000000  0.4627210000000  0.5528420000000 1.0
C      1  0.4819680000000  0.4815130000000  0.4344560000000 1.0
C      1  0.4737340000000  0.5137120000000  0.4323970000000 1.0
C      1  0.5020400000000  0.5286020000000  0.4341160000000 1.0
C      1  0.5226810000000  0.5095780000000  0.4412620000000 1.0
C      1  0.5139060000000  0.4822320000000  0.4373400000000 1.0
C      1  0.5309680000000  0.5578020000000  0.4793100000000 1.0
C      1  0.5780680000000  0.4975100000000  0.4900670000000 1.0
C      1  0.5217690000000  0.4268000000000  0.4839420000000 1.0
C      1  0.4413650000000  0.4546430000000  0.4839250000000 1.0
C      1  0.4404020000000  0.5468850000000  0.4821090000000 1.0
C      1  0.5222820000000  0.4387550000000  0.5137390000000 1.0
C      1  0.4617240000000  0.4556370000000  0.5094660000000 1.0
C      1  0.4464270000000  0.5254990000000  0.5053410000000 1.0
C      1  0.5092500000000  0.5635800000000  0.4970780000000 1.0
C      1  0.5707250000000  0.5001760000000  0.5212010000000 1.0
C      1  0.5256070000000  0.4600410000000  0.4500190000000 1.0
C      1  0.4664260000000  0.4577750000000  0.4428670000000 1.0
C      1  0.4486280000000  0.5277870000000  0.4396010000000 1.0
C      1  0.5013370000000  0.5558850000000  0.4417040000000 1.0
C      1  0.5439830000000  0.5135280000000  0.4603640000000 1.0
C      1  0.5663230000000  0.5257880000000  0.5011230000000 1.0
C      1  0.5457010000000  0.4471230000000  0.4913670000000 1.0
C      1  0.4681380000000  0.4358970000000  0.4848500000000 1.0
C      1  0.4259780000000  0.5175410000000  0.4810070000000 1.0
C      1  0.4863530000000  0.5738890000000  0.4834690000000 1.0
C      1  0.4658330000000  0.4666760000000  0.5361900000000 1.0
C      1  0.4575340000000  0.5227560000000  0.5322660000000 1.0
C      1  0.5070880000000  0.5576400000000  0.5265210000000 1.0
C      1  0.5620590000000  0.4807960000000  0.5388180000000 1.0
C      1  0.5209770000000  0.4489960000000  0.5415550000000 1.0
C      1  0.4787310000000  0.4970690000000  0.5391510000000 1.0
C      1  0.4826250000000  0.5408380000000  0.5406160000000 1.0
C      1  0.5205740000000  0.5300360000000  0.5351890000000 1.0
C      1  0.5326490000000  0.4783630000000  0.5437950000000 1.0
C      1  0.4934410000000  0.4620520000000  0.5514870000000 1.0
C      1  0.5257010000000  0.5661440000000  0.4523820000000 1.0
C      1  0.5604330000000  0.4902290000000  0.4679870000000 1.0
C      1  0.5097820000000  0.4372730000000  0.4593720000000 1.0
C      1  0.4408500000000  0.4627310000000  0.4558040000000 1.0
C      1  0.4534020000000  0.5511960000000  0.4562590000000 1.0
C      1  0.4977750000000  0.5060510000000  0.4843680000000 1.0
C      1  0.4885890000000  0.5021600000000  0.4608210000000 1.0
C      1  0.5101470000000  0.5010490000000  0.5334760000000 1.0
END
