TITL C-2782235-7892-129 -0.00135850359101327 125000 -893.467752928761 0 0 153 (C1) n - 1
REM
REM in /home/nfs/bkarasulu/CARBON/AIRSS/Generating-Clusters/REBO/Higher-Symm/SD-CG/HFTN-CG
REM
REM
REM
REM
REM
REM ./C.cell (12c818d87b63d06a65506943cc24bca4)
REM
REM compiler GCC version 9.2.1 20190827 (Red Hat 9.2.1-1)
REM options -cpp -mtune=generic -march=x86-64 -g -O0 -fpre-include=/usr/include/finclude/math-vector-fortran.h
REM seed 985275317 -537844215 1659684353 1976280875 -108557935 -593601497 87608017 -1875231112 2124369071 -198167750 759628591 -10650578 411618226 -200726465 -431875584 -1714793076 80131666 -1195790377 1588006651 1508824882 254219013 -1006975740 691960822 260388541 389288572 -1249065871 469610513 76299803 1196283055 1833233022 -666870394 1950919895 334909139
REM
CELL 1.54180   50.00000   50.00000   50.00000   90.00000   90.00000   90.00000
LATT -1
SFAC C  
C      1  0.4767170000000  0.4233580000000  0.4567410000000 1.0
C      1  0.4342920000000  0.4939520000000  0.5165730000000 1.0
C      1  0.5001220000000  0.5278720000000  0.4912070000000 1.0
C      1  0.4423080000000  0.4704150000000  0.5851310000000 1.0
C      1  0.4191050000000  0.5138710000000  0.4524310000000 1.0
C      1  0.3883510000000  0.4978710000000  0.5172050000000 1.0
C      1  0.4402250000000  0.5342250000000  0.4348790000000 1.0
C      1  0.5547190000000  0.4760120000000  0.4174520000000 1.0
C      1  0.4943010000000  0.4522500000000  0.4987910000000 1.0
C      1  0.5950430000000  0.4762510000000  0.5181560000000 1.0
C      1  0.4564500000000  0.4707510000000  0.4678710000000 1.0
C      1  0.4042150000000  0.5338620000000  0.4734370000000 1.0
C      1  0.5440590000000  0.4083180000000  0.4741280000000 1.0
C      1  0.4938670000000  0.4259700000000  0.5172550000000 1.0
C      1  0.5954650000000  0.4710460000000  0.4844260000000 1.0
C      1  0.5757860000000  0.4562400000000  0.4604990000000 1.0
C      1  0.5171880000000  0.3711780000000  0.5083010000000 1.0
C      1  0.5372950000000  0.4500100000000  0.5322630000000 1.0
C      1  0.5710640000000  0.4503660000000  0.5711170000000 1.0
C      1  0.4170080000000  0.5122870000000  0.4943150000000 1.0
C      1  0.5260750000000  0.5525660000000  0.5837460000000 1.0
C      1  0.4531350000000  0.5610070000000  0.5060460000000 1.0
C      1  0.4822880000000  0.4751320000000  0.5131880000000 1.0
C      1  0.4965310000000  0.4972160000000  0.5925480000000 1.0
C      1  0.5522450000000  0.5716040000000  0.4737750000000 1.0
C      1  0.5056040000000  0.4550830000000  0.4192720000000 1.0
C      1  0.5354640000000  0.5435310000000  0.4223720000000 1.0
C      1  0.5165460000000  0.5249810000000  0.3991280000000 1.0
C      1  0.4054170000000  0.4818330000000  0.4918100000000 1.0
C      1  0.4431620000000  0.4374200000000  0.5120260000000 1.0
C      1  0.5000810000000  0.5322970000000  0.4393720000000 1.0
C      1  0.5597980000000  0.5708620000000  0.5096910000000 1.0
C      1  0.5177180000000  0.4258870000000  0.5365520000000 1.0
C      1  0.5846540000000  0.4400750000000  0.4895500000000 1.0
C      1  0.5223150000000  0.5365980000000  0.4592810000000 1.0
C      1  0.5254670000000  0.6124130000000  0.4921520000000 1.0
C      1  0.5480680000000  0.5965760000000  0.4940660000000 1.0
C      1  0.5428090000000  0.5128280000000  0.4259640000000 1.0
C      1  0.4701170000000  0.4520710000000  0.5780590000000 1.0
C      1  0.4755070000000  0.5867440000000  0.4418270000000 1.0
C      1  0.4265050000000  0.4870290000000  0.4654160000000 1.0
C      1  0.5715500000000  0.4321290000000  0.5423430000000 1.0
C      1  0.5730170000000  0.5013820000000  0.4231890000000 1.0
C      1  0.4656950000000  0.5418210000000  0.4134180000000 1.0
C      1  0.5344890000000  0.5366930000000  0.5561230000000 1.0
C      1  0.5894640000000  0.5229210000000  0.5439960000000 1.0
C      1  0.4380300000000  0.5400320000000  0.4759240000000 1.0
C      1  0.5912440000000  0.5147010000000  0.4952410000000 1.0
C      1  0.5511080000000  0.5415530000000  0.5001390000000 1.0
C      1  0.4761400000000  0.3972150000000  0.5116130000000 1.0
C      1  0.4854640000000  0.4520930000000  0.4683330000000 1.0
C      1  0.5335130000000  0.4954040000000  0.3985050000000 1.0
C      1  0.4808900000000  0.4740190000000  0.5466580000000 1.0
C      1  0.4938620000000  0.4020840000000  0.4534780000000 1.0
C      1  0.5039930000000  0.5531650000000  0.4133140000000 1.0
C      1  0.4701600000000  0.4894810000000  0.4022760000000 1.0
C      1  0.4652570000000  0.5028530000000  0.5054180000000 1.0
C      1  0.5543810000000  0.4963650000000  0.4682830000000 1.0
C      1  0.4357360000000  0.5332340000000  0.5100490000000 1.0
C      1  0.4921990000000  0.3787350000000  0.4971590000000 1.0
C      1  0.5105750000000  0.5551910000000  0.5032990000000 1.0
C      1  0.4369380000000  0.5320190000000  0.5720260000000 1.0
C      1  0.5889390000000  0.5137160000000  0.4426120000000 1.0
C      1  0.5286230000000  0.4982570000000  0.4502190000000 1.0
C      1  0.4833970000000  0.5190300000000  0.4042060000000 1.0
C      1  0.4789960000000  0.4899490000000  0.4577490000000 1.0
C      1  0.5035760000000  0.5031260000000  0.4701850000000 1.0
C      1  0.5221240000000  0.5107370000000  0.5909880000000 1.0
C      1  0.5290040000000  0.4390720000000  0.5733600000000 1.0
C      1  0.5727030000000  0.5480260000000  0.5545510000000 1.0
C      1  0.5683700000000  0.4915160000000  0.5052550000000 1.0
C      1  0.4753610000000  0.5508020000000  0.4853830000000 1.0
C      1  0.4979890000000  0.5872770000000  0.5622410000000 1.0
C      1  0.4436510000000  0.5621410000000  0.4538200000000 1.0
C      1  0.4171400000000  0.4991970000000  0.5446370000000 1.0
C      1  0.5003130000000  0.6056110000000  0.4807520000000 1.0
C      1  0.5192800000000  0.4579240000000  0.4640840000000 1.0
C      1  0.5004690000000  0.5731010000000  0.4791470000000 1.0
C      1  0.4578150000000  0.5110310000000  0.4470720000000 1.0
C      1  0.5220200000000  0.5808750000000  0.4354890000000 1.0
C      1  0.4170520000000  0.4911530000000  0.5752370000000 1.0
C      1  0.5242750000000  0.4987430000000  0.5339850000000 1.0
C      1  0.4501240000000  0.4348920000000  0.4519450000000 1.0
C      1  0.5217540000000  0.4812170000000  0.4856080000000 1.0
C      1  0.5323260000000  0.4000500000000  0.5438300000000 1.0
C      1  0.4518550000000  0.5961420000000  0.4870320000000 1.0
C      1  0.4727290000000  0.5163850000000  0.5880900000000 1.0
C      1  0.5672620000000  0.4639520000000  0.5339480000000 1.0
C      1  0.5387590000000  0.3854840000000  0.5199020000000 1.0
C      1  0.5311070000000  0.4851210000000  0.5525980000000 1.0
C      1  0.5446310000000  0.4683270000000  0.5765730000000 1.0
C      1  0.5481330000000  0.5005430000000  0.5851210000000 1.0
C      1  0.4631690000000  0.5193200000000  0.4796610000000 1.0
C      1  0.4016860000000  0.5529880000000  0.5167650000000 1.0
C      1  0.4778590000000  0.4585480000000  0.4113470000000 1.0
C      1  0.5203360000000  0.5065290000000  0.5059290000000 1.0
C      1  0.5597010000000  0.5713050000000  0.5418220000000 1.0
C      1  0.5238870000000  0.5671820000000  0.4600720000000 1.0
C      1  0.5855320000000  0.4985740000000  0.4686450000000 1.0
C      1  0.6083080000000  0.4957830000000  0.5353430000000 1.0
C      1  0.4797640000000  0.4263660000000  0.5491150000000 1.0
C      1  0.4996560000000  0.4357280000000  0.5706750000000 1.0
C      1  0.4650630000000  0.5194480000000  0.5330550000000 1.0
C      1  0.5522820000000  0.4381280000000  0.4862830000000 1.0
C      1  0.5750450000000  0.4196650000000  0.5132950000000 1.0
C      1  0.5382420000000  0.5217220000000  0.4809720000000 1.0
C      1  0.5563480000000  0.4001040000000  0.5026330000000 1.0
C      1  0.4945970000000  0.4736670000000  0.5779230000000 1.0
C      1  0.5830760000000  0.5416680000000  0.4442170000000 1.0
C      1  0.4981300000000  0.5654500000000  0.5294020000000 1.0
C      1  0.4433800000000  0.5042430000000  0.5902620000000 1.0
C      1  0.4897830000000  0.3789540000000  0.4689010000000 1.0
C      1  0.4522300000000  0.4556190000000  0.5497920000000 1.0
C      1  0.4798110000000  0.5041590000000  0.5569130000000 1.0
C      1  0.5154910000000  0.4269490000000  0.4762730000000 1.0
C      1  0.4732110000000  0.5997080000000  0.4674190000000 1.0
C      1  0.5473830000000  0.4578740000000  0.4442790000000 1.0
C      1  0.5232160000000  0.4108270000000  0.4474680000000 1.0
C      1  0.4611730000000  0.5993510000000  0.5140260000000 1.0
C      1  0.4517650000000  0.4682330000000  0.5199900000000 1.0
C      1  0.5598510000000  0.5223100000000  0.5703850000000 1.0
C      1  0.4373160000000  0.4451690000000  0.4796910000000 1.0
C      1  0.4936470000000  0.5027090000000  0.4315730000000 1.0
C      1  0.5161010000000  0.4832480000000  0.4230670000000 1.0
C      1  0.4078880000000  0.5636040000000  0.4872840000000 1.0
C      1  0.5255060000000  0.4456090000000  0.5030280000000 1.0
C      1  0.4741230000000  0.5526160000000  0.4449770000000 1.0
C      1  0.5585050000000  0.5547760000000  0.4448200000000 1.0
C      1  0.4572710000000  0.4168110000000  0.5277300000000 1.0
C      1  0.4850180000000  0.5414560000000  0.5444190000000 1.0
C      1  0.6020180000000  0.5296870000000  0.5151910000000 1.0
C      1  0.4793340000000  0.5731900000000  0.4122410000000 1.0
C      1  0.5686060000000  0.4976300000000  0.5387050000000 1.0
C      1  0.4533560000000  0.4852330000000  0.4275230000000 1.0
C      1  0.5477510000000  0.4194990000000  0.5615770000000 1.0
C      1  0.4303970000000  0.5790520000000  0.4775420000000 1.0
C      1  0.5253260000000  0.4370490000000  0.4307580000000 1.0
C      1  0.4047560000000  0.4707990000000  0.5301100000000 1.0
C      1  0.4520520000000  0.4546250000000  0.4315380000000 1.0
C      1  0.4157230000000  0.4546470000000  0.5042390000000 1.0
C      1  0.4520860000000  0.5549210000000  0.5793320000000 1.0
C      1  0.5329460000000  0.5466780000000  0.5267950000000 1.0
C      1  0.5260780000000  0.5746220000000  0.5468910000000 1.0
C      1  0.4283080000000  0.5707430000000  0.5207580000000 1.0
C      1  0.3903070000000  0.5258730000000  0.5206810000000 1.0
C      1  0.4218140000000  0.4621450000000  0.5582730000000 1.0
C      1  0.5010260000000  0.5636060000000  0.5854630000000 1.0
C      1  0.4797850000000  0.5925210000000  0.5324700000000 1.0
C      1  0.4349180000000  0.5253330000000  0.5412690000000 1.0
C      1  0.4712950000000  0.5664500000000  0.5589200000000 1.0
C      1  0.5055310000000  0.5242440000000  0.5645420000000 1.0
C      1  0.4788860000000  0.5473600000000  0.5929930000000 1.0
C      1  0.5517850000000  0.4713430000000  0.4883170000000 1.0
END
