TITL C-2782229-3092-550 -0.000511349292912836 125000 -488.477653101698 0 0 85 (C1) n - 1
REM
REM in /home/nfs/bkarasulu/CARBON/AIRSS/Generating-Clusters/REBO/Higher-Symm/SD-CG/HFTN-CG
REM
REM
REM
REM
REM
REM ./C.cell (12c818d87b63d06a65506943cc24bca4)
REM
REM compiler GCC version 9.2.1 20190827 (Red Hat 9.2.1-1)
REM options -cpp -mtune=generic -march=x86-64 -g -O0 -fpre-include=/usr/include/finclude/math-vector-fortran.h
REM seed 256405405 1198031182 1135821697 -758963318 -1938284003 2090994491 -571698711 -1885590713 920002402 1515407321 1291011895 1874789625 -1926641632 -1197881565 1038193217 1127225991 -2133549621 -1795338924 2082225281 995501058 1792983398 -1615346207 -79736357 -927200529 510228773 791616324 2135451179 622906923 104785042 1430302541 -1088553931 1917442059 -1432939628
REM
CELL 1.54180   50.00000   50.00000   50.00000   90.00000   90.00000   90.00000
LATT -1
SFAC C  
C      1  0.5488950000000  0.4344730000000  0.4662130000000 1.0
C      1  0.4556020000000  0.4214470000000  0.5313950000000 1.0
C      1  0.4654050000000  0.4859510000000  0.4725420000000 1.0
C      1  0.5341250000000  0.4876240000000  0.5286630000000 1.0
C      1  0.4788570000000  0.4347770000000  0.5314960000000 1.0
C      1  0.5205140000000  0.4336410000000  0.4687850000000 1.0
C      1  0.4332400000000  0.5095250000000  0.4731940000000 1.0
C      1  0.5659940000000  0.5112640000000  0.5245370000000 1.0
C      1  0.4503000000000  0.5046030000000  0.4497880000000 1.0
C      1  0.5536890000000  0.5021490000000  0.5524360000000 1.0
C      1  0.4527450000000  0.4804260000000  0.4987770000000 1.0
C      1  0.5505520000000  0.4790000000000  0.5051310000000 1.0
C      1  0.5114520000000  0.5128250000000  0.5251670000000 1.0
C      1  0.4829720000000  0.5150840000000  0.4706040000000 1.0
C      1  0.5279850000000  0.5195510000000  0.5517520000000 1.0
C      1  0.4702080000000  0.5249530000000  0.4405580000000 1.0
C      1  0.5355550000000  0.5516880000000  0.4415640000000 1.0
C      1  0.4705070000000  0.5391520000000  0.5544530000000 1.0
C      1  0.4708010000000  0.4374990000000  0.4745350000000 1.0
C      1  0.5306800000000  0.4394360000000  0.5260900000000 1.0
C      1  0.4880370000000  0.5405450000000  0.4892090000000 1.0
C      1  0.5108340000000  0.5386070000000  0.5083490000000 1.0
C      1  0.4223820000000  0.5213240000000  0.5640320000000 1.0
C      1  0.5723220000000  0.5174330000000  0.4337710000000 1.0
C      1  0.4205770000000  0.4803270000000  0.5111460000000 1.0
C      1  0.5796460000000  0.4803690000000  0.4872360000000 1.0
C      1  0.4764760000000  0.4737340000000  0.5502820000000 1.0
C      1  0.5227840000000  0.4675580000000  0.4483130000000 1.0
C      1  0.5240880000000  0.5203680000000  0.4490890000000 1.0
C      1  0.4705930000000  0.5070720000000  0.5469570000000 1.0
C      1  0.4524350000000  0.5443870000000  0.4724150000000 1.0
C      1  0.5514710000000  0.5403470000000  0.5235720000000 1.0
C      1  0.5600390000000  0.5578760000000  0.4631690000000 1.0
C      1  0.4482880000000  0.5540380000000  0.5334010000000 1.0
C      1  0.4555990000000  0.4671920000000  0.5252860000000 1.0
C      1  0.5372870000000  0.4702880000000  0.4790730000000 1.0
C      1  0.4765050000000  0.4615390000000  0.4592540000000 1.0
C      1  0.5232950000000  0.4625800000000  0.5420210000000 1.0
C      1  0.5616400000000  0.4643950000000  0.4558820000000 1.0
C      1  0.4368470000000  0.4766510000000  0.5468780000000 1.0
C      1  0.5158950000000  0.5108450000000  0.4800840000000 1.0
C      1  0.4787020000000  0.5096810000000  0.5143970000000 1.0
C      1  0.4953660000000  0.4230790000000  0.4830760000000 1.0
C      1  0.5047250000000  0.4256850000000  0.5137390000000 1.0
C      1  0.4388370000000  0.5475180000000  0.5637910000000 1.0
C      1  0.5682250000000  0.5458090000000  0.4338040000000 1.0
C      1  0.4929420000000  0.4596420000000  0.5140680000000 1.0
C      1  0.5074790000000  0.4609040000000  0.4844930000000 1.0
C      1  0.5787040000000  0.4591670000000  0.5164400000000 1.0
C      1  0.4236860000000  0.4567740000000  0.4859670000000 1.0
C      1  0.5573050000000  0.4371920000000  0.5144660000000 1.0
C      1  0.4435550000000  0.4360040000000  0.4864070000000 1.0
C      1  0.4194780000000  0.5034900000000  0.5353850000000 1.0
C      1  0.5730470000000  0.4967990000000  0.4608750000000 1.0
C      1  0.4914420000000  0.5150880000000  0.4196140000000 1.0
C      1  0.5087320000000  0.5173420000000  0.5755880000000 1.0
C      1  0.5609060000000  0.4231920000000  0.4895540000000 1.0
C      1  0.4408140000000  0.4179680000000  0.5084840000000 1.0
C      1  0.4780170000000  0.5542580000000  0.4521380000000 1.0
C      1  0.5313240000000  0.5504660000000  0.5444890000000 1.0
C      1  0.5059480000000  0.5686420000000  0.5341530000000 1.0
C      1  0.4883450000000  0.5718770000000  0.4759410000000 1.0
C      1  0.5557170000000  0.5547460000000  0.4944690000000 1.0
C      1  0.4385070000000  0.5569180000000  0.5009500000000 1.0
C      1  0.4802550000000  0.5778170000000  0.5251860000000 1.0
C      1  0.5131400000000  0.5841890000000  0.4839520000000 1.0
C      1  0.5432060000000  0.5174400000000  0.4992790000000 1.0
C      1  0.4534270000000  0.5203490000000  0.4970000000000 1.0
C      1  0.4523590000000  0.4818230000000  0.5719870000000 1.0
C      1  0.5446470000000  0.4775530000000  0.4310240000000 1.0
C      1  0.4691780000000  0.5660700000000  0.5014910000000 1.0
C      1  0.5269650000000  0.5669730000000  0.5070900000000 1.0
C      1  0.4963880000000  0.4685830000000  0.4396540000000 1.0
C      1  0.5035630000000  0.4697440000000  0.5615460000000 1.0
C      1  0.5635300000000  0.5262290000000  0.4753230000000 1.0
C      1  0.4307880000000  0.5288360000000  0.5191090000000 1.0
C      1  0.5066810000000  0.4905390000000  0.5819980000000 1.0
C      1  0.4928200000000  0.4879560000000  0.4186880000000 1.0
C      1  0.5865740000000  0.4917610000000  0.5169240000000 1.0
C      1  0.4168500000000  0.4880720000000  0.4798280000000 1.0
C      1  0.5455010000000  0.5051070000000  0.4313690000000 1.0
C      1  0.4497940000000  0.5113320000000  0.5743060000000 1.0
C      1  0.5002630000000  0.5466740000000  0.5597710000000 1.0
C      1  0.5045010000000  0.5433750000000  0.4337310000000 1.0
C      1  0.4964430000000  0.4889010000000  0.4974180000000 1.0
END
