TITL C-2782235-7892-90 -0.00262294290405705 125000 -714.018594797752 0 0 124 (C1) n - 1
REM
REM in /home/nfs/bkarasulu/CARBON/AIRSS/Generating-Clusters/REBO/Higher-Symm/SD-CG/HFTN-CG
REM
REM
REM
REM
REM
REM ./C.cell (12c818d87b63d06a65506943cc24bca4)
REM
REM compiler GCC version 9.2.1 20190827 (Red Hat 9.2.1-1)
REM options -cpp -mtune=generic -march=x86-64 -g -O0 -fpre-include=/usr/include/finclude/math-vector-fortran.h
REM seed -956398931 -2118711818 661012917 109270038 -929724729 -498754788 777402907 1230342765 -1978726947 -797090138 -2087898076 -265339532 1590509970 1026892481 -625177961 -443242908 -1745842783 -1301123261 308802209 -578958793 -782396620 1985320327 954513656 -999836127 -386286603 -1583896111 495081771 1522369896 1592216180 -281855656 907147568 -153670790 -1744511680
REM
CELL 1.54180   50.00000   50.00000   50.00000   90.00000   90.00000   90.00000
LATT -1
SFAC C  
C      1  0.4676950000000  0.4291750000000  0.5365930000000 1.0
C      1  0.5317140000000  0.5654840000000  0.5385660000000 1.0
C      1  0.4675570000000  0.5656100000000  0.5370770000000 1.0
C      1  0.5311810000000  0.4344050000000  0.5385940000000 1.0
C      1  0.5062340000000  0.5491040000000  0.5893350000000 1.0
C      1  0.4854240000000  0.4530780000000  0.5864050000000 1.0
C      1  0.5187660000000  0.4598560000000  0.5867080000000 1.0
C      1  0.4726990000000  0.5544510000000  0.5871160000000 1.0
C      1  0.6082930000000  0.5085800000000  0.4889780000000 1.0
C      1  0.3879530000000  0.4838850000000  0.4957060000000 1.0
C      1  0.6083820000000  0.4809130000000  0.4866780000000 1.0
C      1  0.3894680000000  0.5118900000000  0.4937290000000 1.0
C      1  0.5628030000000  0.5703830000000  0.4589410000000 1.0
C      1  0.4360550000000  0.4316800000000  0.4585200000000 1.0
C      1  0.5585190000000  0.4384850000000  0.4595300000000 1.0
C      1  0.4409760000000  0.5650720000000  0.4565510000000 1.0
C      1  0.5603880000000  0.4519490000000  0.5430260000000 1.0
C      1  0.4396200000000  0.5452870000000  0.5407870000000 1.0
C      1  0.5610990000000  0.5478800000000  0.5425200000000 1.0
C      1  0.4389090000000  0.4481560000000  0.5422950000000 1.0
C      1  0.5136360000000  0.5192620000000  0.5638590000000 1.0
C      1  0.4894080000000  0.4740620000000  0.5595770000000 1.0
C      1  0.5160840000000  0.4870520000000  0.5575030000000 1.0
C      1  0.4862350000000  0.5277820000000  0.5623590000000 1.0
C      1  0.5297340000000  0.5258420000000  0.5913300000000 1.0
C      1  0.4666270000000  0.4870380000000  0.5818220000000 1.0
C      1  0.5303810000000  0.4919850000000  0.5877370000000 1.0
C      1  0.4669230000000  0.5150890000000  0.5836170000000 1.0
C      1  0.5135680000000  0.4538270000000  0.4149150000000 1.0
C      1  0.4866090000000  0.5480270000000  0.4146320000000 1.0
C      1  0.5196940000000  0.5469810000000  0.4150360000000 1.0
C      1  0.4797940000000  0.4546590000000  0.4143590000000 1.0
C      1  0.5545500000000  0.5388220000000  0.5751330000000 1.0
C      1  0.4547060000000  0.4563950000000  0.5720490000000 1.0
C      1  0.5474850000000  0.4665680000000  0.5716210000000 1.0
C      1  0.4459760000000  0.5402850000000  0.5742800000000 1.0
C      1  0.4838070000000  0.4783780000000  0.5060220000000 1.0
C      1  0.5163120000000  0.5207700000000  0.5067840000000 1.0
C      1  0.4849800000000  0.5117780000000  0.5058010000000 1.0
C      1  0.5158330000000  0.4868370000000  0.5057340000000 1.0
C      1  0.5830980000000  0.4843770000000  0.5173150000000 1.0
C      1  0.4177120000000  0.5106590000000  0.5219870000000 1.0
C      1  0.5835780000000  0.5096780000000  0.5203910000000 1.0
C      1  0.4168890000000  0.4845750000000  0.5232910000000 1.0
C      1  0.5560120000000  0.4264930000000  0.4848700000000 1.0
C      1  0.4423730000000  0.5711050000000  0.4866780000000 1.0
C      1  0.5610310000000  0.5752920000000  0.4891870000000 1.0
C      1  0.4393150000000  0.4235980000000  0.4877890000000 1.0
C      1  0.4550130000000  0.4770130000000  0.4879600000000 1.0
C      1  0.5444120000000  0.5208480000000  0.4873470000000 1.0
C      1  0.4584930000000  0.5167060000000  0.4854990000000 1.0
C      1  0.5404140000000  0.4813710000000  0.4828350000000 1.0
C      1  0.4629070000000  0.4369460000000  0.4379620000000 1.0
C      1  0.5363520000000  0.5651540000000  0.4377560000000 1.0
C      1  0.4705690000000  0.5582350000000  0.4410550000000 1.0
C      1  0.5304090000000  0.4448360000000  0.4409440000000 1.0
C      1  0.5409650000000  0.4869570000000  0.5379610000000 1.0
C      1  0.4687830000000  0.5179790000000  0.5399090000000 1.0
C      1  0.5337590000000  0.5187950000000  0.5407100000000 1.0
C      1  0.4659210000000  0.4860320000000  0.5418970000000 1.0
C      1  0.4704050000000  0.4758600000000  0.4384180000000 1.0
C      1  0.5287190000000  0.5262200000000  0.4394420000000 1.0
C      1  0.4952550000000  0.5260320000000  0.4386590000000 1.0
C      1  0.5037160000000  0.4758150000000  0.4382340000000 1.0
C      1  0.5700190000000  0.4829010000000  0.5548940000000 1.0
C      1  0.4391580000000  0.5133040000000  0.5550240000000 1.0
C      1  0.5651320000000  0.5155510000000  0.5548610000000 1.0
C      1  0.4361980000000  0.4794960000000  0.5572130000000 1.0
C      1  0.4469190000000  0.5176860000000  0.5159620000000 1.0
C      1  0.5538230000000  0.4769460000000  0.5125770000000 1.0
C      1  0.4461270000000  0.4766270000000  0.5187050000000 1.0
C      1  0.5559220000000  0.5205790000000  0.5166750000000 1.0
C      1  0.5243940000000  0.5135100000000  0.4086270000000 1.0
C      1  0.4762020000000  0.4883080000000  0.4079280000000 1.0
C      1  0.5196950000000  0.4872040000000  0.4110350000000 1.0
C      1  0.4807150000000  0.5146430000000  0.4105170000000 1.0
C      1  0.5418360000000  0.5551510000000  0.5085230000000 1.0
C      1  0.4583770000000  0.4421030000000  0.5080600000000 1.0
C      1  0.5373550000000  0.4502800000000  0.5107760000000 1.0
C      1  0.4607680000000  0.5524490000000  0.5080110000000 1.0
C      1  0.4415310000000  0.5415570000000  0.4345700000000 1.0
C      1  0.5588950000000  0.4636510000000  0.4401480000000 1.0
C      1  0.4353600000000  0.4571620000000  0.4390220000000 1.0
C      1  0.5651430000000  0.5471080000000  0.4369650000000 1.0
C      1  0.4075260000000  0.4647000000000  0.4904050000000 1.0
C      1  0.5925370000000  0.5338430000000  0.4907120000000 1.0
C      1  0.4110030000000  0.5287700000000  0.4875630000000 1.0
C      1  0.5882120000000  0.4585500000000  0.4884060000000 1.0
C      1  0.5284880000000  0.4182430000000  0.4887230000000 1.0
C      1  0.4739020000000  0.5838470000000  0.4877260000000 1.0
C      1  0.5297690000000  0.5884510000000  0.4904740000000 1.0
C      1  0.4706340000000  0.4100600000000  0.4879620000000 1.0
C      1  0.4862880000000  0.5824970000000  0.5141600000000 1.0
C      1  0.5147540000000  0.4175420000000  0.5139230000000 1.0
C      1  0.4860580000000  0.4138010000000  0.5129860000000 1.0
C      1  0.5147770000000  0.5836390000000  0.5152360000000 1.0
C      1  0.5716840000000  0.5210810000000  0.4422550000000 1.0
C      1  0.4303270000000  0.4861010000000  0.4424990000000 1.0
C      1  0.5704990000000  0.4907340000000  0.4423840000000 1.0
C      1  0.4332340000000  0.5160240000000  0.4409160000000 1.0
C      1  0.5718430000000  0.5150190000000  0.4739180000000 1.0
C      1  0.4284350000000  0.4768170000000  0.4731530000000 1.0
C      1  0.5705030000000  0.4813290000000  0.4740300000000 1.0
C      1  0.4318540000000  0.5130220000000  0.4719360000000 1.0
C      1  0.5138120000000  0.5648000000000  0.5624850000000 1.0
C      1  0.4852240000000  0.4342990000000  0.5590060000000 1.0
C      1  0.5134630000000  0.4392360000000  0.5617560000000 1.0
C      1  0.4840810000000  0.5676180000000  0.5620950000000 1.0
C      1  0.5177330000000  0.5503860000000  0.4897090000000 1.0
C      1  0.4824160000000  0.4481970000000  0.4894770000000 1.0
C      1  0.5131860000000  0.4547200000000  0.4936980000000 1.0
C      1  0.4862640000000  0.5438660000000  0.4940090000000 1.0
C      1  0.5119870000000  0.4354450000000  0.4657090000000 1.0
C      1  0.4885190000000  0.5639010000000  0.4661590000000 1.0
C      1  0.5193330000000  0.5711260000000  0.4634820000000 1.0
C      1  0.4812260000000  0.4284900000000  0.4621350000000 1.0
C      1  0.4265980000000  0.5502600000000  0.5089490000000 1.0
C      1  0.5707380000000  0.4411700000000  0.5119150000000 1.0
C      1  0.4244960000000  0.4441580000000  0.5110840000000 1.0
C      1  0.5757850000000  0.5541540000000  0.5117980000000 1.0
C      1  0.5119750000000  0.4847750000000  0.4662390000000 1.0
C      1  0.4865400000000  0.5154620000000  0.4662490000000 1.0
C      1  0.5208860000000  0.5159750000000  0.4674820000000 1.0
C      1  0.4776610000000  0.4843350000000  0.4671780000000 1.0
END
