TITL C-2782230-7391-906 0.00189901281380325 125000 -119.297478310699 0 0 23 (C1) n - 1
REM
REM in /home/nfs/bkarasulu/CARBON/AIRSS/Generating-Clusters/REBO/Higher-Symm/SD-CG/HFTN-CG
REM
REM
REM
REM
REM
REM ./C.cell (12c818d87b63d06a65506943cc24bca4)
REM
REM compiler GCC version 9.2.1 20190827 (Red Hat 9.2.1-1)
REM options -cpp -mtune=generic -march=x86-64 -g -O0 -fpre-include=/usr/include/finclude/math-vector-fortran.h
REM seed 1062513308 -121713768 -384790860 1043842682 477396704 1434822788 -1878938542 1316022444 -829956215 65104232 107360975 -462246771 351886185 672490162 -2100759240 -563794900 -1362380909 1446820565 906308105 -779545270 186756010 1167830590 -1556538469 -968336633 -1331352647 -1109312602 1815522918 -1955950433 2014140356 -1166165931 -2124306923 1763627771 -1072852051
REM
CELL 1.54180   50.00000   50.00000   50.00000   90.00000   90.00000   90.00000
LATT -1
SFAC C  
C      1  0.5087410000000  0.4517790000000  0.4978480000000 1.0
C      1  0.4596000000000  0.4838740000000  0.5044560000000 1.0
C      1  0.4737940000000  0.5374240000000  0.4854440000000 1.0
C      1  0.5334890000000  0.5392780000000  0.4658470000000 1.0
C      1  0.5478560000000  0.4900680000000  0.4723490000000 1.0
C      1  0.4771370000000  0.4605880000000  0.5069330000000 1.0
C      1  0.4592200000000  0.5157050000000  0.4933060000000 1.0
C      1  0.5049090000000  0.5360950000000  0.4702010000000 1.0
C      1  0.5558850000000  0.5159120000000  0.4686580000000 1.0
C      1  0.5305010000000  0.4661330000000  0.4862800000000 1.0
C      1  0.4871500000000  0.5643670000000  0.4771480000000 1.0
C      1  0.5649940000000  0.5466880000000  0.4638620000000 1.0
C      1  0.5172480000000  0.4846490000000  0.4621460000000 1.0
C      1  0.4843990000000  0.4516670000000  0.4766960000000 1.0
C      1  0.4585600000000  0.4912500000000  0.4729540000000 1.0
C      1  0.4831920000000  0.5177380000000  0.5627790000000 1.0
C      1  0.4902570000000  0.4939610000000  0.5765660000000 1.0
C      1  0.4994040000000  0.4740260000000  0.5585580000000 1.0
C      1  0.4988520000000  0.4838420000000  0.5311760000000 1.0
C      1  0.4874110000000  0.5146900000000  0.5341550000000 1.0
C      1  0.4845750000000  0.4787760000000  0.4590820000000 1.0
C      1  0.4949050000000  0.5025410000000  0.5055570000000 1.0
C      1  0.4968270000000  0.5060870000000  0.4762750000000 1.0
END
