TITL C-2782235-7892-662 0.0028637124775645 125000 -883.98417153033 0 0 153 (C1) n - 1
REM
REM in /home/nfs/bkarasulu/CARBON/AIRSS/Generating-Clusters/REBO/Higher-Symm/SD-CG/HFTN-CG
REM
REM
REM
REM
REM
REM ./C.cell (12c818d87b63d06a65506943cc24bca4)
REM
REM compiler GCC version 9.2.1 20190827 (Red Hat 9.2.1-1)
REM options -cpp -mtune=generic -march=x86-64 -g -O0 -fpre-include=/usr/include/finclude/math-vector-fortran.h
REM seed -2054605507 720480747 -704361422 379588151 -798644113 -1859687953 1100851896 882257339 -514185018 864719031 496250341 1259168936 -1500507465 -2028287866 -1850887446 -1802311987 941965896 -486621178 -109871623 1434677110 1483608959 -1410315227 1943092296 -1420233564 -1289570310 -545635972 2106677304 -2130650980 1316497620 -1787604044 -868250415 -1825622579 1404075986
REM
CELL 1.54180   50.00000   50.00000   50.00000   90.00000   90.00000   90.00000
LATT -1
SFAC C  
C      1  0.4714370000000  0.4799390000000  0.4646330000000 1.0
C      1  0.5460280000000  0.5165470000000  0.5276020000000 1.0
C      1  0.5507970000000  0.4778620000000  0.5192810000000 1.0
C      1  0.4534900000000  0.5152610000000  0.4840940000000 1.0
C      1  0.4943270000000  0.5361650000000  0.5903110000000 1.0
C      1  0.5135850000000  0.4586280000000  0.4067260000000 1.0
C      1  0.4232610000000  0.5752420000000  0.5007180000000 1.0
C      1  0.5684770000000  0.4192960000000  0.4926640000000 1.0
C      1  0.4838750000000  0.5743290000000  0.4748030000000 1.0
C      1  0.5215430000000  0.4374540000000  0.5259840000000 1.0
C      1  0.4204510000000  0.5356060000000  0.4779720000000 1.0
C      1  0.5832720000000  0.4395030000000  0.5236490000000 1.0
C      1  0.5519190000000  0.5214130000000  0.4245610000000 1.0
C      1  0.4465320000000  0.4824940000000  0.5666320000000 1.0
C      1  0.4827100000000  0.5115800000000  0.5696350000000 1.0
C      1  0.5258600000000  0.4922420000000  0.4323640000000 1.0
C      1  0.5219720000000  0.5955290000000  0.5385140000000 1.0
C      1  0.4748280000000  0.4083370000000  0.4583810000000 1.0
C      1  0.4938860000000  0.4860410000000  0.4040870000000 1.0
C      1  0.5149240000000  0.5092430000000  0.5930900000000 1.0
C      1  0.5853430000000  0.5186320000000  0.5341880000000 1.0
C      1  0.4266320000000  0.4716870000000  0.4583010000000 1.0
C      1  0.4667880000000  0.4161200000000  0.5145460000000 1.0
C      1  0.5256960000000  0.5823470000000  0.4861820000000 1.0
C      1  0.5994470000000  0.4486780000000  0.5021390000000 1.0
C      1  0.3924360000000  0.5399190000000  0.4944030000000 1.0
C      1  0.4849030000000  0.4093790000000  0.4308240000000 1.0
C      1  0.5205070000000  0.5841310000000  0.5675440000000 1.0
C      1  0.5011310000000  0.4351130000000  0.4183140000000 1.0
C      1  0.5100040000000  0.5642030000000  0.5836060000000 1.0
C      1  0.4759240000000  0.4678770000000  0.4268570000000 1.0
C      1  0.5303950000000  0.5318200000000  0.5721070000000 1.0
C      1  0.4487780000000  0.5694010000000  0.5173300000000 1.0
C      1  0.5387720000000  0.4361080000000  0.4887340000000 1.0
C      1  0.4240970000000  0.5253730000000  0.4399330000000 1.0
C      1  0.5778260000000  0.4727450000000  0.5596430000000 1.0
C      1  0.4559280000000  0.5471330000000  0.4332770000000 1.0
C      1  0.5467960000000  0.4348050000000  0.5566200000000 1.0
C      1  0.4834840000000  0.5206720000000  0.4790280000000 1.0
C      1  0.5214460000000  0.4856300000000  0.5219390000000 1.0
C      1  0.4139930000000  0.5401230000000  0.5417670000000 1.0
C      1  0.5800650000000  0.4643720000000  0.4527150000000 1.0
C      1  0.5124640000000  0.4081600000000  0.5128870000000 1.0
C      1  0.4790010000000  0.6023120000000  0.4904400000000 1.0
C      1  0.3938490000000  0.5150810000000  0.5428260000000 1.0
C      1  0.5945500000000  0.4951820000000  0.4542600000000 1.0
C      1  0.4510210000000  0.4523180000000  0.4446190000000 1.0
C      1  0.5442500000000  0.5513580000000  0.5469190000000 1.0
C      1  0.4417300000000  0.4340150000000  0.5766740000000 1.0
C      1  0.5551730000000  0.5717460000000  0.4288920000000 1.0
C      1  0.5897470000000  0.4390780000000  0.4734700000000 1.0
C      1  0.4040980000000  0.5579280000000  0.5144980000000 1.0
C      1  0.5658230000000  0.5434180000000  0.4699050000000 1.0
C      1  0.4347940000000  0.4799790000000  0.5379370000000 1.0
C      1  0.4944880000000  0.4579000000000  0.4515100000000 1.0
C      1  0.5067340000000  0.5389090000000  0.5529560000000 1.0
C      1  0.4828070000000  0.5345110000000  0.4478420000000 1.0
C      1  0.5215210000000  0.4585710000000  0.5598090000000 1.0
C      1  0.3965390000000  0.5118960000000  0.4995360000000 1.0
C      1  0.5977770000000  0.4772310000000  0.5008340000000 1.0
C      1  0.4304320000000  0.4761460000000  0.4904910000000 1.0
C      1  0.5884520000000  0.5254340000000  0.5046760000000 1.0
C      1  0.4164620000000  0.4401440000000  0.5006000000000 1.0
C      1  0.5745700000000  0.5626380000000  0.5043860000000 1.0
C      1  0.4898170000000  0.5664190000000  0.5491850000000 1.0
C      1  0.5121940000000  0.4321420000000  0.4487890000000 1.0
C      1  0.4302820000000  0.5370730000000  0.5708820000000 1.0
C      1  0.5662250000000  0.4563790000000  0.4240120000000 1.0
C      1  0.4877040000000  0.5662420000000  0.4470270000000 1.0
C      1  0.5078680000000  0.4334210000000  0.5637360000000 1.0
C      1  0.5234330000000  0.5950320000000  0.4551610000000 1.0
C      1  0.4719260000000  0.4084410000000  0.5473280000000 1.0
C      1  0.5404870000000  0.4112210000000  0.5327010000000 1.0
C      1  0.4521530000000  0.5994180000000  0.4717750000000 1.0
C      1  0.4247390000000  0.5039250000000  0.5038760000000 1.0
C      1  0.5719680000000  0.4855200000000  0.4972170000000 1.0
C      1  0.5145640000000  0.4062890000000  0.4588820000000 1.0
C      1  0.4851990000000  0.5961070000000  0.5531720000000 1.0
C      1  0.5328900000000  0.5515320000000  0.4730620000000 1.0
C      1  0.4718350000000  0.4452630000000  0.5320520000000 1.0
C      1  0.5066900000000  0.5142610000000  0.4470880000000 1.0
C      1  0.5006420000000  0.4842970000000  0.5592010000000 1.0
C      1  0.5441010000000  0.4974280000000  0.4079070000000 1.0
C      1  0.4495420000000  0.5099670000000  0.5760690000000 1.0
C      1  0.5383230000000  0.4737820000000  0.4499800000000 1.0
C      1  0.4662630000000  0.5234060000000  0.5422550000000 1.0
C      1  0.5086720000000  0.5091980000000  0.5395170000000 1.0
C      1  0.5025000000000  0.4885490000000  0.4641530000000 1.0
C      1  0.4316660000000  0.5808830000000  0.4736100000000 1.0
C      1  0.5644240000000  0.4048890000000  0.5170070000000 1.0
C      1  0.4702460000000  0.4291610000000  0.5906340000000 1.0
C      1  0.5251630000000  0.5674090000000  0.4166040000000 1.0
C      1  0.4136560000000  0.4441860000000  0.4734460000000 1.0
C      1  0.5700490000000  0.5481880000000  0.5318200000000 1.0
C      1  0.4430860000000  0.5668160000000  0.5473970000000 1.0
C      1  0.5599680000000  0.4309170000000  0.4626040000000 1.0
C      1  0.4307440000000  0.5562050000000  0.4531430000000 1.0
C      1  0.5741270000000  0.4459390000000  0.5512410000000 1.0
C      1  0.5589840000000  0.4854270000000  0.4692090000000 1.0
C      1  0.4387990000000  0.5208200000000  0.5288330000000 1.0
C      1  0.5010160000000  0.4583360000000  0.5229380000000 1.0
C      1  0.5008330000000  0.5489480000000  0.4804880000000 1.0
C      1  0.4756620000000  0.5324230000000  0.3912050000000 1.0
C      1  0.5283790000000  0.4606730000000  0.5995320000000 1.0
C      1  0.5527220000000  0.5839780000000  0.4568480000000 1.0
C      1  0.4450710000000  0.4282190000000  0.5455440000000 1.0
C      1  0.4726320000000  0.4738080000000  0.5492470000000 1.0
C      1  0.5354940000000  0.5266530000000  0.4501340000000 1.0
C      1  0.5431310000000  0.4657060000000  0.4082450000000 1.0
C      1  0.4605840000000  0.5396210000000  0.5873970000000 1.0
C      1  0.5520770000000  0.4469770000000  0.5178860000000 1.0
C      1  0.4418460000000  0.5400380000000  0.5028580000000 1.0
C      1  0.5389790000000  0.4370070000000  0.5884790000000 1.0
C      1  0.4602580000000  0.5511360000000  0.4062820000000 1.0
C      1  0.5396280000000  0.4876150000000  0.5931170000000 1.0
C      1  0.4665830000000  0.5042450000000  0.3954020000000 1.0
C      1  0.4339290000000  0.4230470000000  0.5142090000000 1.0
C      1  0.5585470000000  0.5783520000000  0.4878290000000 1.0
C      1  0.5908760000000  0.5207910000000  0.4627460000000 1.0
C      1  0.4028010000000  0.4903680000000  0.5364370000000 1.0
C      1  0.5016440000000  0.4780230000000  0.5992140000000 1.0
C      1  0.5033450000000  0.5187510000000  0.3988770000000 1.0
C      1  0.5079730000000  0.5810480000000  0.4350790000000 1.0
C      1  0.4868800000000  0.4168040000000  0.5700340000000 1.0
C      1  0.5240030000000  0.5387840000000  0.4021450000000 1.0
C      1  0.4780700000000  0.4612210000000  0.5991500000000 1.0
C      1  0.5069920000000  0.5932910000000  0.5080350000000 1.0
C      1  0.4860800000000  0.4080300000000  0.4906900000000 1.0
C      1  0.5576380000000  0.4914400000000  0.5718590000000 1.0
C      1  0.4460050000000  0.5028990000000  0.4152440000000 1.0
C      1  0.4600510000000  0.4730640000000  0.4926120000000 1.0
C      1  0.5586430000000  0.5223750000000  0.5035420000000 1.0
C      1  0.5575580000000  0.5462590000000  0.4099390000000 1.0
C      1  0.4485040000000  0.4618670000000  0.5876610000000 1.0
C      1  0.4282040000000  0.5053040000000  0.4635000000000 1.0
C      1  0.5762850000000  0.4916320000000  0.5364770000000 1.0
C      1  0.4887290000000  0.5267160000000  0.5196970000000 1.0
C      1  0.4998240000000  0.4711410000000  0.4921820000000 1.0
C      1  0.5482010000000  0.5126270000000  0.5554330000000 1.0
C      1  0.4548740000000  0.4906390000000  0.4378980000000 1.0
C      1  0.5088960000000  0.4324080000000  0.4885990000000 1.0
C      1  0.4761600000000  0.5789500000000  0.5135350000000 1.0
C      1  0.4621590000000  0.4826530000000  0.5202100000000 1.0
C      1  0.5504230000000  0.5138420000000  0.4751920000000 1.0
C      1  0.5968870000000  0.5474470000000  0.4835750000000 1.0
C      1  0.4123630000000  0.4664400000000  0.5165500000000 1.0
C      1  0.5378000000000  0.4463860000000  0.4501290000000 1.0
C      1  0.4650430000000  0.5513630000000  0.5580700000000 1.0
C      1  0.4983930000000  0.5556510000000  0.5181140000000 1.0
C      1  0.4781740000000  0.4469540000000  0.4862240000000 1.0
C      1  0.5254390000000  0.5662400000000  0.5310900000000 1.0
C      1  0.4623740000000  0.4338690000000  0.4642690000000 1.0
C      1  0.5007040000000  0.5031900000000  0.5009320000000 1.0
END
