TITL C-2782228-2999-1413 -0.168885670148775 125000 -663.383632619008 0 0 114 (C1) n - 1
REM
REM in /home/nfs/bkarasulu/CARBON/AIRSS/Generating-Clusters/REBO/Higher-Symm/SD-CG/HFTN-CG
REM
REM
REM
REM
REM
REM ./C.cell (12c818d87b63d06a65506943cc24bca4)
REM
REM compiler GCC version 9.2.1 20190827 (Red Hat 9.2.1-1)
REM options -cpp -mtune=generic -march=x86-64 -g -O0 -fpre-include=/usr/include/finclude/math-vector-fortran.h
REM seed -659540409 -637648137 -116658519 685381376 -412873701 -1542188007 -1820423732 1205929919 -2018940644 -147971780 -1402026579 1754104200 -1281520447 -585770574 -1918719064 -927043683 -2109911007 2090634549 341724130 1120783230 807238179 -1328589384 -1239510091 -1590936155 1989132078 1616094162 -1729077386 1429069228 -1471292635 530194036 67576106 -1975624621 -882867155
REM
CELL 1.54180   50.00000   50.00000   50.00000   90.00000   90.00000   90.00000
LATT -1
SFAC C  
C      1  0.5535140000000  0.5109850000000  0.5499010000000 1.0
C      1  0.4641440000000  0.5464780000000  0.5503700000000 1.0
C      1  0.4944260000000  0.5802770000000  0.4538090000000 1.0
C      1  0.5213370000000  0.4564250000000  0.4325310000000 1.0
C      1  0.5344330000000  0.4527620000000  0.5596970000000 1.0
C      1  0.5463260000000  0.5596350000000  0.5556290000000 1.0
C      1  0.5440830000000  0.4772500000000  0.4434350000000 1.0
C      1  0.5009360000000  0.6005800000000  0.4773810000000 1.0
C      1  0.5215750000000  0.5100860000000  0.4636870000000 1.0
C      1  0.5593010000000  0.4989930000000  0.4286850000000 1.0
C      1  0.5885550000000  0.4907880000000  0.4372240000000 1.0
C      1  0.4452960000000  0.5727600000000  0.5413240000000 1.0
C      1  0.5355070000000  0.5248990000000  0.5093970000000 1.0
C      1  0.4672340000000  0.5612160000000  0.4516310000000 1.0
C      1  0.4153860000000  0.5355770000000  0.4396030000000 1.0
C      1  0.5896730000000  0.4849020000000  0.5324940000000 1.0
C      1  0.5571730000000  0.4396970000000  0.4779540000000 1.0
C      1  0.4731510000000  0.5303920000000  0.5758030000000 1.0
C      1  0.5201150000000  0.5059780000000  0.5287520000000 1.0
C      1  0.4788670000000  0.4463130000000  0.4720890000000 1.0
C      1  0.5016100000000  0.4785090000000  0.5924340000000 1.0
C      1  0.5112800000000  0.5207550000000  0.4368370000000 1.0
C      1  0.5539190000000  0.5548520000000  0.4584550000000 1.0
C      1  0.5216790000000  0.4296630000000  0.5297720000000 1.0
C      1  0.5151940000000  0.5759030000000  0.5214630000000 1.0
C      1  0.5806020000000  0.5343160000000  0.4641670000000 1.0
C      1  0.4540710000000  0.4600380000000  0.5830160000000 1.0
C      1  0.4493210000000  0.4470030000000  0.4370040000000 1.0
C      1  0.4936720000000  0.5326050000000  0.5157750000000 1.0
C      1  0.5520930000000  0.5203360000000  0.4041310000000 1.0
C      1  0.5451500000000  0.4236970000000  0.5483830000000 1.0
C      1  0.5292550000000  0.4460250000000  0.4635160000000 1.0
C      1  0.5123130000000  0.5998280000000  0.4995250000000 1.0
C      1  0.4368590000000  0.4429240000000  0.5224450000000 1.0
C      1  0.5111720000000  0.5253520000000  0.4891100000000 1.0
C      1  0.5606960000000  0.5154610000000  0.4957530000000 1.0
C      1  0.5777970000000  0.4648920000000  0.4897870000000 1.0
C      1  0.5419210000000  0.5554840000000  0.5161160000000 1.0
C      1  0.4626210000000  0.5099240000000  0.5058260000000 1.0
C      1  0.4809700000000  0.5418950000000  0.4689290000000 1.0
C      1  0.5796170000000  0.5631020000000  0.5019800000000 1.0
C      1  0.5180610000000  0.4784930000000  0.4655810000000 1.0
C      1  0.5195590000000  0.5607740000000  0.5486530000000 1.0
C      1  0.4660950000000  0.4271640000000  0.5269300000000 1.0
C      1  0.5565760000000  0.4709960000000  0.5746750000000 1.0
C      1  0.4251590000000  0.5087500000000  0.5193750000000 1.0
C      1  0.4241680000000  0.5225110000000  0.5475210000000 1.0
C      1  0.4091200000000  0.4813230000000  0.5235820000000 1.0
C      1  0.4641760000000  0.5482210000000  0.5162950000000 1.0
C      1  0.4967840000000  0.4539790000000  0.4223660000000 1.0
C      1  0.4845990000000  0.4560810000000  0.5787920000000 1.0
C      1  0.4463280000000  0.4826940000000  0.5093570000000 1.0
C      1  0.4793450000000  0.4674340000000  0.5259080000000 1.0
C      1  0.4291790000000  0.4403140000000  0.4901560000000 1.0
C      1  0.4725260000000  0.5161560000000  0.4765740000000 1.0
C      1  0.5719800000000  0.4289060000000  0.5380950000000 1.0
C      1  0.4731660000000  0.5161730000000  0.5377660000000 1.0
C      1  0.4566000000000  0.5026020000000  0.4572560000000 1.0
C      1  0.5073550000000  0.4788190000000  0.5154700000000 1.0
C      1  0.5976700000000  0.5118450000000  0.4814120000000 1.0
C      1  0.4980420000000  0.4177220000000  0.5206390000000 1.0
C      1  0.5876800000000  0.5036280000000  0.5130620000000 1.0
C      1  0.4841040000000  0.4446610000000  0.5467150000000 1.0
C      1  0.4706700000000  0.4630620000000  0.4285210000000 1.0
C      1  0.4846520000000  0.5724730000000  0.5083160000000 1.0
C      1  0.5449840000000  0.4981130000000  0.5769800000000 1.0
C      1  0.4274270000000  0.5413830000000  0.4769960000000 1.0
C      1  0.4246140000000  0.5510550000000  0.5474880000000 1.0
C      1  0.4729220000000  0.4075660000000  0.4799650000000 1.0
C      1  0.4241070000000  0.4628620000000  0.5376600000000 1.0
C      1  0.5615510000000  0.4609440000000  0.5172760000000 1.0
C      1  0.4400120000000  0.5551080000000  0.4481710000000 1.0
C      1  0.4996830000000  0.5219660000000  0.5726770000000 1.0
C      1  0.4695350000000  0.4909590000000  0.4348030000000 1.0
C      1  0.5925700000000  0.4854270000000  0.4671050000000 1.0
C      1  0.4236040000000  0.5737100000000  0.4794230000000 1.0
C      1  0.4508560000000  0.5175710000000  0.5874870000000 1.0
C      1  0.4392740000000  0.5334610000000  0.5031850000000 1.0
C      1  0.4368310000000  0.5903840000000  0.4965940000000 1.0
C      1  0.5579020000000  0.5366910000000  0.5402750000000 1.0
C      1  0.5520430000000  0.5155280000000  0.4650280000000 1.0
C      1  0.4313220000000  0.4447240000000  0.4573750000000 1.0
C      1  0.4553100000000  0.5867750000000  0.5179660000000 1.0
C      1  0.4645250000000  0.4611370000000  0.4962370000000 1.0
C      1  0.5300930000000  0.4572720000000  0.5201690000000 1.0
C      1  0.4288860000000  0.5120760000000  0.4603390000000 1.0
C      1  0.5532160000000  0.5690420000000  0.4887260000000 1.0
C      1  0.4325620000000  0.5060110000000  0.5689590000000 1.0
C      1  0.5178280000000  0.5457600000000  0.4264050000000 1.0
C      1  0.3932780000000  0.5123570000000  0.4433960000000 1.0
C      1  0.5254900000000  0.5702470000000  0.4690050000000 1.0
C      1  0.5021720000000  0.5570820000000  0.4853980000000 1.0
C      1  0.4954660000000  0.4724060000000  0.4859110000000 1.0
C      1  0.4532350000000  0.4189240000000  0.4969530000000 1.0
C      1  0.5119020000000  0.4093600000000  0.5770940000000 1.0
C      1  0.5062050000000  0.4268010000000  0.4693330000000 1.0
C      1  0.4778330000000  0.4196550000000  0.4510580000000 1.0
C      1  0.5140310000000  0.5721650000000  0.4307710000000 1.0
C      1  0.5086340000000  0.4374660000000  0.5667210000000 1.0
C      1  0.4596940000000  0.4884210000000  0.5393750000000 1.0
C      1  0.5668080000000  0.4646220000000  0.4581390000000 1.0
C      1  0.5089770000000  0.5318170000000  0.5459730000000 1.0
C      1  0.4909150000000  0.5061580000000  0.4247810000000 1.0
C      1  0.5540870000000  0.5316750000000  0.4350580000000 1.0
C      1  0.5868530000000  0.5362170000000  0.5033740000000 1.0
C      1  0.5479860000000  0.5247080000000  0.3792460000000 1.0
C      1  0.4396310000000  0.4764840000000  0.5615320000000 1.0
C      1  0.5752000000000  0.4611920000000  0.5485540000000 1.0
C      1  0.5161260000000  0.5014400000000  0.5840530000000 1.0
C      1  0.4056350000000  0.4893750000000  0.4626950000000 1.0
C      1  0.4996370000000  0.4066100000000  0.4945610000000 1.0
C      1  0.4126230000000  0.4647360000000  0.4727930000000 1.0
C      1  0.5719870000000  0.4295330000000  0.5065960000000 1.0
C      1  0.5374970000000  0.4816850000000  0.5415020000000 1.0
END
