TITL C-2782225-7408-908 -0.000694432184773082 125000 -519.154317156803 0 0 91 (C1) n - 1
REM
REM in /home/nfs/bkarasulu/CARBON/AIRSS/Generating-Clusters/REBO/Higher-Symm/SD-CG/HFTN-CG
REM
REM
REM
REM
REM
REM ./C.cell (12c818d87b63d06a65506943cc24bca4)
REM
REM compiler GCC version 9.2.1 20190827 (Red Hat 9.2.1-1)
REM options -cpp -mtune=generic -march=x86-64 -g -O0 -fpre-include=/usr/include/finclude/math-vector-fortran.h
REM seed -585298828 -824683021 -987016091 -1156389378 888043240 1714995386 -1393661448 814794932 1963424145 950972149 1839730697 -485328779 672833909 -679604492 -759990672 349739844 -396888587 446741583 423638400 -1682489326 849161857 -1474620939 -1287100699 -1098129363 -423154876 1389473383 -1715627254 774648440 -2099496660 -1829577614 75723126 1368791234 1532821471
REM
CELL 1.54180   50.00000   50.00000   50.00000   90.00000   90.00000   90.00000
LATT -1
SFAC C  
C      1  0.4613070000000  0.5251250000000  0.5269880000000 1.0
C      1  0.4637460000000  0.4740930000000  0.4783410000000 1.0
C      1  0.4471410000000  0.4896720000000  0.5764590000000 1.0
C      1  0.4489000000000  0.5126130000000  0.4265070000000 1.0
C      1  0.5323990000000  0.5189000000000  0.5601980000000 1.0
C      1  0.5296810000000  0.4798210000000  0.4403150000000 1.0
C      1  0.5413560000000  0.4290630000000  0.5225130000000 1.0
C      1  0.5331230000000  0.5583510000000  0.4743270000000 1.0
C      1  0.5050180000000  0.4598690000000  0.5411520000000 1.0
C      1  0.5028490000000  0.5341720000000  0.4645690000000 1.0
C      1  0.4575090000000  0.5610980000000  0.4592290000000 1.0
C      1  0.4517840000000  0.4376790000000  0.5375990000000 1.0
C      1  0.4586680000000  0.5251730000000  0.4765660000000 1.0
C      1  0.4561530000000  0.4753220000000  0.5256390000000 1.0
C      1  0.4791200000000  0.5762990000000  0.4716850000000 1.0
C      1  0.4740110000000  0.4223070000000  0.5271700000000 1.0
C      1  0.4316390000000  0.5542290000000  0.4723300000000 1.0
C      1  0.4287860000000  0.4467920000000  0.5202390000000 1.0
C      1  0.5017000000000  0.4836050000000  0.5167200000000 1.0
C      1  0.5008120000000  0.5146300000000  0.4923030000000 1.0
C      1  0.5260920000000  0.5691230000000  0.4463670000000 1.0
C      1  0.5218810000000  0.4319590000000  0.5486250000000 1.0
C      1  0.4904270000000  0.4699830000000  0.5647070000000 1.0
C      1  0.4968960000000  0.5252360000000  0.4347100000000 1.0
C      1  0.5316650000000  0.4662280000000  0.4688770000000 1.0
C      1  0.5324770000000  0.5379790000000  0.5339430000000 1.0
C      1  0.5615930000000  0.5012700000000  0.5599750000000 1.0
C      1  0.5589750000000  0.4910800000000  0.4312320000000 1.0
C      1  0.5615500000000  0.5170480000000  0.4221220000000 1.0
C      1  0.5517410000000  0.4785630000000  0.5834660000000 1.0
C      1  0.5685320000000  0.5342830000000  0.4575240000000 1.0
C      1  0.5567240000000  0.4710750000000  0.5448830000000 1.0
C      1  0.4253450000000  0.4799400000000  0.5148960000000 1.0
C      1  0.4268790000000  0.5257760000000  0.4851240000000 1.0
C      1  0.5359710000000  0.4539140000000  0.5658900000000 1.0
C      1  0.5437590000000  0.5418710000000  0.4361730000000 1.0
C      1  0.4817820000000  0.5457870000000  0.5407450000000 1.0
C      1  0.4853810000000  0.4589070000000  0.4605020000000 1.0
C      1  0.5023650000000  0.4356430000000  0.4433730000000 1.0
C      1  0.5037510000000  0.5668080000000  0.5544690000000 1.0
C      1  0.5772060000000  0.5089050000000  0.4618850000000 1.0
C      1  0.5780990000000  0.5034470000000  0.5237090000000 1.0
C      1  0.4731440000000  0.5005550000000  0.4871300000000 1.0
C      1  0.4738060000000  0.4993420000000  0.5189030000000 1.0
C      1  0.5624600000000  0.4795970000000  0.4632130000000 1.0
C      1  0.5647040000000  0.5271860000000  0.5385360000000 1.0
C      1  0.4659400000000  0.5331150000000  0.4460790000000 1.0
C      1  0.4587620000000  0.4652000000000  0.5563960000000 1.0
C      1  0.4569910000000  0.5459060000000  0.5020550000000 1.0
C      1  0.4640280000000  0.4529380000000  0.5027180000000 1.0
C      1  0.5046120000000  0.5359760000000  0.5186300000000 1.0
C      1  0.5052180000000  0.4674680000000  0.4868770000000 1.0
C      1  0.4331610000000  0.4508720000000  0.4885700000000 1.0
C      1  0.4307500000000  0.5488000000000  0.5174660000000 1.0
C      1  0.5149430000000  0.4467980000000  0.5122080000000 1.0
C      1  0.5063670000000  0.5536280000000  0.4901920000000 1.0
C      1  0.4786260000000  0.5668720000000  0.5022200000000 1.0
C      1  0.4882110000000  0.4333950000000  0.4990110000000 1.0
C      1  0.5636360000000  0.4603760000000  0.4913220000000 1.0
C      1  0.5627340000000  0.5419230000000  0.5088180000000 1.0
C      1  0.5065550000000  0.5868450000000  0.4679570000000 1.0
C      1  0.5053740000000  0.4116420000000  0.5276830000000 1.0
C      1  0.4353880000000  0.4892150000000  0.4359970000000 1.0
C      1  0.4345330000000  0.5148930000000  0.5724080000000 1.0
C      1  0.4828180000000  0.4777830000000  0.4235480000000 1.0
C      1  0.4842630000000  0.5220210000000  0.5733710000000 1.0
C      1  0.4777290000000  0.5053940000000  0.4199900000000 1.0
C      1  0.4773580000000  0.4942530000000  0.5765650000000 1.0
C      1  0.5377040000000  0.5647850000000  0.5134380000000 1.0
C      1  0.5404850000000  0.4365450000000  0.4833240000000 1.0
C      1  0.4581810000000  0.5382670000000  0.5643940000000 1.0
C      1  0.4586960000000  0.4647260000000  0.4399880000000 1.0
C      1  0.5256300000000  0.4104390000000  0.5002840000000 1.0
C      1  0.5211530000000  0.5894230000000  0.4967120000000 1.0
C      1  0.5065720000000  0.5878300000000  0.5722970000000 1.0
C      1  0.4993860000000  0.4135240000000  0.4271260000000 1.0
C      1  0.5269290000000  0.5126720000000  0.4415360000000 1.0
C      1  0.5248480000000  0.4863650000000  0.5633860000000 1.0
C      1  0.5306940000000  0.4879310000000  0.5297960000000 1.0
C      1  0.5293390000000  0.5152050000000  0.4751270000000 1.0
C      1  0.5084340000000  0.5363090000000  0.5685080000000 1.0
C      1  0.5073410000000  0.4640700000000  0.4277770000000 1.0
C      1  0.4321700000000  0.5304310000000  0.5438450000000 1.0
C      1  0.4341240000000  0.4698010000000  0.4630280000000 1.0
C      1  0.5040020000000  0.5759310000000  0.5230490000000 1.0
C      1  0.5089910000000  0.4296820000000  0.4737500000000 1.0
C      1  0.5636560000000  0.4503540000000  0.5223200000000 1.0
C      1  0.5589350000000  0.5504770000000  0.4789780000000 1.0
C      1  0.5526020000000  0.5137470000000  0.4929710000000 1.0
C      1  0.5555690000000  0.4869270000000  0.5083600000000 1.0
C      1  0.4189220000000  0.5034580000000  0.5006490000000 1.0
END
