TITL C-2782233-7966-783 -0.0041111491011356 125000 -578.100238160339 0 0 102 (S4) n - 1
REM
REM in /home/nfs/bkarasulu/CARBON/AIRSS/Generating-Clusters/REBO/Higher-Symm/SD-CG/HFTN-CG
REM
REM
REM
REM
REM
REM ./C.cell (12c818d87b63d06a65506943cc24bca4)
REM
REM compiler GCC version 9.2.1 20190827 (Red Hat 9.2.1-1)
REM options -cpp -mtune=generic -march=x86-64 -g -O0 -fpre-include=/usr/include/finclude/math-vector-fortran.h
REM seed 578628716 -197081188 -1972789732 983197289 535396343 430544056 -2000771804 628673104 -754012592 -768229352 444512513 1094066439 -628049948 830230357 -1324202190 -1958017145 -1357280889 1495109649 -1022672716 -439224378 536413853 -1651159252 -86799202 -82218477 960329521 1723479179 -1282752801 373640268 383196004 -816255837 1875784405 813894354 471134529
REM
CELL 1.54180   50.00000   50.00000   50.00000   90.00000   90.00000   90.00000
LATT -1
SFAC C  
C      1  0.5394530000000  0.4660540000000  0.5564520000000 1.0
C      1  0.5565010000000  0.5339430000000  0.4610970000000 1.0
C      1  0.4611440000000  0.4660560000000  0.4440500000000 1.0
C      1  0.4440990000000  0.5339470000000  0.5394050000000 1.0
C      1  0.4398260000000  0.5554260000000  0.4827400000000 1.0
C      1  0.4827870000000  0.4445760000000  0.5607270000000 1.0
C      1  0.5607760000000  0.5554230000000  0.5177620000000 1.0
C      1  0.5178090000000  0.4445750000000  0.4397760000000 1.0
C      1  0.4652890000000  0.4381780000000  0.4640410000000 1.0
C      1  0.4640900000000  0.5618240000000  0.5352590000000 1.0
C      1  0.5353060000000  0.4381770000000  0.5364620000000 1.0
C      1  0.5365110000000  0.5618210000000  0.4652420000000 1.0
C      1  0.5042780000000  0.5878280000000  0.5524770000000 1.0
C      1  0.5525240000000  0.4121710000000  0.4962760000000 1.0
C      1  0.4963250000000  0.5878270000000  0.4480240000000 1.0
C      1  0.4480700000000  0.4121740000000  0.5042280000000 1.0
C      1  0.4291360000000  0.5053340000000  0.5308230000000 1.0
C      1  0.5308710000000  0.4946680000000  0.5714140000000 1.0
C      1  0.5714630000000  0.5053300000000  0.4696790000000 1.0
C      1  0.4697270000000  0.4946680000000  0.4290880000000 1.0
C      1  0.5745900000000  0.4935550000000  0.5162000000000 1.0
C      1  0.5162490000000  0.5064420000000  0.4259600000000 1.0
C      1  0.4260080000000  0.4935590000000  0.4843020000000 1.0
C      1  0.4843500000000  0.5064440000000  0.5745420000000 1.0
C      1  0.4548630000000  0.5088120000000  0.5599470000000 1.0
C      1  0.5599950000000  0.4911880000000  0.5456880000000 1.0
C      1  0.5457360000000  0.5088090000000  0.4405550000000 1.0
C      1  0.4406030000000  0.4911900000000  0.4548150000000 1.0
C      1  0.4816120000000  0.5225770000000  0.5460900000000 1.0
C      1  0.5461380000000  0.4774230000000  0.5189390000000 1.0
C      1  0.5189880000000  0.5225760000000  0.4544120000000 1.0
C      1  0.4544600000000  0.4774250000000  0.4815630000000 1.0
C      1  0.4087930000000  0.4661910000000  0.5159360000000 1.0
C      1  0.5159850000000  0.5338120000000  0.5917570000000 1.0
C      1  0.5918040000000  0.4661860000000  0.4845670000000 1.0
C      1  0.4846160000000  0.5338110000000  0.4087450000000 1.0
C      1  0.5000730000000  0.5456870000000  0.4669670000000 1.0
C      1  0.4670140000000  0.4543140000000  0.5004790000000 1.0
C      1  0.5005280000000  0.5456870000000  0.5335350000000 1.0
C      1  0.5335820000000  0.4543120000000  0.5000240000000 1.0
C      1  0.4137290000000  0.4940590000000  0.5094360000000 1.0
C      1  0.5094840000000  0.5059430000000  0.5868210000000 1.0
C      1  0.5868690000000  0.4940550000000  0.4910660000000 1.0
C      1  0.4911150000000  0.5059430000000  0.4136810000000 1.0
C      1  0.4920670000000  0.4142350000000  0.5178900000000 1.0
C      1  0.5179400000000  0.5857650000000  0.5084810000000 1.0
C      1  0.5085270000000  0.4142340000000  0.4826130000000 1.0
C      1  0.4826630000000  0.5857660000000  0.4920210000000 1.0
C      1  0.4984350000000  0.5155420000000  0.5172830000000 1.0
C      1  0.5173300000000  0.4844580000000  0.5021160000000 1.0
C      1  0.5021640000000  0.5155410000000  0.4832200000000 1.0
C      1  0.4832680000000  0.4844590000000  0.4983870000000 1.0
C      1  0.5565700000000  0.4799790000000  0.4524670000000 1.0
C      1  0.4525160000000  0.5200200000000  0.4439800000000 1.0
C      1  0.4440270000000  0.4799830000000  0.5480350000000 1.0
C      1  0.5480840000000  0.5200180000000  0.5565230000000 1.0
C      1  0.4614920000000  0.5755830000000  0.4755900000000 1.0
C      1  0.4756370000000  0.4244180000000  0.5390610000000 1.0
C      1  0.5391110000000  0.5755820000000  0.5249120000000 1.0
C      1  0.5249580000000  0.4244170000000  0.4614420000000 1.0
C      1  0.4707100000000  0.4388440000000  0.5856340000000 1.0
C      1  0.5856830000000  0.5611550000000  0.5298390000000 1.0
C      1  0.5298860000000  0.4388420000000  0.4148690000000 1.0
C      1  0.4149190000000  0.5611590000000  0.4706630000000 1.0
C      1  0.4384510000000  0.5557490000000  0.5139530000000 1.0
C      1  0.5140000000000  0.4442530000000  0.5621010000000 1.0
C      1  0.5621500000000  0.5557460000000  0.4865490000000 1.0
C      1  0.4865960000000  0.4442530000000  0.4384020000000 1.0
C      1  0.4507030000000  0.5271900000000  0.4748970000000 1.0
C      1  0.4749440000000  0.4728120000000  0.5498490000000 1.0
C      1  0.5498970000000  0.5271880000000  0.5256060000000 1.0
C      1  0.5256530000000  0.4728100000000  0.4506540000000 1.0
C      1  0.4886220000000  0.5790870000000  0.5759780000000 1.0
C      1  0.5760240000000  0.4209120000000  0.5119300000000 1.0
C      1  0.5119800000000  0.5790860000000  0.4245240000000 1.0
C      1  0.4245710000000  0.4209150000000  0.4885730000000 1.0
C      1  0.4341850000000  0.4494020000000  0.5026250000000 1.0
C      1  0.5026740000000  0.5506000000000  0.5663640000000 1.0
C      1  0.5664110000000  0.4493990000000  0.4978780000000 1.0
C      1  0.4979270000000  0.5505990000000  0.4341380000000 1.0
C      1  0.4961410000000  0.4871020000000  0.5358120000000 1.0
C      1  0.5358600000000  0.5128970000000  0.5044090000000 1.0
C      1  0.5044570000000  0.4871010000000  0.4646910000000 1.0
C      1  0.4647390000000  0.5128990000000  0.4960930000000 1.0
C      1  0.4878160000000  0.5835720000000  0.5247950000000 1.0
C      1  0.5248420000000  0.4164280000000  0.5127370000000 1.0
C      1  0.5127860000000  0.5835710000000  0.4757060000000 1.0
C      1  0.4757530000000  0.4164290000000  0.4877670000000 1.0
C      1  0.4915660000000  0.4587500000000  0.4692910000000 1.0
C      1  0.4693400000000  0.5412500000000  0.5089830000000 1.0
C      1  0.5090310000000  0.4587500000000  0.5312120000000 1.0
C      1  0.5312610000000  0.5412490000000  0.4915190000000 1.0
C      1  0.5303650000000  0.5751660000000  0.5514310000000 1.0
C      1  0.5514770000000  0.4248330000000  0.4701880000000 1.0
C      1  0.4702370000000  0.5751660000000  0.4490710000000 1.0
C      1  0.4491180000000  0.4248350000000  0.5303160000000 1.0
C      1  0.4639020000000  0.5471680000000  0.4316050000000 1.0
C      1  0.4316530000000  0.4528340000000  0.5366500000000 1.0
C      1  0.5366990000000  0.5471670000000  0.5688960000000 1.0
C      1  0.5689440000000  0.4528310000000  0.4638530000000 1.0
C      1  0.5003010000000  0.5512980000000  0.5002510000000 1.0
C      1  0.5002980000000  0.4487020000000  0.5002520000000 1.0
END
