TITL C-2782239-8622-60 0.00164350868493781 125000 -746.265627466766 0 0 126 (C1) n - 1
REM
REM in /home/nfs/bkarasulu/CARBON/AIRSS/Generating-Clusters/REBO/Higher-Symm/SD-CG/HFTN-CG
REM
REM
REM
REM
REM
REM ./C.cell (12c818d87b63d06a65506943cc24bca4)
REM
REM compiler GCC version 9.2.1 20190827 (Red Hat 9.2.1-1)
REM options -cpp -mtune=generic -march=x86-64 -g -O0 -fpre-include=/usr/include/finclude/math-vector-fortran.h
REM seed -1005609935 143157065 1837831043 189815303 1620102424 1675486201 792714434 511261814 -655774678 -28982863 2142174447 -994611499 -555376073 -558347349 1610822372 -41955538 1272677579 130120603 -886301663 1112963542 -1844311568 872850110 11209263 -1300946831 -754362001 -1089835836 -656937391 1833812836 1198632037 -842696591 -1744380278 -2029110546 -470925333
REM
CELL 1.54180   50.00000   50.00000   50.00000   90.00000   90.00000   90.00000
LATT -1
SFAC C  
C      1  0.4973030000000  0.5091390000000  0.5071890000000 1.0
C      1  0.5577760000000  0.5125990000000  0.5674190000000 1.0
C      1  0.4387490000000  0.4809850000000  0.4442820000000 1.0
C      1  0.5271570000000  0.4630510000000  0.5607600000000 1.0
C      1  0.5780270000000  0.5536330000000  0.4621080000000 1.0
C      1  0.5103380000000  0.6007900000000  0.5137170000000 1.0
C      1  0.5656250000000  0.4399100000000  0.5481580000000 1.0
C      1  0.4649990000000  0.4604880000000  0.5982560000000 1.0
C      1  0.4376180000000  0.4412510000000  0.4940260000000 1.0
C      1  0.5497700000000  0.4836490000000  0.5687040000000 1.0
C      1  0.4948880000000  0.3968230000000  0.5337860000000 1.0
C      1  0.5520100000000  0.5731350000000  0.5206960000000 1.0
C      1  0.4996330000000  0.4439760000000  0.4573700000000 1.0
C      1  0.4724880000000  0.5452500000000  0.4642370000000 1.0
C      1  0.4356810000000  0.5403040000000  0.5109480000000 1.0
C      1  0.5496440000000  0.5266940000000  0.4544070000000 1.0
C      1  0.4354790000000  0.5311480000000  0.5603020000000 1.0
C      1  0.4439380000000  0.4217440000000  0.4757150000000 1.0
C      1  0.5123210000000  0.5822910000000  0.4322050000000 1.0
C      1  0.4846550000000  0.4805400000000  0.4626970000000 1.0
C      1  0.5263480000000  0.5518370000000  0.5750800000000 1.0
C      1  0.5086760000000  0.4398760000000  0.5135650000000 1.0
C      1  0.4167540000000  0.4626700000000  0.4954810000000 1.0
C      1  0.5722200000000  0.5450690000000  0.4344700000000 1.0
C      1  0.5913040000000  0.4965110000000  0.5053890000000 1.0
C      1  0.5243710000000  0.5086470000000  0.4905110000000 1.0
C      1  0.5254230000000  0.4813380000000  0.5115600000000 1.0
C      1  0.5235060000000  0.4115360000000  0.5451090000000 1.0
C      1  0.4647340000000  0.4088500000000  0.4609550000000 1.0
C      1  0.5654940000000  0.5766420000000  0.4712160000000 1.0
C      1  0.5547740000000  0.4154090000000  0.4728820000000 1.0
C      1  0.4401770000000  0.5951170000000  0.4832630000000 1.0
C      1  0.5642140000000  0.5551130000000  0.5395140000000 1.0
C      1  0.4362300000000  0.4883770000000  0.5189900000000 1.0
C      1  0.5004240000000  0.5438430000000  0.5814560000000 1.0
C      1  0.4213560000000  0.5500840000000  0.5469740000000 1.0
C      1  0.5054600000000  0.5540280000000  0.5410620000000 1.0
C      1  0.5844930000000  0.4751860000000  0.4553340000000 1.0
C      1  0.5109660000000  0.3988590000000  0.4752500000000 1.0
C      1  0.4103930000000  0.4774650000000  0.5472900000000 1.0
C      1  0.4780080000000  0.4524500000000  0.4248720000000 1.0
C      1  0.5345650000000  0.5158000000000  0.4254270000000 1.0
C      1  0.5306940000000  0.5680700000000  0.4199520000000 1.0
C      1  0.5450590000000  0.4584330000000  0.5056510000000 1.0
C      1  0.4244150000000  0.5902530000000  0.5022250000000 1.0
C      1  0.4489660000000  0.5288370000000  0.4619500000000 1.0
C      1  0.4218960000000  0.4831860000000  0.4739330000000 1.0
C      1  0.4487330000000  0.4600250000000  0.5193220000000 1.0
C      1  0.4083040000000  0.5051700000000  0.4517290000000 1.0
C      1  0.4932780000000  0.4763630000000  0.5084940000000 1.0
C      1  0.4987360000000  0.5394920000000  0.4670910000000 1.0
C      1  0.4627940000000  0.5269690000000  0.5161520000000 1.0
C      1  0.4952870000000  0.5148560000000  0.5821100000000 1.0
C      1  0.4662410000000  0.5034370000000  0.4975770000000 1.0
C      1  0.5043790000000  0.5625180000000  0.5022070000000 1.0
C      1  0.5523920000000  0.5066870000000  0.5282970000000 1.0
C      1  0.4490230000000  0.5733600000000  0.4417720000000 1.0
C      1  0.4735410000000  0.4899020000000  0.5547740000000 1.0
C      1  0.5550010000000  0.4931170000000  0.4162450000000 1.0
C      1  0.4537050000000  0.5351530000000  0.5818610000000 1.0
C      1  0.5046770000000  0.4999280000000  0.5581780000000 1.0
C      1  0.5422800000000  0.4380780000000  0.4879610000000 1.0
C      1  0.5108360000000  0.4884290000000  0.4561070000000 1.0
C      1  0.5774290000000  0.4857400000000  0.5304850000000 1.0
C      1  0.4660200000000  0.5777120000000  0.4713740000000 1.0
C      1  0.5067610000000  0.5831310000000  0.5419250000000 1.0
C      1  0.5373290000000  0.4333350000000  0.5545170000000 1.0
C      1  0.5672620000000  0.4569370000000  0.5224830000000 1.0
C      1  0.5173210000000  0.4548920000000  0.4353600000000 1.0
C      1  0.4805880000000  0.5784070000000  0.4341390000000 1.0
C      1  0.5250710000000  0.5439690000000  0.5165310000000 1.0
C      1  0.4778260000000  0.4678340000000  0.5346650000000 1.0
C      1  0.4834050000000  0.5215060000000  0.4197500000000 1.0
C      1  0.5416540000000  0.5680760000000  0.4893390000000 1.0
C      1  0.4764750000000  0.5691460000000  0.5029320000000 1.0
C      1  0.4659900000000  0.4742900000000  0.4420700000000 1.0
C      1  0.5850020000000  0.5357360000000  0.5320860000000 1.0
C      1  0.4490500000000  0.5023670000000  0.4762720000000 1.0
C      1  0.4662760000000  0.5507470000000  0.4231630000000 1.0
C      1  0.4131470000000  0.5077270000000  0.5368720000000 1.0
C      1  0.5053250000000  0.5050360000000  0.4201690000000 1.0
C      1  0.4968040000000  0.5894820000000  0.4616370000000 1.0
C      1  0.5491820000000  0.5422150000000  0.5621140000000 1.0
C      1  0.4779070000000  0.4028920000000  0.5063450000000 1.0
C      1  0.5379930000000  0.4811120000000  0.4573760000000 1.0
C      1  0.4741230000000  0.5559400000000  0.5767730000000 1.0
C      1  0.5130330000000  0.4294740000000  0.4812910000000 1.0
C      1  0.5355330000000  0.5938790000000  0.5323340000000 1.0
C      1  0.4621470000000  0.5716610000000  0.5266330000000 1.0
C      1  0.4462870000000  0.5047410000000  0.5462840000000 1.0
C      1  0.5603120000000  0.4760560000000  0.4386020000000 1.0
C      1  0.5290990000000  0.5387860000000  0.4771770000000 1.0
C      1  0.4313900000000  0.5689200000000  0.5229970000000 1.0
C      1  0.5072360000000  0.4542060000000  0.5384910000000 1.0
C      1  0.4255510000000  0.5344830000000  0.4798860000000 1.0
C      1  0.4825510000000  0.3931110000000  0.4789280000000 1.0
C      1  0.5253050000000  0.4973600000000  0.5403480000000 1.0
C      1  0.4698960000000  0.4147440000000  0.5436190000000 1.0
C      1  0.5154280000000  0.5872890000000  0.4848440000000 1.0
C      1  0.5462760000000  0.5450320000000  0.4192770000000 1.0
C      1  0.5387420000000  0.3909420000000  0.4799770000000 1.0
C      1  0.4671640000000  0.5101860000000  0.5885680000000 1.0
C      1  0.5849640000000  0.5167930000000  0.5544270000000 1.0
C      1  0.4304200000000  0.5066690000000  0.4294400000000 1.0
C      1  0.4175020000000  0.5128530000000  0.5042530000000 1.0
C      1  0.5497540000000  0.5300900000000  0.5120730000000 1.0
C      1  0.5415190000000  0.3781290000000  0.5054750000000 1.0
C      1  0.5577600000000  0.4229310000000  0.4452190000000 1.0
C      1  0.4778630000000  0.4262220000000  0.4422240000000 1.0
C      1  0.5888440000000  0.5247750000000  0.5059580000000 1.0
C      1  0.4510610000000  0.5220420000000  0.4198300000000 1.0
C      1  0.4855670000000  0.4581880000000  0.4851640000000 1.0
C      1  0.4046860000000  0.4640390000000  0.5217230000000 1.0
C      1  0.4266700000000  0.4735930000000  0.5690320000000 1.0
C      1  0.4553190000000  0.4807090000000  0.5812950000000 1.0
C      1  0.5678540000000  0.5319420000000  0.4832590000000 1.0
C      1  0.5786490000000  0.4854850000000  0.4820440000000 1.0
C      1  0.4885990000000  0.5331750000000  0.5287750000000 1.0
C      1  0.5502300000000  0.4905970000000  0.4819080000000 1.0
C      1  0.5417550000000  0.4412300000000  0.4321410000000 1.0
C      1  0.5019410000000  0.4760520000000  0.4192120000000 1.0
C      1  0.5259060000000  0.3852560000000  0.5274880000000 1.0
C      1  0.4562680000000  0.4345390000000  0.5387550000000 1.0
C      1  0.4798790000000  0.4314140000000  0.5034220000000 1.0
C      1  0.5744990000000  0.4683180000000  0.5595740000000 1.0
C      1  0.4703750000000  0.5714880000000  0.5534580000000 1.0
END
