TITL C-2782239-8622-704 -0.00122158431142551 125000 -385.100569719932 0 0 65 (C1) n - 1
REM
REM in /home/nfs/bkarasulu/CARBON/AIRSS/Generating-Clusters/REBO/Higher-Symm/SD-CG/HFTN-CG
REM
REM
REM
REM
REM
REM ./C.cell (12c818d87b63d06a65506943cc24bca4)
REM
REM compiler GCC version 9.2.1 20190827 (Red Hat 9.2.1-1)
REM options -cpp -mtune=generic -march=x86-64 -g -O0 -fpre-include=/usr/include/finclude/math-vector-fortran.h
REM seed -950105577 226430440 -80914373 160456477 -2047220563 -1885610773 676131518 333261293 544855395 683134226 438840385 1434695717 1257667656 1240264725 516530549 1411995300 118102390 1129149041 842047481 -350953971 -1864693777 -1879233172 370516873 -1479907738 2091549560 1522679094 1398633363 -972961142 247721407 -183267949 -172053060 -626611746 450322618
REM
CELL 1.54180   50.00000   50.00000   50.00000   90.00000   90.00000   90.00000
LATT -1
SFAC C  
C      1  0.5597920000000  0.5411540000000  0.5291150000000 1.0
C      1  0.5565610000000  0.4561420000000  0.5304320000000 1.0
C      1  0.4749170000000  0.4362810000000  0.5260050000000 1.0
C      1  0.4301000000000  0.4966090000000  0.5301240000000 1.0
C      1  0.4795240000000  0.5682270000000  0.5304600000000 1.0
C      1  0.4359780000000  0.4874500000000  0.4646110000000 1.0
C      1  0.4677710000000  0.5562560000000  0.4661900000000 1.0
C      1  0.5439040000000  0.5478460000000  0.4653130000000 1.0
C      1  0.5587490000000  0.4727850000000  0.4663130000000 1.0
C      1  0.4924130000000  0.4347380000000  0.4639490000000 1.0
C      1  0.4978000000000  0.5270590000000  0.4901910000000 1.0
C      1  0.5251150000000  0.5100970000000  0.4908920000000 1.0
C      1  0.5163360000000  0.4782560000000  0.4922090000000 1.0
C      1  0.4839930000000  0.4764220000000  0.4908630000000 1.0
C      1  0.4735510000000  0.5062940000000  0.4895780000000 1.0
C      1  0.5162920000000  0.4820300000000  0.4406300000000 1.0
C      1  0.4881010000000  0.4787390000000  0.4399130000000 1.0
C      1  0.4762350000000  0.5046090000000  0.4394430000000 1.0
C      1  0.4972050000000  0.5239210000000  0.4395200000000 1.0
C      1  0.5219940000000  0.5098530000000  0.4401810000000 1.0
C      1  0.5424750000000  0.4927330000000  0.5372590000000 1.0
C      1  0.5121660000000  0.4555330000000  0.5461570000000 1.0
C      1  0.4639140000000  0.4797680000000  0.5426320000000 1.0
C      1  0.4708110000000  0.5298290000000  0.5360530000000 1.0
C      1  0.5207550000000  0.5377970000000  0.5359150000000 1.0
C      1  0.4663560000000  0.5642670000000  0.4931930000000 1.0
C      1  0.5518130000000  0.5532270000000  0.4922270000000 1.0
C      1  0.5657370000000  0.4670950000000  0.4934860000000 1.0
C      1  0.4884270000000  0.4248950000000  0.4903910000000 1.0
C      1  0.4271050000000  0.4874580000000  0.4915540000000 1.0
C      1  0.5412320000000  0.5178370000000  0.4624500000000 1.0
C      1  0.5294760000000  0.4661830000000  0.4632340000000 1.0
C      1  0.4766240000000  0.4605840000000  0.4616930000000 1.0
C      1  0.4559210000000  0.5097970000000  0.4614020000000 1.0
C      1  0.4956290000000  0.5450170000000  0.4615250000000 1.0
C      1  0.4578260000000  0.5108810000000  0.5166210000000 1.0
C      1  0.4958430000000  0.5404910000000  0.5190350000000 1.0
C      1  0.5379850000000  0.5165660000000  0.5193590000000 1.0
C      1  0.5261970000000  0.4697320000000  0.5212330000000 1.0
C      1  0.4709710000000  0.4660320000000  0.5192940000000 1.0
C      1  0.5727540000000  0.4820480000000  0.5324540000000 1.0
C      1  0.5024760000000  0.4322430000000  0.5319470000000 1.0
C      1  0.4263190000000  0.4698570000000  0.5274250000000 1.0
C      1  0.4515470000000  0.5567630000000  0.5392070000000 1.0
C      1  0.5396580000000  0.5639720000000  0.5322070000000 1.0
C      1  0.4281730000000  0.5192420000000  0.5047630000000 1.0
C      1  0.4961260000000  0.5771630000000  0.5039610000000 1.0
C      1  0.5722540000000  0.5278710000000  0.5028530000000 1.0
C      1  0.5469220000000  0.4405240000000  0.5041050000000 1.0
C      1  0.4570290000000  0.4340830000000  0.5002230000000 1.0
C      1  0.5767650000000  0.4971120000000  0.5053180000000 1.0
C      1  0.5184250000000  0.4272910000000  0.5062450000000 1.0
C      1  0.4358220000000  0.4562220000000  0.5020100000000 1.0
C      1  0.4457470000000  0.5482770000000  0.5093030000000 1.0
C      1  0.5267490000000  0.5723900000000  0.5051690000000 1.0
C      1  0.4802400000000  0.4895840000000  0.5633690000000 1.0
C      1  0.4842870000000  0.5180530000000  0.5612080000000 1.0
C      1  0.5127980000000  0.5231730000000  0.5614980000000 1.0
C      1  0.5266600000000  0.4976360000000  0.5632300000000 1.0
C      1  0.5066180000000  0.4760760000000  0.5656820000000 1.0
C      1  0.5188990000000  0.4377120000000  0.4571840000000 1.0
C      1  0.4460530000000  0.4630800000000  0.4563640000000 1.0
C      1  0.4477890000000  0.5392620000000  0.4580500000000 1.0
C      1  0.5213810000000  0.5614890000000  0.4572970000000 1.0
C      1  0.5649120000000  0.4983880000000  0.4582850000000 1.0
END
