TITL C-2782234-8014-1027 -0.000253135205608972 125000 -227.6235333802 0 0 42 (C1) n - 1
REM
REM in /home/nfs/bkarasulu/CARBON/AIRSS/Generating-Clusters/REBO/Higher-Symm/SD-CG/HFTN-CG
REM
REM
REM
REM
REM
REM ./C.cell (12c818d87b63d06a65506943cc24bca4)
REM
REM compiler GCC version 9.2.1 20190827 (Red Hat 9.2.1-1)
REM options -cpp -mtune=generic -march=x86-64 -g -O0 -fpre-include=/usr/include/finclude/math-vector-fortran.h
REM seed 1916883545 -774424051 1382866409 908555120 2125838842 628889801 -469532999 -872178367 1777670261 -1085175528 -181777306 -113685475 833986044 1600970160 1871465612 -561105189 919406723 473551439 157863412 -11951145 -191575538 130122589 1160987979 661791042 -170965952 -865183056 1904223557 -829846548 -423011323 848419461 -1816468684 1657039858 -550168007
REM
CELL 1.54180   50.00000   50.00000   50.00000   90.00000   90.00000   90.00000
LATT -1
SFAC C  
C      1  0.5387390000000  0.4810260000000  0.4862410000000 1.0
C      1  0.4553720000000  0.5329440000000  0.5041580000000 1.0
C      1  0.4491180000000  0.5022940000000  0.5014000000000 1.0
C      1  0.5159220000000  0.4713540000000  0.4246710000000 1.0
C      1  0.4798560000000  0.5409630000000  0.5220250000000 1.0
C      1  0.5041210000000  0.4395300000000  0.5169530000000 1.0
C      1  0.4699180000000  0.5492600000000  0.5500420000000 1.0
C      1  0.5635900000000  0.5126250000000  0.4830160000000 1.0
C      1  0.4847710000000  0.5516710000000  0.4707680000000 1.0
C      1  0.4617020000000  0.5561210000000  0.5732080000000 1.0
C      1  0.5239430000000  0.5200480000000  0.4566260000000 1.0
C      1  0.4878330000000  0.4545660000000  0.4928360000000 1.0
C      1  0.5512650000000  0.4862620000000  0.5104410000000 1.0
C      1  0.4509130000000  0.4806960000000  0.5195170000000 1.0
C      1  0.4993870000000  0.5039460000000  0.4738500000000 1.0
C      1  0.5223250000000  0.5484040000000  0.4564770000000 1.0
C      1  0.5089780000000  0.4973510000000  0.5440300000000 1.0
C      1  0.5041900000000  0.4740690000000  0.4481610000000 1.0
C      1  0.5268940000000  0.5407700000000  0.4995970000000 1.0
C      1  0.4310690000000  0.4750180000000  0.5372600000000 1.0
C      1  0.4560380000000  0.4677450000000  0.4477590000000 1.0
C      1  0.5498510000000  0.5084410000000  0.4593190000000 1.0
C      1  0.5053800000000  0.4935320000000  0.5044140000000 1.0
C      1  0.5370690000000  0.4930900000000  0.5399350000000 1.0
C      1  0.4969830000000  0.5653050000000  0.5096200000000 1.0
C      1  0.5199880000000  0.4211270000000  0.5313010000000 1.0
C      1  0.5438110000000  0.4320280000000  0.5407910000000 1.0
C      1  0.4767370000000  0.4681750000000  0.5215970000000 1.0
C      1  0.5166690000000  0.4678140000000  0.5167740000000 1.0
C      1  0.4586000000000  0.5092890000000  0.4725750000000 1.0
C      1  0.4679330000000  0.4440490000000  0.4761690000000 1.0
C      1  0.4584960000000  0.5407250000000  0.4737990000000 1.0
C      1  0.4976430000000  0.5162180000000  0.5237480000000 1.0
C      1  0.4750410000000  0.4874040000000  0.4563870000000 1.0
C      1  0.5461090000000  0.4617460000000  0.5334580000000 1.0
C      1  0.5008120000000  0.5734620000000  0.4550590000000 1.0
C      1  0.5010990000000  0.5330670000000  0.4865510000000 1.0
C      1  0.4890280000000  0.4589780000000  0.5691610000000 1.0
C      1  0.5123830000000  0.4681770000000  0.4768440000000 1.0
C      1  0.5512370000000  0.5275930000000  0.5027180000000 1.0
C      1  0.4910960000000  0.4740080000000  0.5466750000000 1.0
C      1  0.5180930000000  0.5691070000000  0.4840730000000 1.0
END
