TITL C-2782228-2999-342 0.000258206656405729 125000 -993.842480026284 0 0 170 (C1) n - 1
REM
REM in /home/nfs/bkarasulu/CARBON/AIRSS/Generating-Clusters/REBO/Higher-Symm/SD-CG/HFTN-CG
REM
REM
REM
REM
REM
REM ./C.cell (12c818d87b63d06a65506943cc24bca4)
REM
REM compiler GCC version 9.2.1 20190827 (Red Hat 9.2.1-1)
REM options -cpp -mtune=generic -march=x86-64 -g -O0 -fpre-include=/usr/include/finclude/math-vector-fortran.h
REM seed -765925629 1311723871 -1714350337 1067631915 1339199320 1098713263 -1695567610 2095595031 1569603536 -528219930 -38160368 313015686 1341185943 195347130 -1335018133 -112501843 -765285128 1134997812 -1931718539 700501659 -1757159520 933536257 83710322 989110259 1722481863 358692374 1464030894 -766076541 -1794474648 -951609032 -672441518 334619314 -1605705388
REM
CELL 1.54180   50.00000   50.00000   50.00000   90.00000   90.00000   90.00000
LATT -1
SFAC C  
C      1  0.5268620000000  0.4243830000000  0.4843870000000 1.0
C      1  0.4741870000000  0.5754640000000  0.5129030000000 1.0
C      1  0.5220110000000  0.5267370000000  0.5724510000000 1.0
C      1  0.4708220000000  0.4758450000000  0.4386230000000 1.0
C      1  0.5875880000000  0.5003820000000  0.5553570000000 1.0
C      1  0.4017650000000  0.4928790000000  0.4392620000000 1.0
C      1  0.5584910000000  0.4947890000000  0.5126240000000 1.0
C      1  0.4533880000000  0.5048400000000  0.4868040000000 1.0
C      1  0.5175170000000  0.5257290000000  0.4725570000000 1.0
C      1  0.4924590000000  0.4719240000000  0.5332650000000 1.0
C      1  0.4307010000000  0.4397480000000  0.5089740000000 1.0
C      1  0.5719480000000  0.5704680000000  0.4938190000000 1.0
C      1  0.4759380000000  0.5918040000000  0.5559130000000 1.0
C      1  0.5257350000000  0.4110000000000  0.4417000000000 1.0
C      1  0.4296980000000  0.5139670000000  0.5828020000000 1.0
C      1  0.5633370000000  0.4903660000000  0.4340140000000 1.0
C      1  0.4997510000000  0.4954070000000  0.5825740000000 1.0
C      1  0.4957010000000  0.5056420000000  0.4256880000000 1.0
C      1  0.5157440000000  0.5923240000000  0.4430290000000 1.0
C      1  0.4851820000000  0.4015340000000  0.5563870000000 1.0
C      1  0.5054010000000  0.5364560000000  0.5974080000000 1.0
C      1  0.4818710000000  0.4599520000000  0.4130400000000 1.0
C      1  0.4901310000000  0.5327850000000  0.4543310000000 1.0
C      1  0.5155770000000  0.4687410000000  0.5576220000000 1.0
C      1  0.5023360000000  0.5383640000000  0.5490430000000 1.0
C      1  0.4906990000000  0.4516100000000  0.4514960000000 1.0
C      1  0.4869320000000  0.5315180000000  0.3966720000000 1.0
C      1  0.5200990000000  0.4583390000000  0.6030910000000 1.0
C      1  0.4336970000000  0.5110680000000  0.4162450000000 1.0
C      1  0.5690520000000  0.4850280000000  0.5759690000000 1.0
C      1  0.4926370000000  0.5657410000000  0.4889250000000 1.0
C      1  0.5081200000000  0.4367530000000  0.5051760000000 1.0
C      1  0.4802730000000  0.4326880000000  0.4963330000000 1.0
C      1  0.5219890000000  0.5735330000000  0.4960730000000 1.0
C      1  0.4817260000000  0.3951270000000  0.5277280000000 1.0
C      1  0.5163840000000  0.6038220000000  0.4703270000000 1.0
C      1  0.5528590000000  0.5332910000000  0.5767480000000 1.0
C      1  0.4439390000000  0.4621500000000  0.4255290000000 1.0
C      1  0.5066250000000  0.4082990000000  0.4642020000000 1.0
C      1  0.4927320000000  0.5890180000000  0.5330190000000 1.0
C      1  0.4412960000000  0.4174560000000  0.5435740000000 1.0
C      1  0.5621890000000  0.5921460000000  0.4601900000000 1.0
C      1  0.4319250000000  0.4853710000000  0.5808620000000 1.0
C      1  0.5669590000000  0.5167420000000  0.4245760000000 1.0
C      1  0.5399370000000  0.4479860000000  0.4685620000000 1.0
C      1  0.4576380000000  0.5518900000000  0.5266140000000 1.0
C      1  0.5250930000000  0.3944570000000  0.4968120000000 1.0
C      1  0.4692490000000  0.5981110000000  0.4911630000000 1.0
C      1  0.5257000000000  0.4864930000000  0.5965200000000 1.0
C      1  0.4794280000000  0.4983340000000  0.3993880000000 1.0
C      1  0.5486910000000  0.5010560000000  0.5875440000000 1.0
C      1  0.4502860000000  0.4900950000000  0.4075870000000 1.0
C      1  0.5766390000000  0.5357150000000  0.4444570000000 1.0
C      1  0.4251900000000  0.4741190000000  0.5551150000000 1.0
C      1  0.4870380000000  0.4303670000000  0.4178660000000 1.0
C      1  0.5112730000000  0.5639330000000  0.5821840000000 1.0
C      1  0.5293620000000  0.5536910000000  0.4039970000000 1.0
C      1  0.4722860000000  0.4408320000000  0.5974350000000 1.0
C      1  0.4473220000000  0.4339450000000  0.4677570000000 1.0
C      1  0.5499930000000  0.5736940000000  0.5391080000000 1.0
C      1  0.5652020000000  0.5314190000000  0.4988420000000 1.0
C      1  0.4331350000000  0.4862940000000  0.5042760000000 1.0
C      1  0.5038210000000  0.3876110000000  0.5122150000000 1.0
C      1  0.4912190000000  0.6102620000000  0.4808440000000 1.0
C      1  0.4696790000000  0.4532750000000  0.5359170000000 1.0
C      1  0.5435120000000  0.5393640000000  0.4663030000000 1.0
C      1  0.4353090000000  0.5512530000000  0.4500150000000 1.0
C      1  0.5672550000000  0.4404250000000  0.5442270000000 1.0
C      1  0.4529090000000  0.5457260000000  0.4120820000000 1.0
C      1  0.5592460000000  0.4468910000000  0.5828560000000 1.0
C      1  0.5152670000000  0.4298870000000  0.5359410000000 1.0
C      1  0.4841810000000  0.5718270000000  0.4602590000000 1.0
C      1  0.4789750000000  0.4673370000000  0.4767760000000 1.0
C      1  0.5164770000000  0.5391560000000  0.5210880000000 1.0
C      1  0.4220830000000  0.5200520000000  0.4470670000000 1.0
C      1  0.5814940000000  0.4664520000000  0.5503810000000 1.0
C      1  0.4677350000000  0.5373480000000  0.4312560000000 1.0
C      1  0.5407390000000  0.4577000000000  0.5688930000000 1.0
C      1  0.5963590000000  0.4798800000000  0.5243480000000 1.0
C      1  0.4020420000000  0.5180420000000  0.4749070000000 1.0
C      1  0.5862440000000  0.4874940000000  0.4662350000000 1.0
C      1  0.4125860000000  0.5218920000000  0.5358190000000 1.0
C      1  0.5625890000000  0.5220410000000  0.5312480000000 1.0
C      1  0.4358100000000  0.4915930000000  0.4614770000000 1.0
C      1  0.4797670000000  0.4115870000000  0.4737680000000 1.0
C      1  0.5181650000000  0.5908610000000  0.5220250000000 1.0
C      1  0.5732210000000  0.4264290000000  0.4651380000000 1.0
C      1  0.4281900000000  0.5776960000000  0.5333660000000 1.0
C      1  0.4617550000000  0.4440870000000  0.5652830000000 1.0
C      1  0.5415350000000  0.5525510000000  0.4357700000000 1.0
C      1  0.4079980000000  0.4439610000000  0.4911930000000 1.0
C      1  0.5899400000000  0.5592670000000  0.5132660000000 1.0
C      1  0.5024690000000  0.4373970000000  0.5932250000000 1.0
C      1  0.4997770000000  0.5547720000000  0.4053110000000 1.0
C      1  0.5182700000000  0.4650660000000  0.5172140000000 1.0
C      1  0.4995810000000  0.5366390000000  0.4955770000000 1.0
C      1  0.4912380000000  0.4950460000000  0.4783560000000 1.0
C      1  0.5131910000000  0.5085050000000  0.5248590000000 1.0
C      1  0.5405730000000  0.5222800000000  0.4101120000000 1.0
C      1  0.4585120000000  0.4719490000000  0.5934560000000 1.0
C      1  0.4583270000000  0.5755510000000  0.4380910000000 1.0
C      1  0.5412520000000  0.4202800000000  0.5550800000000 1.0
C      1  0.5698180000000  0.5171070000000  0.4700610000000 1.0
C      1  0.4323670000000  0.4966960000000  0.5348100000000 1.0
C      1  0.4600970000000  0.5073860000000  0.5492800000000 1.0
C      1  0.5345150000000  0.4836700000000  0.4513230000000 1.0
C      1  0.6052280000000  0.4941760000000  0.4420610000000 1.0
C      1  0.3889910000000  0.5166310000000  0.5546290000000 1.0
C      1  0.4477080000000  0.4657430000000  0.4808930000000 1.0
C      1  0.5445990000000  0.5469060000000  0.5212060000000 1.0
C      1  0.5282980000000  0.4544920000000  0.4138610000000 1.0
C      1  0.4632460000000  0.5511940000000  0.5812320000000 1.0
C      1  0.4576430000000  0.4046480000000  0.5653150000000 1.0
C      1  0.5435610000000  0.5924470000000  0.4351630000000 1.0
C      1  0.4798050000000  0.5128880000000  0.5007090000000 1.0
C      1  0.5298770000000  0.4910070000000  0.5059990000000 1.0
C      1  0.5900650000000  0.5081490000000  0.5061630000000 1.0
C      1  0.4038270000000  0.4900280000000  0.4934030000000 1.0
C      1  0.4357750000000  0.5392310000000  0.5736400000000 1.0
C      1  0.5563500000000  0.4605420000000  0.4272390000000 1.0
C      1  0.4680690000000  0.5022580000000  0.5811250000000 1.0
C      1  0.5259120000000  0.4944990000000  0.4208720000000 1.0
C      1  0.5481360000000  0.5972600000000  0.5143610000000 1.0
C      1  0.4505930000000  0.4075560000000  0.4889990000000 1.0
C      1  0.4176410000000  0.4429350000000  0.4643550000000 1.0
C      1  0.5784910000000  0.5580110000000  0.5391730000000 1.0
C      1  0.6059430000000  0.4769660000000  0.4914720000000 1.0
C      1  0.4041760000000  0.5262720000000  0.5076370000000 1.0
C      1  0.4343930000000  0.5909190000000  0.4522210000000 1.0
C      1  0.5633420000000  0.4009400000000  0.5416290000000 1.0
C      1  0.4476310000000  0.5934810000000  0.5483710000000 1.0
C      1  0.5535420000000  0.4117310000000  0.4497730000000 1.0
C      1  0.4909270000000  0.5748480000000  0.4276140000000 1.0
C      1  0.5094960000000  0.4201970000000  0.5677160000000 1.0
C      1  0.4195990000000  0.4663380000000  0.4451730000000 1.0
C      1  0.5774360000000  0.5308100000000  0.5571940000000 1.0
C      1  0.5158530000000  0.5309100000000  0.4330900000000 1.0
C      1  0.4852700000000  0.4675970000000  0.5721250000000 1.0
C      1  0.5743130000000  0.4706430000000  0.5002850000000 1.0
C      1  0.4314270000000  0.5270510000000  0.4892250000000 1.0
C      1  0.5579010000000  0.4468780000000  0.4957430000000 1.0
C      1  0.4468420000000  0.5515070000000  0.4965490000000 1.0
C      1  0.5196510000000  0.4551370000000  0.4461210000000 1.0
C      1  0.4713120000000  0.5378960000000  0.5511260000000 1.0
C      1  0.3906740000000  0.4661940000000  0.4953560000000 1.0
C      1  0.6048240000000  0.5363310000000  0.5054530000000 1.0
C      1  0.5429900000000  0.4441170000000  0.5230580000000 1.0
C      1  0.4607330000000  0.5516330000000  0.4696460000000 1.0
C      1  0.4232630000000  0.5738520000000  0.4734400000000 1.0
C      1  0.5803050000000  0.4163350000000  0.5230550000000 1.0
C      1  0.5061750000000  0.4766750000000  0.4003810000000 1.0
C      1  0.4777110000000  0.5285990000000  0.5967690000000 1.0
C      1  0.4591970000000  0.4427690000000  0.5121710000000 1.0
C      1  0.5458060000000  0.5634570000000  0.4849420000000 1.0
C      1  0.4772750000000  0.5020110000000  0.4512540000000 1.0
C      1  0.5162370000000  0.5012180000000  0.5539350000000 1.0
C      1  0.4262670000000  0.5758370000000  0.5039970000000 1.0
C      1  0.5769600000000  0.4214810000000  0.4953030000000 1.0
C      1  0.4292410000000  0.5462700000000  0.5449440000000 1.0
C      1  0.5703330000000  0.4594550000000  0.4582610000000 1.0
C      1  0.4839690000000  0.5745320000000  0.5770060000000 1.0
C      1  0.5149850000000  0.4256410000000  0.4195980000000 1.0
C      1  0.4623760000000  0.4369930000000  0.4393450000000 1.0
C      1  0.5377480000000  0.5630500000000  0.5690180000000 1.0
C      1  0.5688720000000  0.5647070000000  0.4486130000000 1.0
C      1  0.4329380000000  0.4471160000000  0.5502540000000 1.0
C      1  0.5227060000000  0.4957140000000  0.4765310000000 1.0
C      1  0.4822380000000  0.5003780000000  0.5290880000000 1.0
C      1  0.4538350000000  0.4036660000000  0.5181310000000 1.0
C      1  0.5456490000000  0.6032980000000  0.4837330000000 1.0
END
