TITL C-2782234-8014-416 0.000780915752289004 125000 -501.146183752277 0 0 86 (C1) n - 1
REM
REM in /home/nfs/bkarasulu/CARBON/AIRSS/Generating-Clusters/REBO/Higher-Symm/SD-CG/HFTN-CG
REM
REM
REM
REM
REM
REM ./C.cell (12c818d87b63d06a65506943cc24bca4)
REM
REM compiler GCC version 9.2.1 20190827 (Red Hat 9.2.1-1)
REM options -cpp -mtune=generic -march=x86-64 -g -O0 -fpre-include=/usr/include/finclude/math-vector-fortran.h
REM seed -494286612 1060826497 851014444 1042572181 79018996 443129432 -1012745157 634279849 90310637 -1028324461 1842503770 630286221 -1239780277 -440283257 -28359891 1809021680 166162172 -1661060564 -2102151058 1274712330 -207641565 206494837 1640029433 1801385480 227812925 2104149026 -1357529489 -588440216 1667300699 64975287 1445610766 -148727358 -1791554878
REM
CELL 1.54180   50.00000   50.00000   50.00000   90.00000   90.00000   90.00000
LATT -1
SFAC C  
C      1  0.5471040000000  0.5586550000000  0.4724770000000 1.0
C      1  0.5438880000000  0.5446770000000  0.5367700000000 1.0
C      1  0.5441950000000  0.4740190000000  0.5536330000000 1.0
C      1  0.5462570000000  0.4350780000000  0.4955760000000 1.0
C      1  0.5449940000000  0.4847360000000  0.4423800000000 1.0
C      1  0.5029290000000  0.5605200000000  0.5443420000000 1.0
C      1  0.5020440000000  0.4751790000000  0.5716180000000 1.0
C      1  0.5003290000000  0.4215770000000  0.5003300000000 1.0
C      1  0.5007490000000  0.4770790000000  0.4297770000000 1.0
C      1  0.4997240000000  0.5648090000000  0.4546660000000 1.0
C      1  0.5018900000000  0.5331050000000  0.4639940000000 1.0
C      1  0.5053300000000  0.5411580000000  0.5173810000000 1.0
C      1  0.5051510000000  0.4945690000000  0.5447920000000 1.0
C      1  0.5033520000000  0.4527240000000  0.5114770000000 1.0
C      1  0.5061440000000  0.4731340000000  0.4623670000000 1.0
C      1  0.5323110000000  0.5125310000000  0.4430670000000 1.0
C      1  0.5337060000000  0.5726400000000  0.4929790000000 1.0
C      1  0.5354920000000  0.5299270000000  0.5596310000000 1.0
C      1  0.5345330000000  0.4482140000000  0.5478860000000 1.0
C      1  0.5336710000000  0.4378730000000  0.4657070000000 1.0
C      1  0.4967070000000  0.5739130000000  0.5135330000000 1.0
C      1  0.4969990000000  0.5088420000000  0.5746820000000 1.0
C      1  0.4941210000000  0.4285110000000  0.5332330000000 1.0
C      1  0.4951630000000  0.4464860000000  0.4441740000000 1.0
C      1  0.4926780000000  0.5403080000000  0.4320010000000 1.0
C      1  0.5861050000000  0.5184450000000  0.4793590000000 1.0
C      1  0.5870330000000  0.5317260000000  0.5169170000000 1.0
C      1  0.5867910000000  0.4966960000000  0.5358160000000 1.0
C      1  0.5854540000000  0.4735930000000  0.5033270000000 1.0
C      1  0.5838640000000  0.4905250000000  0.4808630000000 1.0
C      1  0.5064450000000  0.4240290000000  0.4667500000000 1.0
C      1  0.5067620000000  0.5108450000000  0.4269690000000 1.0
C      1  0.5061890000000  0.5821460000000  0.4833560000000 1.0
C      1  0.5083740000000  0.5389150000000  0.5703740000000 1.0
C      1  0.5068130000000  0.4435120000000  0.5594900000000 1.0
C      1  0.5278480000000  0.4957830000000  0.5243650000000 1.0
C      1  0.5291280000000  0.4688630000000  0.5083350000000 1.0
C      1  0.5339490000000  0.4691080000000  0.4773820000000 1.0
C      1  0.5294490000000  0.5229050000000  0.4756400000000 1.0
C      1  0.5279180000000  0.5228070000000  0.5074000000000 1.0
C      1  0.4519670000000  0.5394530000000  0.4554240000000 1.0
C      1  0.4553800000000  0.5538130000000  0.5244800000000 1.0
C      1  0.4551450000000  0.4937090000000  0.5591890000000 1.0
C      1  0.4533460000000  0.4412430000000  0.5131260000000 1.0
C      1  0.4548290000000  0.4693150000000  0.4476860000000 1.0
C      1  0.4557160000000  0.4450610000000  0.5600650000000 1.0
C      1  0.4555140000000  0.4257290000000  0.4664680000000 1.0
C      1  0.4560260000000  0.5094300000000  0.4194800000000 1.0
C      1  0.4555860000000  0.5791420000000  0.4850580000000 1.0
C      1  0.4575780000000  0.5392450000000  0.5706000000000 1.0
C      1  0.4753240000000  0.4641020000000  0.5046910000000 1.0
C      1  0.4759520000000  0.4838420000000  0.4674290000000 1.0
C      1  0.4745550000000  0.5258480000000  0.4753380000000 1.0
C      1  0.4762260000000  0.5301450000000  0.5175460000000 1.0
C      1  0.4759120000000  0.4925290000000  0.5344430000000 1.0
C      1  0.4631170000000  0.4295250000000  0.5369900000000 1.0
C      1  0.4640580000000  0.4427130000000  0.4448320000000 1.0
C      1  0.4619230000000  0.5359660000000  0.4290950000000 1.0
C      1  0.4652930000000  0.5769080000000  0.5119970000000 1.0
C      1  0.4659100000000  0.5125390000000  0.5772750000000 1.0
C      1  0.4399950000000  0.5560520000000  0.4777780000000 1.0
C      1  0.4414490000000  0.5391300000000  0.5466810000000 1.0
C      1  0.4404590000000  0.4682900000000  0.5524810000000 1.0
C      1  0.4399640000000  0.4400580000000  0.4859560000000 1.0
C      1  0.4404910000000  0.4943060000000  0.4385550000000 1.0
C      1  0.5619510000000  0.4593590000000  0.5076380000000 1.0
C      1  0.5624150000000  0.4819880000000  0.4656860000000 1.0
C      1  0.5622410000000  0.5323910000000  0.4783980000000 1.0
C      1  0.5600310000000  0.5277610000000  0.5180290000000 1.0
C      1  0.5604970000000  0.4905400000000  0.5325550000000 1.0
C      1  0.4804260000000  0.5566710000000  0.5693220000000 1.0
C      1  0.4789200000000  0.4509980000000  0.5759290000000 1.0
C      1  0.4777570000000  0.4114200000000  0.4774650000000 1.0
C      1  0.4803900000000  0.4962970000000  0.4120910000000 1.0
C      1  0.4771800000000  0.5858630000000  0.4675090000000 1.0
C      1  0.5362760000000  0.5678140000000  0.5212050000000 1.0
C      1  0.5412080000000  0.5024470000000  0.5653080000000 1.0
C      1  0.5397510000000  0.4314990000000  0.5252510000000 1.0
C      1  0.5350750000000  0.4587070000000  0.4388200000000 1.0
C      1  0.5434560000000  0.5445790000000  0.4453330000000 1.0
C      1  0.4450100000000  0.4833240000000  0.5221730000000 1.0
C      1  0.4448840000000  0.4733360000000  0.4913020000000 1.0
C      1  0.4450310000000  0.4991400000000  0.4720110000000 1.0
C      1  0.4444730000000  0.5252670000000  0.4917930000000 1.0
C      1  0.4454020000000  0.5154080000000  0.5223970000000 1.0
C      1  0.4740140000000  0.4994380000000  0.4994760000000 1.0
END
