TITL C-2782227-3064-1022 0.000767133869070589 125000 -143.565260663718 0 0 30 (Cs) n - 1
REM
REM in /home/nfs/bkarasulu/CARBON/AIRSS/Generating-Clusters/REBO/Higher-Symm/SD-CG/HFTN-CG
REM
REM
REM
REM
REM
REM ./C.cell (12c818d87b63d06a65506943cc24bca4)
REM
REM compiler GCC version 9.2.1 20190827 (Red Hat 9.2.1-1)
REM options -cpp -mtune=generic -march=x86-64 -g -O0 -fpre-include=/usr/include/finclude/math-vector-fortran.h
REM seed 1355495112 933093746 -976593269 825708077 -1117704477 1108551584 427456146 1478505511 1619446243 -585210251 823671517 -1266859806 -1868724412 703577884 -1570407111 1413958676 1740429760 -862924152 1069300818 1786340198 -1557121403 1983696744 426936842 -674259903 1158664962 -1498666478 346479437 537899511 212012663 1047473729 -837205307 -1151980325 -1703176083
REM
CELL 1.54180   50.00000   50.00000   50.00000   90.00000   90.00000   90.00000
LATT -1
SFAC C  
C      1  0.5322970000000  0.4324280000000  0.5013990000000 1.0
C      1  0.4524030000000  0.4991380000000  0.5061960000000 1.0
C      1  0.4698050000000  0.5254730000000  0.4265120000000 1.0
C      1  0.5295270000000  0.5691730000000  0.5044040000000 1.0
C      1  0.4970820000000  0.4324460000000  0.4681220000000 1.0
C      1  0.4943110000000  0.5691910000000  0.4711270000000 1.0
C      1  0.4130820000000  0.4982030000000  0.5124750000000 1.0
C      1  0.5929860000000  0.5013970000000  0.5329760000000 1.0
C      1  0.5560410000000  0.5009670000000  0.5184800000000 1.0
C      1  0.4705530000000  0.4981650000000  0.5671810000000 1.0
C      1  0.5187560000000  0.4990330000000  0.5721250000000 1.0
C      1  0.4699610000000  0.4770280000000  0.4258260000000 1.0
C      1  0.4621600000000  0.5014640000000  0.4093500000000 1.0
C      1  0.4272710000000  0.4990790000000  0.4856750000000 1.0
C      1  0.5134840000000  0.4539660000000  0.4860480000000 1.0
C      1  0.4928000000000  0.4981630000000  0.5878060000000 1.0
C      1  0.4787210000000  0.5010070000000  0.4454170000000 1.0
C      1  0.4968460000000  0.4991150000000  0.5481930000000 1.0
C      1  0.4349320000000  0.4981830000000  0.5335210000000 1.0
C      1  0.5758520000000  0.4769770000000  0.5266940000000 1.0
C      1  0.5756630000000  0.5254170000000  0.5257380000000 1.0
C      1  0.5121990000000  0.5874100000000  0.4874790000000 1.0
C      1  0.5115870000000  0.5475860000000  0.4881050000000 1.0
C      1  0.5157070000000  0.4142660000000  0.4836740000000 1.0
C      1  0.4996390000000  0.4997730000000  0.5208390000000 1.0
C      1  0.4906160000000  0.5006780000000  0.4713200000000 1.0
C      1  0.5111680000000  0.5203400000000  0.4885340000000 1.0
C      1  0.5119630000000  0.4811280000000  0.4876720000000 1.0
C      1  0.5295060000000  0.5006590000000  0.5080690000000 1.0
C      1  0.4795550000000  0.4997830000000  0.5018610000000 1.0
END
