TITL C-2782234-8014-835 -0.0010073676968886 125000 -877.444466237029 0 0 149 (C1) n - 1
REM
REM in /home/nfs/bkarasulu/CARBON/AIRSS/Generating-Clusters/REBO/Higher-Symm/SD-CG/HFTN-CG
REM
REM
REM
REM
REM
REM ./C.cell (12c818d87b63d06a65506943cc24bca4)
REM
REM compiler GCC version 9.2.1 20190827 (Red Hat 9.2.1-1)
REM options -cpp -mtune=generic -march=x86-64 -g -O0 -fpre-include=/usr/include/finclude/math-vector-fortran.h
REM seed -1326300920 2028273120 2025740356 1873440234 -157271666 1625221838 -1290569948 -1120824361 55149488 -1986157575 702043533 -1238282451 -948245217 -210082497 1242959468 -584950574 541808923 100668860 -623174431 1266691160 1917182128 -101940981 -299570951 -1319453856 517085797 2002274113 -1516559078 -1976957488 -1117540587 856456407 1562255820 2127133151 -1072797460
REM
CELL 1.54180   50.00000   50.00000   50.00000   90.00000   90.00000   90.00000
LATT -1
SFAC C  
C      1  0.4224830000000  0.4985730000000  0.4524390000000 1.0
C      1  0.4207510000000  0.4528660000000  0.4904640000000 1.0
C      1  0.4123150000000  0.4762100000000  0.5452700000000 1.0
C      1  0.4228380000000  0.5316620000000  0.5354800000000 1.0
C      1  0.4229460000000  0.5468760000000  0.4811020000000 1.0
C      1  0.4839580000000  0.5444860000000  0.4226080000000 1.0
C      1  0.4762110000000  0.4456930000000  0.4356860000000 1.0
C      1  0.4835760000000  0.4122430000000  0.5350040000000 1.0
C      1  0.4771540000000  0.5100030000000  0.5895120000000 1.0
C      1  0.4833200000000  0.5864790000000  0.5204380000000 1.0
C      1  0.4751920000000  0.5361260000000  0.5969410000000 1.0
C      1  0.4804300000000  0.6045820000000  0.5004920000000 1.0
C      1  0.4814660000000  0.5335180000000  0.3979360000000 1.0
C      1  0.4746130000000  0.4192870000000  0.4456940000000 1.0
C      1  0.4793130000000  0.4101000000000  0.5619280000000 1.0
C      1  0.4536710000000  0.5382140000000  0.4803120000000 1.0
C      1  0.4531010000000  0.4948920000000  0.4631230000000 1.0
C      1  0.4534300000000  0.4433500000000  0.4859660000000 1.0
C      1  0.4463330000000  0.4723240000000  0.5467290000000 1.0
C      1  0.4522520000000  0.5276420000000  0.5238910000000 1.0
C      1  0.5567750000000  0.4739540000000  0.5716000000000 1.0
C      1  0.5524530000000  0.5555110000000  0.5477820000000 1.0
C      1  0.5542600000000  0.5646220000000  0.4543920000000 1.0
C      1  0.5611780000000  0.4748510000000  0.4270390000000 1.0
C      1  0.5624790000000  0.4216520000000  0.4986800000000 1.0
C      1  0.5167310000000  0.3941200000000  0.4988010000000 1.0
C      1  0.5095550000000  0.4686230000000  0.5978840000000 1.0
C      1  0.5141350000000  0.5872220000000  0.5616270000000 1.0
C      1  0.5141300000000  0.5826390000000  0.4373480000000 1.0
C      1  0.5105230000000  0.4684040000000  0.4020080000000 1.0
C      1  0.5328160000000  0.5208240000000  0.5501610000000 1.0
C      1  0.5348200000000  0.5490600000000  0.4988670000000 1.0
C      1  0.5359620000000  0.5124640000000  0.4500850000000 1.0
C      1  0.5357660000000  0.4547320000000  0.4705860000000 1.0
C      1  0.5351970000000  0.4573620000000  0.5355280000000 1.0
C      1  0.4954890000000  0.4640780000000  0.5032540000000 1.0
C      1  0.4948380000000  0.4874930000000  0.5345860000000 1.0
C      1  0.4959030000000  0.5252650000000  0.5211490000000 1.0
C      1  0.4969540000000  0.5252150000000  0.4813280000000 1.0
C      1  0.4959100000000  0.4865450000000  0.4702380000000 1.0
C      1  0.4399930000000  0.4100450000000  0.5082510000000 1.0
C      1  0.4313190000000  0.4813670000000  0.5913820000000 1.0
C      1  0.4384390000000  0.5773500000000  0.5477730000000 1.0
C      1  0.4343810000000  0.5725000000000  0.4397630000000 1.0
C      1  0.4347140000000  0.4707080000000  0.4132680000000 1.0
C      1  0.5128700000000  0.5846540000000  0.5313600000000 1.0
C      1  0.5134670000000  0.5536430000000  0.4286920000000 1.0
C      1  0.5068810000000  0.4494360000000  0.4258280000000 1.0
C      1  0.5142040000000  0.4068420000000  0.5279340000000 1.0
C      1  0.5066220000000  0.4976510000000  0.5918660000000 1.0
C      1  0.5370370000000  0.4165420000000  0.5481110000000 1.0
C      1  0.5318450000000  0.5174160000000  0.5906520000000 1.0
C      1  0.5371580000000  0.5877570000000  0.5081420000000 1.0
C      1  0.5370200000000  0.5355360000000  0.4157280000000 1.0
C      1  0.5322040000000  0.4323380000000  0.4376400000000 1.0
C      1  0.4247930000000  0.4700210000000  0.4400660000000 1.0
C      1  0.4259180000000  0.4335230000000  0.5145660000000 1.0
C      1  0.4176350000000  0.4942190000000  0.5703240000000 1.0
C      1  0.4229450000000  0.5622520000000  0.5299460000000 1.0
C      1  0.4193260000000  0.5506480000000  0.4504550000000 1.0
C      1  0.4049000000000  0.4986030000000  0.4763910000000 1.0
C      1  0.4034850000000  0.4769270000000  0.4950780000000 1.0
C      1  0.4008980000000  0.4888940000000  0.5210840000000 1.0
C      1  0.4035370000000  0.5171400000000  0.5178680000000 1.0
C      1  0.4052370000000  0.5231920000000  0.4903900000000 1.0
C      1  0.4736110000000  0.4610020000000  0.5363950000000 1.0
C      1  0.4750220000000  0.5191580000000  0.5478690000000 1.0
C      1  0.4810970000000  0.5519780000000  0.4953960000000 1.0
C      1  0.4815240000000  0.5078620000000  0.4489370000000 1.0
C      1  0.4842200000000  0.4464460000000  0.4791470000000 1.0
C      1  0.5256870000000  0.4923000000000  0.4300050000000 1.0
C      1  0.5332080000000  0.4298020000000  0.4869780000000 1.0
C      1  0.5187830000000  0.4594870000000  0.5600610000000 1.0
C      1  0.5191460000000  0.5485330000000  0.5533150000000 1.0
C      1  0.5262410000000  0.5585660000000  0.4714210000000 1.0
C      1  0.6095780000000  0.5188350000000  0.4685530000000 1.0
C      1  0.6129520000000  0.4854250000000  0.4728920000000 1.0
C      1  0.6072070000000  0.4795860000000  0.5052030000000 1.0
C      1  0.5949490000000  0.5083840000000  0.5186720000000 1.0
C      1  0.5951080000000  0.5318320000000  0.4958110000000 1.0
C      1  0.5586400000000  0.4471630000000  0.4396160000000 1.0
C      1  0.5610220000000  0.4277030000000  0.5321410000000 1.0
C      1  0.5556640000000  0.5035150000000  0.5772890000000 1.0
C      1  0.5627380000000  0.5679320000000  0.5191960000000 1.0
C      1  0.5636580000000  0.5372180000000  0.4364640000000 1.0
C      1  0.4890980000000  0.5800020000000  0.5747800000000 1.0
C      1  0.4855450000000  0.5878600000000  0.4514570000000 1.0
C      1  0.4861950000000  0.4856260000000  0.3904700000000 1.0
C      1  0.4881620000000  0.3917790000000  0.4839540000000 1.0
C      1  0.4824610000000  0.4526230000000  0.5912500000000 1.0
C      1  0.5272880000000  0.5094620000000  0.4789090000000 1.0
C      1  0.5266930000000  0.4798400000000  0.4839970000000 1.0
C      1  0.5259880000000  0.4747800000000  0.5131580000000 1.0
C      1  0.5260200000000  0.5003450000000  0.5282040000000 1.0
C      1  0.5270340000000  0.5218460000000  0.5070100000000 1.0
C      1  0.5656880000000  0.5034930000000  0.4429400000000 1.0
C      1  0.5679140000000  0.4432400000000  0.4724300000000 1.0
C      1  0.5658410000000  0.4599660000000  0.5422950000000 1.0
C      1  0.5655150000000  0.5245540000000  0.5523710000000 1.0
C      1  0.5639870000000  0.5580210000000  0.4864850000000 1.0
C      1  0.5241040000000  0.4095940000000  0.4538200000000 1.0
C      1  0.5262150000000  0.4234880000000  0.5752130000000 1.0
C      1  0.5237110000000  0.5458260000000  0.5928340000000 1.0
C      1  0.5270080000000  0.5988340000000  0.4816130000000 1.0
C      1  0.5276460000000  0.5143990000000  0.3969330000000 1.0
C      1  0.4661340000000  0.5587040000000  0.5257460000000 1.0
C      1  0.4669400000000  0.5389200000000  0.4505670000000 1.0
C      1  0.4645260000000  0.4727030000000  0.4397250000000 1.0
C      1  0.4698230000000  0.4357360000000  0.5150860000000 1.0
C      1  0.4590920000000  0.4950700000000  0.5660870000000 1.0
C      1  0.4624680000000  0.4821960000000  0.4076350000000 1.0
C      1  0.4678610000000  0.4048320000000  0.4990810000000 1.0
C      1  0.4584280000000  0.4714800000000  0.5909440000000 1.0
C      1  0.4671030000000  0.5763640000000  0.5553860000000 1.0
C      1  0.4617320000000  0.5702140000000  0.4425490000000 1.0
C      1  0.5038600000000  0.4264090000000  0.4950220000000 1.0
C      1  0.4927390000000  0.4580640000000  0.5614090000000 1.0
C      1  0.4915090000000  0.5454630000000  0.5552760000000 1.0
C      1  0.5001760000000  0.5657620000000  0.4707940000000 1.0
C      1  0.4978700000000  0.4898120000000  0.4276490000000 1.0
C      1  0.4976100000000  0.6048450000000  0.4781330000000 1.0
C      1  0.4987030000000  0.5125850000000  0.3892660000000 1.0
C      1  0.4952270000000  0.4035580000000  0.4578580000000 1.0
C      1  0.4962390000000  0.4233030000000  0.5807320000000 1.0
C      1  0.4949530000000  0.5563920000000  0.5935550000000 1.0
C      1  0.4196850000000  0.5208910000000  0.5643500000000 1.0
C      1  0.4190770000000  0.5685350000000  0.5034000000000 1.0
C      1  0.4179480000000  0.5259860000000  0.4376740000000 1.0
C      1  0.4327450000000  0.4508110000000  0.4598390000000 1.0
C      1  0.4251900000000  0.4466020000000  0.5395420000000 1.0
C      1  0.5046900000000  0.5054660000000  0.5610630000000 1.0
C      1  0.5089260000000  0.5562650000000  0.5155830000000 1.0
C      1  0.5088320000000  0.5296470000000  0.4500330000000 1.0
C      1  0.5072200000000  0.4580530000000  0.4571150000000 1.0
C      1  0.5092230000000  0.4406270000000  0.5244160000000 1.0
C      1  0.5376420000000  0.5689450000000  0.5737410000000 1.0
C      1  0.5371970000000  0.5922940000000  0.4538490000000 1.0
C      1  0.5408710000000  0.4834000000000  0.4023000000000 1.0
C      1  0.5440160000000  0.3995810000000  0.4797310000000 1.0
C      1  0.5361810000000  0.4538550000000  0.5870150000000 1.0
C      1  0.5824840000000  0.4990710000000  0.4661040000000 1.0
C      1  0.5885090000000  0.4629330000000  0.4815320000000 1.0
C      1  0.5799890000000  0.4786440000000  0.5255830000000 1.0
C      1  0.5789660000000  0.5380850000000  0.5240750000000 1.0
C      1  0.5822910000000  0.5389570000000  0.4650390000000 1.0
C      1  0.4551100000000  0.5075600000000  0.4954810000000 1.0
C      1  0.4393160000000  0.4837710000000  0.5110280000000 1.0
C      1  0.4874370000000  0.4980690000000  0.5015330000000 1.0
C      1  0.5699230000000  0.4886910000000  0.4946370000000 1.0
END
