TITL C-2782231-7322-557 -0.00203508403284833 125000 -783.084314308946 0 0 137 (C1) n - 1
REM
REM in /home/nfs/bkarasulu/CARBON/AIRSS/Generating-Clusters/REBO/Higher-Symm/SD-CG/HFTN-CG
REM
REM
REM
REM
REM
REM ./C.cell (12c818d87b63d06a65506943cc24bca4)
REM
REM compiler GCC version 9.2.1 20190827 (Red Hat 9.2.1-1)
REM options -cpp -mtune=generic -march=x86-64 -g -O0 -fpre-include=/usr/include/finclude/math-vector-fortran.h
REM seed 244802614 1963798861 1199522866 -1637134832 -2117429234 -596639129 2031800954 -246422194 845227866 -1257614754 -1061071122 29570148 1571907323 2132675208 1760144257 -966460502 1569882743 1148217046 -1790096571 -83520909 1534345814 -29673046 -1002979111 -1242482890 -1127719213 1370249346 377794149 -138121679 1320187266 591832562 785398175 -2124269466 -1220641623
REM
CELL 1.54180   50.00000   50.00000   50.00000   90.00000   90.00000   90.00000
LATT -1
SFAC C  
C      1  0.5186320000000  0.5239690000000  0.5517190000000 1.0
C      1  0.5774910000000  0.5131840000000  0.5215440000000 1.0
C      1  0.5222270000000  0.5542070000000  0.5237360000000 1.0
C      1  0.5200990000000  0.4715790000000  0.4449540000000 1.0
C      1  0.4839420000000  0.4801140000000  0.5571510000000 1.0
C      1  0.4796390000000  0.5113510000000  0.4372450000000 1.0
C      1  0.5621820000000  0.4857540000000  0.4762660000000 1.0
C      1  0.4312180000000  0.4836540000000  0.5226200000000 1.0
C      1  0.4408400000000  0.5209210000000  0.4729430000000 1.0
C      1  0.5198700000000  0.4394860000000  0.4775990000000 1.0
C      1  0.4722240000000  0.4499900000000  0.5210920000000 1.0
C      1  0.4761260000000  0.5602990000000  0.4802240000000 1.0
C      1  0.5263890000000  0.4198780000000  0.3980410000000 1.0
C      1  0.4023710000000  0.5166400000000  0.4113300000000 1.0
C      1  0.4111520000000  0.4081770000000  0.5096490000000 1.0
C      1  0.5256180000000  0.5777430000000  0.6028180000000 1.0
C      1  0.4763380000000  0.5752580000000  0.3980750000000 1.0
C      1  0.4897660000000  0.4117900000000  0.5944380000000 1.0
C      1  0.4075380000000  0.4896370000000  0.5910200000000 1.0
C      1  0.5961810000000  0.4892690000000  0.4107520000000 1.0
C      1  0.5967290000000  0.5166660000000  0.5855440000000 1.0
C      1  0.4121310000000  0.5992490000000  0.4875120000000 1.0
C      1  0.5653620000000  0.5939750000000  0.5347870000000 1.0
C      1  0.5894130000000  0.4074890000000  0.4863670000000 1.0
C      1  0.6055840000000  0.5023550000000  0.5055280000000 1.0
C      1  0.5079800000000  0.6133590000000  0.4875040000000 1.0
C      1  0.4893190000000  0.5060430000000  0.6132700000000 1.0
C      1  0.6329210000000  0.5062490000000  0.5067270000000 1.0
C      1  0.4048110000000  0.4920030000000  0.5139080000000 1.0
C      1  0.3827170000000  0.5092420000000  0.4958560000000 1.0
C      1  0.5100540000000  0.3736590000000  0.5179710000000 1.0
C      1  0.4977690000000  0.3940920000000  0.4972850000000 1.0
C      1  0.4934590000000  0.6169970000000  0.5103320000000 1.0
C      1  0.5012780000000  0.4833280000000  0.3887890000000 1.0
C      1  0.5125650000000  0.4921770000000  0.6119860000000 1.0
C      1  0.5187500000000  0.5043400000000  0.3837660000000 1.0
C      1  0.4784200000000  0.5969640000000  0.5233720000000 1.0
C      1  0.5262150000000  0.4775390000000  0.5922880000000 1.0
C      1  0.5908910000000  0.5166990000000  0.4821220000000 1.0
C      1  0.4811490000000  0.4102820000000  0.4821660000000 1.0
C      1  0.5199840000000  0.4061520000000  0.5193570000000 1.0
C      1  0.5196850000000  0.5892470000000  0.4786700000000 1.0
C      1  0.5266070000000  0.5214020000000  0.4050600000000 1.0
C      1  0.4760420000000  0.5229840000000  0.5951110000000 1.0
C      1  0.4809970000000  0.4865420000000  0.4141460000000 1.0
C      1  0.5945570000000  0.4773450000000  0.5215060000000 1.0
C      1  0.4012360000000  0.4844580000000  0.4813390000000 1.0
C      1  0.4007930000000  0.5253590000000  0.5198710000000 1.0
C      1  0.4324580000000  0.4519890000000  0.5240450000000 1.0
C      1  0.5198940000000  0.4317700000000  0.4462880000000 1.0
C      1  0.4479270000000  0.5213760000000  0.4337850000000 1.0
C      1  0.4311320000000  0.5523730000000  0.4816800000000 1.0
C      1  0.5695250000000  0.5443830000000  0.5220090000000 1.0
C      1  0.5666190000000  0.4520480000000  0.4775690000000 1.0
C      1  0.5194710000000  0.5680110000000  0.5539860000000 1.0
C      1  0.4768150000000  0.5654660000000  0.4476620000000 1.0
C      1  0.4809500000000  0.4342550000000  0.5496460000000 1.0
C      1  0.4511110000000  0.4819030000000  0.5660130000000 1.0
C      1  0.5507890000000  0.4801740000000  0.4323440000000 1.0
C      1  0.5502000000000  0.5202930000000  0.5640980000000 1.0
C      1  0.4618430000000  0.5518760000000  0.5072220000000 1.0
C      1  0.5108800000000  0.4731720000000  0.5461420000000 1.0
C      1  0.5509960000000  0.5065450000000  0.4622850000000 1.0
C      1  0.4609450000000  0.4609230000000  0.4943690000000 1.0
C      1  0.5296300000000  0.4520120000000  0.5044270000000 1.0
C      1  0.5275840000000  0.5397300000000  0.4962200000000 1.0
C      1  0.5041690000000  0.5230500000000  0.4526900000000 1.0
C      1  0.4917070000000  0.5293670000000  0.5421860000000 1.0
C      1  0.4934690000000  0.4630200000000  0.4548470000000 1.0
C      1  0.5561750000000  0.4914800000000  0.5268980000000 1.0
C      1  0.4504620000000  0.4927930000000  0.4638220000000 1.0
C      1  0.4462390000000  0.5096000000000  0.5320390000000 1.0
C      1  0.4411460000000  0.5559870000000  0.5324540000000 1.0
C      1  0.5297360000000  0.4459400000000  0.5476920000000 1.0
C      1  0.5542870000000  0.5338680000000  0.4444180000000 1.0
C      1  0.4424370000000  0.4491560000000  0.4712110000000 1.0
C      1  0.5556010000000  0.4482040000000  0.5258730000000 1.0
C      1  0.5504210000000  0.5442250000000  0.4756820000000 1.0
C      1  0.5253420000000  0.5486130000000  0.4528280000000 1.0
C      1  0.4721160000000  0.5548510000000  0.5465460000000 1.0
C      1  0.4671680000000  0.4444500000000  0.4483440000000 1.0
C      1  0.5536220000000  0.4692410000000  0.5526090000000 1.0
C      1  0.4429820000000  0.4678520000000  0.4438700000000 1.0
C      1  0.4477640000000  0.5326690000000  0.5555210000000 1.0
C      1  0.4210210000000  0.4592670000000  0.4927440000000 1.0
C      1  0.4892240000000  0.4236530000000  0.4585780000000 1.0
C      1  0.4504730000000  0.4892670000000  0.4226610000000 1.0
C      1  0.4184220000000  0.5488980000000  0.5118570000000 1.0
C      1  0.5749150000000  0.5382050000000  0.4908740000000 1.0
C      1  0.5797930000000  0.4563490000000  0.5087930000000 1.0
C      1  0.4902340000000  0.5782990000000  0.5408190000000 1.0
C      1  0.5079810000000  0.5722510000000  0.4594610000000 1.0
C      1  0.5107050000000  0.4236950000000  0.5418760000000 1.0
C      1  0.4556540000000  0.5134480000000  0.5779510000000 1.0
C      1  0.5467540000000  0.5120580000000  0.4229140000000 1.0
C      1  0.5458880000000  0.4883740000000  0.5751190000000 1.0
C      1  0.5145570000000  0.4368720000000  0.4164070000000 1.0
C      1  0.4180470000000  0.5098250000000  0.4331230000000 1.0
C      1  0.4334670000000  0.4245650000000  0.5083260000000 1.0
C      1  0.5115740000000  0.5641930000000  0.5832140000000 1.0
C      1  0.4879660000000  0.5606430000000  0.4186400000000 1.0
C      1  0.4956110000000  0.4330360000000  0.5776590000000 1.0
C      1  0.4216100000000  0.4952360000000  0.5676280000000 1.0
C      1  0.5804780000000  0.4923500000000  0.4334390000000 1.0
C      1  0.5799190000000  0.5068170000000  0.5656730000000 1.0
C      1  0.4327030000000  0.5818140000000  0.4943050000000 1.0
C      1  0.5579010000000  0.5741420000000  0.5169070000000 1.0
C      1  0.5669680000000  0.4230990000000  0.4909210000000 1.0
C      1  0.5188670000000  0.5087940000000  0.4992340000000 1.0
C      1  0.4920860000000  0.5449350000000  0.5133680000000 1.0
C      1  0.5280120000000  0.4971000000000  0.5405340000000 1.0
C      1  0.5474470000000  0.4781680000000  0.5009700000000 1.0
C      1  0.4511070000000  0.4909220000000  0.4971730000000 1.0
C      1  0.4487480000000  0.5242370000000  0.5039830000000 1.0
C      1  0.4928740000000  0.4569060000000  0.4877630000000 1.0
C      1  0.5035890000000  0.4580110000000  0.5200770000000 1.0
C      1  0.4988410000000  0.5377910000000  0.4805320000000 1.0
C      1  0.5241900000000  0.5006870000000  0.4539140000000 1.0
C      1  0.4743960000000  0.5053990000000  0.5436720000000 1.0
C      1  0.4826790000000  0.4911580000000  0.4636640000000 1.0
C      1  0.4901200000000  0.5468420000000  0.5887360000000 1.0
C      1  0.5894480000000  0.4862000000000  0.5484450000000 1.0
C      1  0.5408870000000  0.5792670000000  0.4950200000000 1.0
C      1  0.5006730000000  0.4592480000000  0.4096540000000 1.0
C      1  0.5137730000000  0.4532590000000  0.5844240000000 1.0
C      1  0.5088680000000  0.5424140000000  0.4129580000000 1.0
C      1  0.5904760000000  0.5056380000000  0.4562590000000 1.0
C      1  0.4099420000000  0.5108780000000  0.5486470000000 1.0
C      1  0.4097090000000  0.4943130000000  0.4535490000000 1.0
C      1  0.5459930000000  0.4150150000000  0.5057270000000 1.0
C      1  0.4563130000000  0.4175590000000  0.4937480000000 1.0
C      1  0.4532980000000  0.5906350000000  0.5114340000000 1.0
C      1  0.4496420000000  0.5474900000000  0.4534110000000 1.0
C      1  0.4539730000000  0.4550620000000  0.5488200000000 1.0
C      1  0.5469330000000  0.4523330000000  0.4517550000000 1.0
C      1  0.5469060000000  0.5489580000000  0.5459550000000 1.0
C      1  0.4996270000000  0.4984740000000  0.4877870000000 1.0
END
