TITL C-2782227-3064-1304 -0.0015232968118892 125000 -208.291063812566 0 0 36 (C1) n - 1
REM
REM in /home/nfs/bkarasulu/CARBON/AIRSS/Generating-Clusters/REBO/Higher-Symm/SD-CG/HFTN-CG
REM
REM
REM
REM
REM
REM ./C.cell (12c818d87b63d06a65506943cc24bca4)
REM
REM compiler GCC version 9.2.1 20190827 (Red Hat 9.2.1-1)
REM options -cpp -mtune=generic -march=x86-64 -g -O0 -fpre-include=/usr/include/finclude/math-vector-fortran.h
REM seed 1004844966 -1408024130 -1040291183 2043721407 -1043939013 -1757959539 -1778960523 270263328 -551742885 -677415623 788181576 -265109619 747452432 818605113 1639203210 -264304023 549174143 310694824 114567867 1524141413 883824975 -884430567 2102366442 788914689 1904920486 456383841 -733050465 861918518 -178462992 -358576115 -699164637 770928804 -1014190055
REM
CELL 1.54180   50.00000   50.00000   50.00000   90.00000   90.00000   90.00000
LATT -1
SFAC C  
C      1  0.5609480000000  0.5073630000000  0.4589890000000 1.0
C      1  0.4336220000000  0.5053800000000  0.4676410000000 1.0
C      1  0.5057990000000  0.5065660000000  0.5739840000000 1.0
C      1  0.4416900000000  0.4839150000000  0.4842920000000 1.0
C      1  0.5159500000000  0.4843300000000  0.5598470000000 1.0
C      1  0.5428590000000  0.4856860000000  0.4563620000000 1.0
C      1  0.4834670000000  0.4975100000000  0.5095500000000 1.0
C      1  0.5163960000000  0.4946880000000  0.5095010000000 1.0
C      1  0.4999160000000  0.4970080000000  0.4810680000000 1.0
C      1  0.4503660000000  0.5281920000000  0.4667250000000 1.0
C      1  0.4951660000000  0.5283090000000  0.5594490000000 1.0
C      1  0.5529130000000  0.5293090000000  0.4749600000000 1.0
C      1  0.4708710000000  0.5406420000000  0.4883270000000 1.0
C      1  0.5027020000000  0.5408350000000  0.5310010000000 1.0
C      1  0.5238610000000  0.5412320000000  0.4821830000000 1.0
C      1  0.4583460000000  0.4976820000000  0.5402960000000 1.0
C      1  0.5553880000000  0.4987800000000  0.5159150000000 1.0
C      1  0.4858330000000  0.4990130000000  0.4439930000000 1.0
C      1  0.4687990000000  0.5241810000000  0.5434060000000 1.0
C      1  0.5516220000000  0.5251660000000  0.5057010000000 1.0
C      1  0.4776260000000  0.5251670000000  0.4523210000000 1.0
C      1  0.4496450000000  0.4927890000000  0.5106460000000 1.0
C      1  0.5346620000000  0.4910850000000  0.5381050000000 1.0
C      1  0.5159000000000  0.4944120000000  0.4509440000000 1.0
C      1  0.5397520000000  0.4709430000000  0.5039300000000 1.0
C      1  0.4860320000000  0.4713150000000  0.4640400000000 1.0
C      1  0.4771180000000  0.4710840000000  0.5298850000000 1.0
C      1  0.5252670000000  0.5402610000000  0.5140340000000 1.0
C      1  0.4978010000000  0.5405610000000  0.4711220000000 1.0
C      1  0.4743840000000  0.5399540000000  0.5164260000000 1.0
C      1  0.5122190000000  0.4522840000000  0.4673800000000 1.0
C      1  0.4678320000000  0.4516520000000  0.5056410000000 1.0
C      1  0.5227290000000  0.4528970000000  0.5249000000000 1.0
C      1  0.5039520000000  0.4635130000000  0.5423990000000 1.0
C      1  0.5369830000000  0.4635050000000  0.4743640000000 1.0
C      1  0.4615840000000  0.4627930000000  0.4806730000000 1.0
END
