TITL C-2782240-8521-1423 0.00262777698034266 125000 -179.305017938163 0 0 32 (C1) n - 1
REM
REM in /home/nfs/bkarasulu/CARBON/AIRSS/Generating-Clusters/REBO/Higher-Symm/SD-CG/HFTN-CG
REM
REM
REM
REM
REM
REM ./C.cell (12c818d87b63d06a65506943cc24bca4)
REM
REM compiler GCC version 9.2.1 20190827 (Red Hat 9.2.1-1)
REM options -cpp -mtune=generic -march=x86-64 -g -O0 -fpre-include=/usr/include/finclude/math-vector-fortran.h
REM seed 1394700153 1850733576 421375256 -785823836 547171342 -1823105126 -188525074 -154510122 -2114870688 1461037876 -531856480 -666723892 1058720965 1198130796 487442369 317240666 -39512769 173173844 -1622625207 475249263 -1361243145 1483334621 -1959215162 808731891 1035618858 -675747255 -1665180351 -1090294312 1616918158 -817073968 1425766908 375534935 -250791881
REM
CELL 1.54180   50.00000   50.00000   50.00000   90.00000   90.00000   90.00000
LATT -1
SFAC C  
C      1  0.4825160000000  0.4964600000000  0.5295610000000 1.0
C      1  0.4830220000000  0.5006900000000  0.4751390000000 1.0
C      1  0.5356070000000  0.4986490000000  0.5008210000000 1.0
C      1  0.4295820000000  0.5372560000000  0.5096720000000 1.0
C      1  0.5185510000000  0.5328940000000  0.4368670000000 1.0
C      1  0.5441330000000  0.5325570000000  0.5509060000000 1.0
C      1  0.4809250000000  0.4459540000000  0.5244450000000 1.0
C      1  0.4901370000000  0.4507870000000  0.4725430000000 1.0
C      1  0.5316600000000  0.4479720000000  0.5080070000000 1.0
C      1  0.4906810000000  0.4786900000000  0.4580620000000 1.0
C      1  0.5445050000000  0.4759910000000  0.5160480000000 1.0
C      1  0.4655690000000  0.4736790000000  0.5255580000000 1.0
C      1  0.5172830000000  0.5404250000000  0.4117970000000 1.0
C      1  0.5659530000000  0.5404680000000  0.5630770000000 1.0
C      1  0.4071170000000  0.5462130000000  0.5197670000000 1.0
C      1  0.4560220000000  0.5019700000000  0.4856130000000 1.0
C      1  0.5319550000000  0.4994860000000  0.4714520000000 1.0
C      1  0.5095550000000  0.4976840000000  0.5419880000000 1.0
C      1  0.5241560000000  0.4722460000000  0.5388140000000 1.0
C      1  0.4500760000000  0.4761040000000  0.4984150000000 1.0
C      1  0.5209150000000  0.4738410000000  0.4618710000000 1.0
C      1  0.5072220000000  0.5392400000000  0.4848350000000 1.0
C      1  0.5077460000000  0.5396750000000  0.5177350000000 1.0
C      1  0.4788770000000  0.5409380000000  0.5016460000000 1.0
C      1  0.5091170000000  0.4453430000000  0.5311960000000 1.0
C      1  0.4701250000000  0.4498280000000  0.4941340000000 1.0
C      1  0.5215250000000  0.4474170000000  0.4802970000000 1.0
C      1  0.4534120000000  0.5277550000000  0.4989630000000 1.0
C      1  0.5198990000000  0.5248890000000  0.4635150000000 1.0
C      1  0.5209470000000  0.5241510000000  0.5379740000000 1.0
C      1  0.5018510000000  0.5035390000000  0.5018770000000 1.0
C      1  0.5013650000000  0.4729950000000  0.5034540000000 1.0
END
