TITL C-2782227-3064-441 4.54794418453226e-05 125000 -888.149715816334 0 0 144 (C1) n - 1
REM
REM in /home/nfs/bkarasulu/CARBON/AIRSS/Generating-Clusters/REBO/Higher-Symm/SD-CG/HFTN-CG
REM
REM
REM
REM
REM
REM ./C.cell (12c818d87b63d06a65506943cc24bca4)
REM
REM compiler GCC version 9.2.1 20190827 (Red Hat 9.2.1-1)
REM options -cpp -mtune=generic -march=x86-64 -g -O0 -fpre-include=/usr/include/finclude/math-vector-fortran.h
REM seed 1437075984 -1457235004 -956587750 -59267553 628922491 1376399515 1394438947 753893379 -1816642155 -1505525122 590578322 1373730909 1730947476 -30475692 1132173257 -1613607329 -806409442 -1401140768 1620360951 -619968165 -2080192194 266092462 -631194526 -1431557728 -2146472103 776777956 506152066 1493509706 1414174676 -1107376219 2023518945 -1989523604 1287239820
REM
CELL 1.54180   50.00000   50.00000   50.00000   90.00000   90.00000   90.00000
LATT -1
SFAC C  
C      1  0.5801140000000  0.4771340000000  0.5508280000000 1.0
C      1  0.5495330000000  0.5782840000000  0.4736970000000 1.0
C      1  0.4743500000000  0.5500790000000  0.5778390000000 1.0
C      1  0.4169450000000  0.4770190000000  0.4533890000000 1.0
C      1  0.5882470000000  0.5207250000000  0.4474980000000 1.0
C      1  0.4207710000000  0.5231090000000  0.5517470000000 1.0
C      1  0.4469100000000  0.5881190000000  0.5208010000000 1.0
C      1  0.5511820000000  0.4189200000000  0.5240040000000 1.0
C      1  0.4508800000000  0.4233120000000  0.4729460000000 1.0
C      1  0.5228420000000  0.5509620000000  0.4205670000000 1.0
C      1  0.4788240000000  0.4508430000000  0.4198420000000 1.0
C      1  0.5234020000000  0.4488640000000  0.5810600000000 1.0
C      1  0.5598060000000  0.4272720000000  0.4774090000000 1.0
C      1  0.4760380000000  0.5589180000000  0.4268980000000 1.0
C      1  0.4269300000000  0.4761380000000  0.5591350000000 1.0
C      1  0.4431330000000  0.4275430000000  0.5219250000000 1.0
C      1  0.5546210000000  0.5693000000000  0.5215930000000 1.0
C      1  0.4414470000000  0.5728460000000  0.4749260000000 1.0
C      1  0.5220340000000  0.5558200000000  0.5681250000000 1.0
C      1  0.4761020000000  0.4410970000000  0.5730420000000 1.0
C      1  0.5257770000000  0.4438640000000  0.4266070000000 1.0
C      1  0.5736460000000  0.4743530000000  0.4431630000000 1.0
C      1  0.4263940000000  0.5248260000000  0.4456800000000 1.0
C      1  0.5697780000000  0.5240880000000  0.5550790000000 1.0
C      1  0.5891480000000  0.5085310000000  0.5114860000000 1.0
C      1  0.5114650000000  0.5886580000000  0.5062010000000 1.0
C      1  0.5070710000000  0.5123990000000  0.5877650000000 1.0
C      1  0.4108590000000  0.5101410000000  0.4908760000000 1.0
C      1  0.5918680000000  0.4900680000000  0.4876570000000 1.0
C      1  0.4099690000000  0.4910350000000  0.5139970000000 1.0
C      1  0.4862590000000  0.5914880000000  0.4889980000000 1.0
C      1  0.5137470000000  0.4107170000000  0.4901190000000 1.0
C      1  0.4876650000000  0.4116630000000  0.5064470000000 1.0
C      1  0.4905250000000  0.5127860000000  0.4119040000000 1.0
C      1  0.5100620000000  0.4900210000000  0.4120620000000 1.0
C      1  0.4903600000000  0.4866650000000  0.5900120000000 1.0
C      1  0.5789210000000  0.5564830000000  0.5248490000000 1.0
C      1  0.5253440000000  0.5795730000000  0.5543260000000 1.0
C      1  0.5556270000000  0.5248540000000  0.5791800000000 1.0
C      1  0.4178810000000  0.5582850000000  0.4752230000000 1.0
C      1  0.5842010000000  0.4408690000000  0.4775640000000 1.0
C      1  0.4199250000000  0.4419760000000  0.5266700000000 1.0
C      1  0.4762530000000  0.5837610000000  0.4399820000000 1.0
C      1  0.5250740000000  0.4195540000000  0.4409210000000 1.0
C      1  0.4754080000000  0.4184760000000  0.5563980000000 1.0
C      1  0.4411930000000  0.5262730000000  0.4221360000000 1.0
C      1  0.5585820000000  0.4746230000000  0.4198620000000 1.0
C      1  0.4411450000000  0.4761340000000  0.5833550000000 1.0
C      1  0.5628380000000  0.4779870000000  0.4753610000000 1.0
C      1  0.4736740000000  0.5622060000000  0.4783070000000 1.0
C      1  0.4783890000000  0.4731730000000  0.5611010000000 1.0
C      1  0.4386280000000  0.4775810000000  0.5268860000000 1.0
C      1  0.5586040000000  0.5191220000000  0.5229050000000 1.0
C      1  0.4397790000000  0.5224300000000  0.4772360000000 1.0
C      1  0.5224680000000  0.5580130000000  0.5169320000000 1.0
C      1  0.4749030000000  0.4405620000000  0.5195110000000 1.0
C      1  0.5278800000000  0.4396500000000  0.4787970000000 1.0
C      1  0.5238310000000  0.4754850000000  0.4398570000000 1.0
C      1  0.4770330000000  0.5271750000000  0.4398560000000 1.0
C      1  0.5178570000000  0.5235060000000  0.5572730000000 1.0
C      1  0.5146220000000  0.3932900000000  0.5440590000000 1.0
C      1  0.5504110000000  0.5175740000000  0.3998700000000 1.0
C      1  0.3992820000000  0.5504150000000  0.5187310000000 1.0
C      1  0.4857170000000  0.3936490000000  0.4532350000000 1.0
C      1  0.5156480000000  0.6088100000000  0.4533160000000 1.0
C      1  0.4864130000000  0.6062100000000  0.5459050000000 1.0
C      1  0.4548060000000  0.5154930000000  0.6082850000000 1.0
C      1  0.5448570000000  0.4858050000000  0.6057210000000 1.0
C      1  0.4505380000000  0.4846790000000  0.4003630000000 1.0
C      1  0.6058260000000  0.5481620000000  0.4859230000000 1.0
C      1  0.3909520000000  0.4510840000000  0.4897510000000 1.0
C      1  0.6079570000000  0.4538760000000  0.5176170000000 1.0
C      1  0.4544710000000  0.5319820000000  0.5852290000000 1.0
C      1  0.5851120000000  0.4545650000000  0.5344100000000 1.0
C      1  0.5318630000000  0.5855560000000  0.4533920000000 1.0
C      1  0.5465140000000  0.5361620000000  0.4206130000000 1.0
C      1  0.4553520000000  0.4658770000000  0.4206240000000 1.0
C      1  0.5447480000000  0.4672920000000  0.5842220000000 1.0
C      1  0.4079530000000  0.4532470000000  0.4678990000000 1.0
C      1  0.5873980000000  0.5443270000000  0.4651650000000 1.0
C      1  0.4204990000000  0.5466280000000  0.5367890000000 1.0
C      1  0.4655720000000  0.5876230000000  0.5435440000000 1.0
C      1  0.5328010000000  0.4150660000000  0.5452830000000 1.0
C      1  0.4691250000000  0.4167090000000  0.4528540000000 1.0
C      1  0.4886010000000  0.4021750000000  0.5369700000000 1.0
C      1  0.5412570000000  0.4915060000000  0.4053040000000 1.0
C      1  0.4037400000000  0.5410520000000  0.4925590000000 1.0
C      1  0.5123110000000  0.4018120000000  0.4596470000000 1.0
C      1  0.4887970000000  0.6012620000000  0.4590220000000 1.0
C      1  0.5113790000000  0.5968760000000  0.5368600000000 1.0
C      1  0.4605470000000  0.4887460000000  0.6003560000000 1.0
C      1  0.5374130000000  0.5116810000000  0.5967900000000 1.0
C      1  0.4589770000000  0.5108620000000  0.4064270000000 1.0
C      1  0.5966890000000  0.5393730000000  0.5110520000000 1.0
C      1  0.4021800000000  0.4599310000000  0.5139910000000 1.0
C      1  0.6009180000000  0.4598540000000  0.4908160000000 1.0
C      1  0.5318240000000  0.5084320000000  0.4920300000000 1.0
C      1  0.4925510000000  0.5310690000000  0.5082070000000 1.0
C      1  0.5095960000000  0.4903960000000  0.5332180000000 1.0
C      1  0.4662310000000  0.5115130000000  0.5050480000000 1.0
C      1  0.5320080000000  0.4845960000000  0.5089470000000 1.0
C      1  0.4663860000000  0.4867650000000  0.4898100000000 1.0
C      1  0.5082760000000  0.5312310000000  0.4828700000000 1.0
C      1  0.4909340000000  0.4645090000000  0.4869520000000 1.0
C      1  0.5058820000000  0.4647000000000  0.5119910000000 1.0
C      1  0.4876380000000  0.4887900000000  0.4642190000000 1.0
C      1  0.5125590000000  0.5041380000000  0.4652000000000 1.0
C      1  0.4852840000000  0.5074720000000  0.5317640000000 1.0
C      1  0.4603610000000  0.4943550000000  0.5469990000000 1.0
C      1  0.5481390000000  0.4603240000000  0.4966370000000 1.0
C      1  0.4942720000000  0.5478020000000  0.4606870000000 1.0
C      1  0.5432750000000  0.4972180000000  0.4554920000000 1.0
C      1  0.4600500000000  0.5058120000000  0.4555170000000 1.0
C      1  0.5380580000000  0.5023690000000  0.5442430000000 1.0
C      1  0.4531750000000  0.4618460000000  0.5042430000000 1.0
C      1  0.5437880000000  0.5371260000000  0.5005500000000 1.0
C      1  0.4554890000000  0.5422920000000  0.4983610000000 1.0
C      1  0.5007250000000  0.5441840000000  0.5363970000000 1.0
C      1  0.4958260000000  0.4529300000000  0.5404170000000 1.0
C      1  0.5070660000000  0.4540950000000  0.4603650000000 1.0
C      1  0.5888200000000  0.5030020000000  0.5430970000000 1.0
C      1  0.5432180000000  0.5870560000000  0.4995220000000 1.0
C      1  0.5003660000000  0.5441580000000  0.5863220000000 1.0
C      1  0.4097530000000  0.5032610000000  0.4595870000000 1.0
C      1  0.5931060000000  0.4944620000000  0.4555190000000 1.0
C      1  0.4096600000000  0.4978450000000  0.5451050000000 1.0
C      1  0.4541380000000  0.5928890000000  0.4943040000000 1.0
C      1  0.5449770000000  0.4093550000000  0.4979510000000 1.0
C      1  0.4560910000000  0.4127660000000  0.4983800000000 1.0
C      1  0.4973850000000  0.5438070000000  0.4100170000000 1.0
C      1  0.5041680000000  0.4586620000000  0.4096740000000 1.0
C      1  0.4974540000000  0.4551790000000  0.5909250000000 1.0
C      1  0.4477670000000  0.4751510000000  0.4486050000000 1.0
C      1  0.4412400000000  0.4527190000000  0.4736780000000 1.0
C      1  0.4848120000000  0.4388770000000  0.4446670000000 1.0
C      1  0.5532670000000  0.4799180000000  0.5599240000000 1.0
C      1  0.4459330000000  0.5167060000000  0.5628400000000 1.0
C      1  0.5562350000000  0.5263930000000  0.4479740000000 1.0
C      1  0.5619140000000  0.4450890000000  0.5205510000000 1.0
C      1  0.4478410000000  0.5561550000000  0.5266520000000 1.0
C      1  0.5568280000000  0.5488660000000  0.4737720000000 1.0
C      1  0.5197120000000  0.4387470000000  0.5546890000000 1.0
C      1  0.4741940000000  0.5571990000000  0.5484430000000 1.0
C      1  0.5163390000000  0.5632070000000  0.4452340000000 1.0
END
