TITL C-2782239-8622-943 -0.00481882946256922 125000 -968.561743718694 0 0 169 (C1) n - 1
REM
REM in /home/nfs/bkarasulu/CARBON/AIRSS/Generating-Clusters/REBO/Higher-Symm/SD-CG/HFTN-CG
REM
REM
REM
REM
REM
REM ./C.cell (12c818d87b63d06a65506943cc24bca4)
REM
REM compiler GCC version 9.2.1 20190827 (Red Hat 9.2.1-1)
REM options -cpp -mtune=generic -march=x86-64 -g -O0 -fpre-include=/usr/include/finclude/math-vector-fortran.h
REM seed 770934042 -1237430528 -1561830812 -1975900509 1613165235 -1984978759 959662337 -581704142 1509086088 -429516616 -1226709357 51961041 2079311450 -1358404612 314875994 -801516074 -1723541930 -1384983161 763935389 890552254 774501792 449603799 -1551098519 -906728310 -667545106 -1505594365 85959451 458862939 -1606039082 104638691 1880818883 -755440914 489904738
REM
CELL 1.54180   50.00000   50.00000   50.00000   90.00000   90.00000   90.00000
LATT -1
SFAC C  
C      1  0.4149030000000  0.4845930000000  0.4490300000000 1.0
C      1  0.5828080000000  0.4900680000000  0.5448990000000 1.0
C      1  0.4206390000000  0.5143620000000  0.4486620000000 1.0
C      1  0.5872920000000  0.5197660000000  0.5467060000000 1.0
C      1  0.5366290000000  0.5377020000000  0.4095930000000 1.0
C      1  0.4634630000000  0.5384070000000  0.6018120000000 1.0
C      1  0.5328640000000  0.4575030000000  0.4085030000000 1.0
C      1  0.4639100000000  0.4569740000000  0.5973850000000 1.0
C      1  0.5516370000000  0.4111190000000  0.4939910000000 1.0
C      1  0.4488570000000  0.4152420000000  0.5073180000000 1.0
C      1  0.5522340000000  0.5858550000000  0.4952400000000 1.0
C      1  0.4509620000000  0.5879860000000  0.5069540000000 1.0
C      1  0.4946660000000  0.4507370000000  0.6021990000000 1.0
C      1  0.5018920000000  0.4518120000000  0.4015200000000 1.0
C      1  0.4940980000000  0.5444540000000  0.6095240000000 1.0
C      1  0.5069160000000  0.5454280000000  0.4016640000000 1.0
C      1  0.4169390000000  0.4476560000000  0.4863590000000 1.0
C      1  0.5826440000000  0.4467270000000  0.5131690000000 1.0
C      1  0.4172370000000  0.5541170000000  0.4830190000000 1.0
C      1  0.5811180000000  0.5584680000000  0.5120820000000 1.0
C      1  0.5175270000000  0.5252230000000  0.5968400000000 1.0
C      1  0.4774950000000  0.5282760000000  0.4015410000000 1.0
C      1  0.5161090000000  0.4730500000000  0.5912100000000 1.0
C      1  0.4717820000000  0.4675980000000  0.4032940000000 1.0
C      1  0.5463830000000  0.4842550000000  0.5880550000000 1.0
C      1  0.4479780000000  0.4916170000000  0.4083430000000 1.0
C      1  0.5477030000000  0.5140460000000  0.5912850000000 1.0
C      1  0.4506300000000  0.5202470000000  0.4073910000000 1.0
C      1  0.4959260000000  0.4511470000000  0.4679990000000 1.0
C      1  0.5082550000000  0.4508990000000  0.5453310000000 1.0
C      1  0.4890530000000  0.5495280000000  0.4558900000000 1.0
C      1  0.4996570000000  0.5495840000000  0.5547410000000 1.0
C      1  0.5142710000000  0.4890940000000  0.5647170000000 1.0
C      1  0.4915610000000  0.4810470000000  0.4266240000000 1.0
C      1  0.5160250000000  0.5153820000000  0.5671510000000 1.0
C      1  0.4970410000000  0.5128410000000  0.4226500000000 1.0
C      1  0.4431640000000  0.5360370000000  0.4735140000000 1.0
C      1  0.5594130000000  0.5387150000000  0.5254610000000 1.0
C      1  0.4401930000000  0.4669140000000  0.4743220000000 1.0
C      1  0.5581580000000  0.4628840000000  0.5276740000000 1.0
C      1  0.4652790000000  0.6163210000000  0.5057740000000 1.0
C      1  0.5397140000000  0.6150960000000  0.4902660000000 1.0
C      1  0.4647000000000  0.3877770000000  0.5055400000000 1.0
C      1  0.5351800000000  0.3839440000000  0.4955320000000 1.0
C      1  0.5964140000000  0.4717670000000  0.4480530000000 1.0
C      1  0.3994250000000  0.4651680000000  0.5489690000000 1.0
C      1  0.6022920000000  0.5370780000000  0.4536070000000 1.0
C      1  0.4015090000000  0.5362760000000  0.5481800000000 1.0
C      1  0.4228400000000  0.5179260000000  0.5818080000000 1.0
C      1  0.5822350000000  0.5188660000000  0.4112230000000 1.0
C      1  0.4290240000000  0.4855650000000  0.5834360000000 1.0
C      1  0.5754860000000  0.4864670000000  0.4173390000000 1.0
C      1  0.5223480000000  0.5407540000000  0.5114430000000 1.0
C      1  0.4763340000000  0.5401570000000  0.4952730000000 1.0
C      1  0.5259700000000  0.4618160000000  0.5044580000000 1.0
C      1  0.4774350000000  0.4688100000000  0.4876850000000 1.0
C      1  0.5859720000000  0.4864600000000  0.4722960000000 1.0
C      1  0.4090480000000  0.4847210000000  0.5240880000000 1.0
C      1  0.5868050000000  0.5175070000000  0.4735130000000 1.0
C      1  0.4046790000000  0.5170640000000  0.5213590000000 1.0
C      1  0.5618660000000  0.4631980000000  0.5774370000000 1.0
C      1  0.4439580000000  0.4603620000000  0.4209340000000 1.0
C      1  0.5624730000000  0.5363000000000  0.5809900000000 1.0
C      1  0.4370340000000  0.5404040000000  0.4231100000000 1.0
C      1  0.4372100000000  0.5203720000000  0.5257280000000 1.0
C      1  0.5543670000000  0.5196860000000  0.4739420000000 1.0
C      1  0.4419160000000  0.4807990000000  0.5236110000000 1.0
C      1  0.5560090000000  0.4787130000000  0.4787740000000 1.0
C      1  0.5068150000000  0.5848870000000  0.4614020000000 1.0
C      1  0.4935500000000  0.5839220000000  0.5354770000000 1.0
C      1  0.5073470000000  0.4134050000000  0.4618040000000 1.0
C      1  0.4938330000000  0.4143870000000  0.5401460000000 1.0
C      1  0.4906240000000  0.5103470000000  0.6099260000000 1.0
C      1  0.5113670000000  0.5131040000000  0.3907970000000 1.0
C      1  0.4907570000000  0.4845010000000  0.6078760000000 1.0
C      1  0.5068040000000  0.4851000000000  0.3960390000000 1.0
C      1  0.5562140000000  0.5763410000000  0.4630680000000 1.0
C      1  0.4475950000000  0.5798870000000  0.5390840000000 1.0
C      1  0.5551550000000  0.4181660000000  0.4608740000000 1.0
C      1  0.4456070000000  0.4197390000000  0.5409240000000 1.0
C      1  0.5198710000000  0.4773330000000  0.5343000000000 1.0
C      1  0.4787840000000  0.4748710000000  0.4535520000000 1.0
C      1  0.5235360000000  0.5324350000000  0.5417630000000 1.0
C      1  0.4835740000000  0.5218030000000  0.4490810000000 1.0
C      1  0.5371410000000  0.4558140000000  0.4421880000000 1.0
C      1  0.4625320000000  0.4567600000000  0.5635970000000 1.0
C      1  0.5350740000000  0.5376910000000  0.4429310000000 1.0
C      1  0.4644640000000  0.5307140000000  0.5530690000000 1.0
C      1  0.4022060000000  0.4645800000000  0.4622990000000 1.0
C      1  0.5969700000000  0.4691430000000  0.5338910000000 1.0
C      1  0.4060370000000  0.5351330000000  0.4589370000000 1.0
C      1  0.5984750000000  0.5406740000000  0.5335200000000 1.0
C      1  0.4487870000000  0.4499680000000  0.5267400000000 1.0
C      1  0.5530140000000  0.4475040000000  0.4779140000000 1.0
C      1  0.4468910000000  0.5508670000000  0.5211460000000 1.0
C      1  0.5448470000000  0.5498910000000  0.4796710000000 1.0
C      1  0.5178180000000  0.5535900000000  0.4642090000000 1.0
C      1  0.4773690000000  0.5541540000000  0.5324930000000 1.0
C      1  0.5241560000000  0.4428170000000  0.4661430000000 1.0
C      1  0.4787020000000  0.4451800000000  0.5400010000000 1.0
C      1  0.5242930000000  0.5709890000000  0.5083730000000 1.0
C      1  0.4761750000000  0.5681420000000  0.4950400000000 1.0
C      1  0.5272170000000  0.4329060000000  0.5046730000000 1.0
C      1  0.4734980000000  0.4374350000000  0.4980160000000 1.0
C      1  0.5020150000000  0.5007250000000  0.5214070000000 1.0
C      1  0.5225680000000  0.4808730000000  0.4778810000000 1.0
C      1  0.4874160000000  0.5158040000000  0.5375270000000 1.0
C      1  0.5051350000000  0.5038640000000  0.4615260000000 1.0
C      1  0.4467010000000  0.4800400000000  0.5553080000000 1.0
C      1  0.5458190000000  0.4852440000000  0.4342280000000 1.0
C      1  0.4409250000000  0.5108940000000  0.5550120000000 1.0
C      1  0.5359840000000  0.5073290000000  0.4512190000000 1.0
C      1  0.4169370000000  0.5661810000000  0.5421710000000 1.0
C      1  0.5849300000000  0.5663570000000  0.4534220000000 1.0
C      1  0.4170380000000  0.4358850000000  0.5459410000000 1.0
C      1  0.5832990000000  0.4340420000000  0.4561410000000 1.0
C      1  0.5551620000000  0.4358560000000  0.4226940000000 1.0
C      1  0.4457170000000  0.4336060000000  0.5805800000000 1.0
C      1  0.5557180000000  0.5587640000000  0.4272150000000 1.0
C      1  0.4571300000000  0.5529970000000  0.5752450000000 1.0
C      1  0.5530040000000  0.5164950000000  0.5481390000000 1.0
C      1  0.4545980000000  0.5170160000000  0.4502480000000 1.0
C      1  0.5501630000000  0.4865570000000  0.5474530000000 1.0
C      1  0.4489850000000  0.4865000000000  0.4500440000000 1.0
C      1  0.4419680000000  0.4272260000000  0.4760560000000 1.0
C      1  0.5601520000000  0.4235430000000  0.5246980000000 1.0
C      1  0.4417790000000  0.5757270000000  0.4764680000000 1.0
C      1  0.5580240000000  0.5780890000000  0.5280750000000 1.0
C      1  0.4492180000000  0.5579170000000  0.4479460000000 1.0
C      1  0.5539930000000  0.5559680000000  0.5544880000000 1.0
C      1  0.4495250000000  0.4465480000000  0.4485100000000 1.0
C      1  0.5528310000000  0.4413070000000  0.5533800000000 1.0
C      1  0.5020540000000  0.4294800000000  0.4240990000000 1.0
C      1  0.4972660000000  0.4262200000000  0.5815490000000 1.0
C      1  0.5052100000000  0.5706800000000  0.4211020000000 1.0
C      1  0.4950250000000  0.5652930000000  0.5838880000000 1.0
C      1  0.5825000000000  0.4543900000000  0.4259230000000 1.0
C      1  0.4207320000000  0.4556680000000  0.5734250000000 1.0
C      1  0.5853070000000  0.5453660000000  0.4263290000000 1.0
C      1  0.4262650000000  0.5476870000000  0.5686400000000 1.0
C      1  0.4726160000000  0.5798180000000  0.5623280000000 1.0
C      1  0.5323990000000  0.5806510000000  0.4390220000000 1.0
C      1  0.4697600000000  0.4153690000000  0.5646020000000 1.0
C      1  0.5308170000000  0.4166530000000  0.4370530000000 1.0
C      1  0.5446690000000  0.5182120000000  0.5040230000000 1.0
C      1  0.4549230000000  0.5190240000000  0.4981390000000 1.0
C      1  0.5476390000000  0.4885130000000  0.5078740000000 1.0
C      1  0.4539800000000  0.4881180000000  0.4971960000000 1.0
C      1  0.4133960000000  0.5492010000000  0.5126860000000 1.0
C      1  0.5787780000000  0.5498620000000  0.4826950000000 1.0
C      1  0.4160160000000  0.4519280000000  0.5157420000000 1.0
C      1  0.5866210000000  0.4536030000000  0.4823120000000 1.0
C      1  0.5229850000000  0.4298380000000  0.5642210000000 1.0
C      1  0.4798800000000  0.4360760000000  0.4439190000000 1.0
C      1  0.5256600000000  0.5658350000000  0.5689570000000 1.0
C      1  0.4776300000000  0.5721110000000  0.4357880000000 1.0
C      1  0.5261040000000  0.5807350000000  0.5402640000000 1.0
C      1  0.4730210000000  0.5846130000000  0.4656800000000 1.0
C      1  0.5273270000000  0.4176720000000  0.5339610000000 1.0
C      1  0.4745300000000  0.4175740000000  0.4704370000000 1.0
C      1  0.4896840000000  0.5969540000000  0.5078310000000 1.0
C      1  0.5145170000000  0.5968930000000  0.4888990000000 1.0
C      1  0.4879200000000  0.4086210000000  0.5094800000000 1.0
C      1  0.5124180000000  0.4050630000000  0.4919570000000 1.0
C      1  0.4470710000000  0.5144910000000  0.6041400000000 1.0
C      1  0.5542450000000  0.5153970000000  0.3999780000000 1.0
C      1  0.4508220000000  0.4834500000000  0.6078620000000 1.0
C      1  0.5464700000000  0.4845110000000  0.3995800000000 1.0
C      1  0.5031900000000  0.5020480000000  0.4943160000000 1.0
END
