TITL C-2782230-7391-510 -0.004821298153395 125000 -708.220463544713 0 0 124 (C1) n - 1
REM
REM in /home/nfs/bkarasulu/CARBON/AIRSS/Generating-Clusters/REBO/Higher-Symm/SD-CG/HFTN-CG
REM
REM
REM
REM
REM
REM ./C.cell (12c818d87b63d06a65506943cc24bca4)
REM
REM compiler GCC version 9.2.1 20190827 (Red Hat 9.2.1-1)
REM options -cpp -mtune=generic -march=x86-64 -g -O0 -fpre-include=/usr/include/finclude/math-vector-fortran.h
REM seed -851811279 -254839715 -1946380694 -1247474443 -507468 -39879073 1651818669 -1591638508 1747597414 318942208 1041910867 47602875 -1068037346 -500152313 -1383756941 955136491 -1057793488 2017462662 -656955971 -397356263 -697961671 1832205812 -270753424 315462594 2018568275 85986880 465745286 336474436 -298507874 -706231246 1724487231 788996731 -933086801
REM
CELL 1.54180   50.00000   50.00000   50.00000   90.00000   90.00000   90.00000
LATT -1
SFAC C  
C      1  0.4693690000000  0.5311970000000  0.5154500000000 1.0
C      1  0.5197570000000  0.5416910000000  0.5392910000000 1.0
C      1  0.5513130000000  0.5313470000000  0.4917740000000 1.0
C      1  0.5153280000000  0.5343200000000  0.4487630000000 1.0
C      1  0.4619060000000  0.5410080000000  0.4836860000000 1.0
C      1  0.4741280000000  0.4650780000000  0.4641260000000 1.0
C      1  0.5075070000000  0.4676570000000  0.4580510000000 1.0
C      1  0.5368740000000  0.4646350000000  0.5217290000000 1.0
C      1  0.5167350000000  0.4637340000000  0.5430320000000 1.0
C      1  0.4583870000000  0.4617700000000  0.5150450000000 1.0
C      1  0.4563130000000  0.4025830000000  0.4657040000000 1.0
C      1  0.4605250000000  0.4032930000000  0.5210040000000 1.0
C      1  0.5101290000000  0.4080920000000  0.5439440000000 1.0
C      1  0.5374120000000  0.4186350000000  0.4982390000000 1.0
C      1  0.5071780000000  0.4093250000000  0.4544470000000 1.0
C      1  0.4593430000000  0.5803680000000  0.5503740000000 1.0
C      1  0.4600970000000  0.5814430000000  0.4506250000000 1.0
C      1  0.5446270000000  0.5917830000000  0.4485330000000 1.0
C      1  0.5436180000000  0.5937080000000  0.4976740000000 1.0
C      1  0.5120760000000  0.5946940000000  0.5442610000000 1.0
C      1  0.5283460000000  0.5823390000000  0.5676120000000 1.0
C      1  0.5707040000000  0.5729720000000  0.4995800000000 1.0
C      1  0.5368270000000  0.5661260000000  0.4276260000000 1.0
C      1  0.4369080000000  0.5631430000000  0.4565350000000 1.0
C      1  0.4456010000000  0.5602510000000  0.5653570000000 1.0
C      1  0.5171720000000  0.4288200000000  0.4292360000000 1.0
C      1  0.5660580000000  0.4363020000000  0.4930250000000 1.0
C      1  0.5123000000000  0.4181020000000  0.5696880000000 1.0
C      1  0.4454730000000  0.4252430000000  0.5298250000000 1.0
C      1  0.4441840000000  0.4263950000000  0.4544320000000 1.0
C      1  0.4667710000000  0.4765870000000  0.4196340000000 1.0
C      1  0.4240750000000  0.4804170000000  0.4967010000000 1.0
C      1  0.4811500000000  0.4600790000000  0.5608530000000 1.0
C      1  0.5668550000000  0.4704970000000  0.5505730000000 1.0
C      1  0.5659930000000  0.4719110000000  0.4475920000000 1.0
C      1  0.4774830000000  0.5325030000000  0.5790720000000 1.0
C      1  0.4214030000000  0.5304660000000  0.5014140000000 1.0
C      1  0.4833860000000  0.5271930000000  0.4319610000000 1.0
C      1  0.5682010000000  0.5201780000000  0.4572760000000 1.0
C      1  0.5607050000000  0.5317870000000  0.5471600000000 1.0
C      1  0.5276590000000  0.5099250000000  0.5426530000000 1.0
C      1  0.5390550000000  0.5059710000000  0.4893880000000 1.0
C      1  0.4966630000000  0.5126220000000  0.4664320000000 1.0
C      1  0.4520720000000  0.5088480000000  0.4876430000000 1.0
C      1  0.4769480000000  0.5059500000000  0.5370230000000 1.0
C      1  0.5230040000000  0.4946100000000  0.4651430000000 1.0
C      1  0.5427380000000  0.4947840000000  0.5177080000000 1.0
C      1  0.5019290000000  0.4918980000000  0.5484150000000 1.0
C      1  0.4571660000000  0.4934460000000  0.5143080000000 1.0
C      1  0.4693650000000  0.4976610000000  0.4644280000000 1.0
C      1  0.5143240000000  0.4142880000000  0.4818260000000 1.0
C      1  0.4814490000000  0.3966910000000  0.4522780000000 1.0
C      1  0.4555940000000  0.3962520000000  0.4936330000000 1.0
C      1  0.4851770000000  0.3984540000000  0.5342580000000 1.0
C      1  0.5312760000000  0.4128500000000  0.5254480000000 1.0
C      1  0.5278530000000  0.5981590000000  0.5207890000000 1.0
C      1  0.4837840000000  0.5913560000000  0.5451120000000 1.0
C      1  0.4723810000000  0.5935480000000  0.4794760000000 1.0
C      1  0.4905620000000  0.5810640000000  0.4466900000000 1.0
C      1  0.5307670000000  0.5987330000000  0.4724770000000 1.0
C      1  0.4332780000000  0.5756460000000  0.5091240000000 1.0
C      1  0.4609280000000  0.5658990000000  0.6138530000000 1.0
C      1  0.5592280000000  0.5748290000000  0.5292040000000 1.0
C      1  0.5592120000000  0.5646980000000  0.4515680000000 1.0
C      1  0.4924190000000  0.5557980000000  0.4055670000000 1.0
C      1  0.4178650000000  0.4350110000000  0.4833740000000 1.0
C      1  0.4847740000000  0.4306360000000  0.4274250000000 1.0
C      1  0.5506240000000  0.4382920000000  0.4660790000000 1.0
C      1  0.5651220000000  0.4303280000000  0.5436090000000 1.0
C      1  0.5039590000000  0.4181690000000  0.6254570000000 1.0
C      1  0.5395430000000  0.5264680000000  0.5704240000000 1.0
C      1  0.5870880000000  0.5195310000000  0.4780220000000 1.0
C      1  0.5055790000000  0.5188910000000  0.4131870000000 1.0
C      1  0.4216890000000  0.5133350000000  0.4743660000000 1.0
C      1  0.4607460000000  0.5148040000000  0.5620350000000 1.0
C      1  0.5394460000000  0.4834120000000  0.4375320000000 1.0
C      1  0.5737550000000  0.4858120000000  0.5232340000000 1.0
C      1  0.5031650000000  0.4754050000000  0.5785720000000 1.0
C      1  0.4282780000000  0.4836020000000  0.5297150000000 1.0
C      1  0.4475300000000  0.4844300000000  0.4416080000000 1.0
C      1  0.5957900000000  0.4931850000000  0.4909880000000 1.0
C      1  0.5165970000000  0.4901880000000  0.4055390000000 1.0
C      1  0.4119350000000  0.4846500000000  0.4588840000000 1.0
C      1  0.4402630000000  0.4927830000000  0.5779740000000 1.0
C      1  0.5340340000000  0.5095490000000  0.5956280000000 1.0
C      1  0.5933070000000  0.5128650000000  0.5164980000000 1.0
C      1  0.5150490000000  0.4938540000000  0.5996520000000 1.0
C      1  0.4240820000000  0.5021850000000  0.5536550000000 1.0
C      1  0.4241070000000  0.5058720000000  0.4355790000000 1.0
C      1  0.5431080000000  0.5059230000000  0.4126210000000 1.0
C      1  0.4496610000000  0.5703720000000  0.4873530000000 1.0
C      1  0.4603440000000  0.5533860000000  0.5900480000000 1.0
C      1  0.5390510000000  0.5652110000000  0.5436670000000 1.0
C      1  0.5593560000000  0.5539790000000  0.4766220000000 1.0
C      1  0.5050200000000  0.5607020000000  0.4302630000000 1.0
C      1  0.4325370000000  0.4422540000000  0.5046300000000 1.0
C      1  0.4669310000000  0.4424980000000  0.4440690000000 1.0
C      1  0.5265270000000  0.4442380000000  0.4559000000000 1.0
C      1  0.5562900000000  0.4447920000000  0.5218090000000 1.0
C      1  0.5105070000000  0.4252090000000  0.6003820000000 1.0
C      1  0.5879240000000  0.5434160000000  0.5022060000000 1.0
C      1  0.5343320000000  0.5371920000000  0.4139690000000 1.0
C      1  0.4310160000000  0.5335040000000  0.4490850000000 1.0
C      1  0.4351270000000  0.5337630000000  0.5499560000000 1.0
C      1  0.5253600000000  0.5550700000000  0.5797140000000 1.0
C      1  0.5832530000000  0.4639590000000  0.4991410000000 1.0
C      1  0.5209750000000  0.4488140000000  0.5795720000000 1.0
C      1  0.4266920000000  0.4519380000000  0.5368850000000 1.0
C      1  0.4307010000000  0.4567800000000  0.4527350000000 1.0
C      1  0.5210650000000  0.4607320000000  0.4200780000000 1.0
C      1  0.5796680000000  0.4657830000000  0.4667960000000 1.0
C      1  0.4911650000000  0.4700960000000  0.4283160000000 1.0
C      1  0.4436250000000  0.4708690000000  0.4790120000000 1.0
C      1  0.4729210000000  0.4534170000000  0.5364260000000 1.0
C      1  0.5442410000000  0.4598560000000  0.5606850000000 1.0
C      1  0.5610610000000  0.5357410000000  0.5210460000000 1.0
C      1  0.5017040000000  0.5389150000000  0.5679980000000 1.0
C      1  0.4396300000000  0.5369760000000  0.5202500000000 1.0
C      1  0.4638920000000  0.5346310000000  0.4502420000000 1.0
C      1  0.5458350000000  0.5276100000000  0.4452000000000 1.0
C      1  0.5026400000000  0.5961890000000  0.4708100000000 1.0
C      1  0.4914450000000  0.4134470000000  0.4977540000000 1.0
C      1  0.5004030000000  0.5330570000000  0.4903280000000 1.0
C      1  0.5073490000000  0.5428560000000  0.5113800000000 1.0
END
