TITL C-2782236-320-740 -0.00265025650739036 125000 -618.486309689268 0 0 108 (C1) n - 1
REM
REM in /home/nfs/bkarasulu/CARBON/AIRSS/Generating-Clusters/REBO/Higher-Symm/SD-CG/HFTN-CG
REM
REM
REM
REM
REM
REM ./C.cell (12c818d87b63d06a65506943cc24bca4)
REM
REM compiler GCC version 9.2.1 20190827 (Red Hat 9.2.1-1)
REM options -cpp -mtune=generic -march=x86-64 -g -O0 -fpre-include=/usr/include/finclude/math-vector-fortran.h
REM seed -1880422497 -1631235073 -961303550 673911808 -320910091 557951711 1506466447 -81436507 1884773286 664653107 878503885 -242782664 1421366222 496451030 -1524926296 1582061972 -722644312 -1931625967 -2013766065 -1490959963 -1938751126 1166411139 -1482483291 -1627882753 -334212836 2083539869 -97678057 -1195013005 1490789453 280683609 81456456 534844713 1730542251
REM
CELL 1.54180   50.00000   50.00000   50.00000   90.00000   90.00000   90.00000
LATT -1
SFAC C  
C      1  0.4858460000000  0.4863050000000  0.5838700000000 1.0
C      1  0.5170590000000  0.4826610000000  0.5846970000000 1.0
C      1  0.5145490000000  0.5138640000000  0.5842330000000 1.0
C      1  0.4834300000000  0.5178920000000  0.5836190000000 1.0
C      1  0.4844300000000  0.4861200000000  0.4159130000000 1.0
C      1  0.5147290000000  0.4812210000000  0.4162550000000 1.0
C      1  0.5145420000000  0.5124270000000  0.4162440000000 1.0
C      1  0.4838690000000  0.5169980000000  0.4145080000000 1.0
C      1  0.5286140000000  0.5963980000000  0.5203800000000 1.0
C      1  0.4071970000000  0.5250600000000  0.5126030000000 1.0
C      1  0.4733260000000  0.4044040000000  0.5165410000000 1.0
C      1  0.5979710000000  0.4735110000000  0.5161680000000 1.0
C      1  0.5246530000000  0.5918830000000  0.4887120000000 1.0
C      1  0.4026220000000  0.5282480000000  0.4815170000000 1.0
C      1  0.4746040000000  0.4075130000000  0.4850110000000 1.0
C      1  0.5925560000000  0.4754190000000  0.4850710000000 1.0
C      1  0.5028960000000  0.5657590000000  0.4871820000000 1.0
C      1  0.4292610000000  0.5078540000000  0.4841230000000 1.0
C      1  0.4935200000000  0.4353250000000  0.4832070000000 1.0
C      1  0.5644600000000  0.4942160000000  0.4832960000000 1.0
C      1  0.5041450000000  0.5747140000000  0.5182500000000 1.0
C      1  0.4285040000000  0.4994590000000  0.5152750000000 1.0
C      1  0.4988960000000  0.4256850000000  0.5140660000000 1.0
C      1  0.5759890000000  0.4982340000000  0.5133610000000 1.0
C      1  0.4271650000000  0.5507060000000  0.5218750000000 1.0
C      1  0.4500310000000  0.4277850000000  0.5248410000000 1.0
C      1  0.5759940000000  0.4490800000000  0.5250490000000 1.0
C      1  0.5531770000000  0.5745260000000  0.5288010000000 1.0
C      1  0.4221120000000  0.5536380000000  0.4708930000000 1.0
C      1  0.4467560000000  0.4230300000000  0.4733460000000 1.0
C      1  0.5764880000000  0.4477850000000  0.4742800000000 1.0
C      1  0.5506910000000  0.5742070000000  0.4768530000000 1.0
C      1  0.4697730000000  0.4924440000000  0.4843680000000 1.0
C      1  0.5064280000000  0.4730940000000  0.4855500000000 1.0
C      1  0.5262800000000  0.5077130000000  0.4860540000000 1.0
C      1  0.4879860000000  0.5277470000000  0.4834610000000 1.0
C      1  0.4778230000000  0.4865810000000  0.5155310000000 1.0
C      1  0.5160540000000  0.4757830000000  0.5169950000000 1.0
C      1  0.5268190000000  0.5142000000000  0.5174920000000 1.0
C      1  0.4885260000000  0.5250350000000  0.5160710000000 1.0
C      1  0.4715620000000  0.5709400000000  0.5137550000000 1.0
C      1  0.4285180000000  0.4684710000000  0.5185350000000 1.0
C      1  0.5306730000000  0.4271200000000  0.5191570000000 1.0
C      1  0.5733520000000  0.5293530000000  0.5199810000000 1.0
C      1  0.4727690000000  0.5698780000000  0.4795000000000 1.0
C      1  0.4308420000000  0.4741620000000  0.4845220000000 1.0
C      1  0.5259950000000  0.4320220000000  0.4855450000000 1.0
C      1  0.5672850000000  0.5262430000000  0.4861700000000 1.0
C      1  0.5233850000000  0.4420530000000  0.5488680000000 1.0
C      1  0.5591280000000  0.5221500000000  0.5501440000000 1.0
C      1  0.4793910000000  0.5572650000000  0.5442350000000 1.0
C      1  0.4432800000000  0.4778900000000  0.5479250000000 1.0
C      1  0.5191550000000  0.4422590000000  0.4534470000000 1.0
C      1  0.5574270000000  0.5200290000000  0.4536880000000 1.0
C      1  0.4784500000000  0.5580070000000  0.4480880000000 1.0
C      1  0.4403160000000  0.4797040000000  0.4519710000000 1.0
C      1  0.5023570000000  0.4760680000000  0.5482190000000 1.0
C      1  0.5255730000000  0.5005960000000  0.5483540000000 1.0
C      1  0.5003730000000  0.5234270000000  0.5480190000000 1.0
C      1  0.4771420000000  0.4991210000000  0.5472430000000 1.0
C      1  0.4985790000000  0.4765070000000  0.4525310000000 1.0
C      1  0.5230220000000  0.4998560000000  0.4530540000000 1.0
C      1  0.4985550000000  0.5236110000000  0.4511190000000 1.0
C      1  0.4743350000000  0.5004680000000  0.4516320000000 1.0
C      1  0.4653000000000  0.5332210000000  0.5642020000000 1.0
C      1  0.4689090000000  0.4655470000000  0.5669820000000 1.0
C      1  0.5366860000000  0.4674110000000  0.5672310000000 1.0
C      1  0.5328210000000  0.5342680000000  0.5683570000000 1.0
C      1  0.4643070000000  0.5325720000000  0.4302060000000 1.0
C      1  0.4656250000000  0.4665540000000  0.4325680000000 1.0
C      1  0.5332590000000  0.4664500000000  0.4337560000000 1.0
C      1  0.5327980000000  0.5329150000000  0.4330930000000 1.0
C      1  0.4531710000000  0.4515750000000  0.4607440000000 1.0
C      1  0.5482550000000  0.4541140000000  0.4615200000000 1.0
C      1  0.5432740000000  0.5470480000000  0.4623800000000 1.0
C      1  0.4500960000000  0.5457870000000  0.4579450000000 1.0
C      1  0.4623050000000  0.4553810000000  0.5347500000000 1.0
C      1  0.5473640000000  0.4594590000000  0.5354320000000 1.0
C      1  0.5413940000000  0.5457770000000  0.5370780000000 1.0
C      1  0.4551050000000  0.5397180000000  0.5320730000000 1.0
C      1  0.4762200000000  0.4200430000000  0.5464440000000 1.0
C      1  0.5819880000000  0.4759850000000  0.5459840000000 1.0
C      1  0.5268680000000  0.5803360000000  0.5504400000000 1.0
C      1  0.4200510000000  0.5253430000000  0.5442370000000 1.0
C      1  0.4739830000000  0.4186420000000  0.4527600000000 1.0
C      1  0.5811640000000  0.4746040000000  0.4529400000000 1.0
C      1  0.5233870000000  0.5807630000000  0.4564230000000 1.0
C      1  0.4166770000000  0.5256840000000  0.4507420000000 1.0
C      1  0.5548860000000  0.4896530000000  0.4448870000000 1.0
C      1  0.5092940000000  0.5554160000000  0.4436370000000 1.0
C      1  0.4423640000000  0.5098460000000  0.4429560000000 1.0
C      1  0.4888380000000  0.4445800000000  0.4446030000000 1.0
C      1  0.5576980000000  0.4914910000000  0.5564930000000 1.0
C      1  0.5085980000000  0.5554740000000  0.5572710000000 1.0
C      1  0.4447280000000  0.5084450000000  0.5541930000000 1.0
C      1  0.4932460000000  0.4440400000000  0.5567250000000 1.0
C      1  0.4753220000000  0.4602210000000  0.4802760000000 1.0
C      1  0.5392010000000  0.4765410000000  0.4806780000000 1.0
C      1  0.5196070000000  0.5399690000000  0.4803050000000 1.0
C      1  0.4557830000000  0.5232010000000  0.4781690000000 1.0
C      1  0.4887590000000  0.4553430000000  0.5174060000000 1.0
C      1  0.5469890000000  0.4865460000000  0.5183030000000 1.0
C      1  0.5156440000000  0.5455890000000  0.5192450000000 1.0
C      1  0.4567430000000  0.5126190000000  0.5163080000000 1.0
C      1  0.5568010000000  0.4371110000000  0.4996020000000 1.0
C      1  0.5631980000000  0.5563920000000  0.5018260000000 1.0
C      1  0.4433580000000  0.5636120000000  0.4955810000000 1.0
C      1  0.4367020000000  0.4429880000000  0.4974670000000 1.0
END
