TITL C-2782225-7408-1489 -0.000125357639651531 125000 -444.222038688093 0 0 76 (C2) n - 1
REM
REM in /home/nfs/bkarasulu/CARBON/AIRSS/Generating-Clusters/REBO/Higher-Symm/SD-CG/HFTN-CG
REM
REM
REM
REM
REM
REM ./C.cell (12c818d87b63d06a65506943cc24bca4)
REM
REM compiler GCC version 9.2.1 20190827 (Red Hat 9.2.1-1)
REM options -cpp -mtune=generic -march=x86-64 -g -O0 -fpre-include=/usr/include/finclude/math-vector-fortran.h
REM seed -1952969818 -440395157 858714827 -1403313084 2013465920 -671667907 1813703534 1909782383 -187150483 741592322 2099257093 743535772 84355222 -7033101 2009016711 -705782759 -391869683 45600277 719385870 805410914 1689148890 1015943085 -443416841 -797608825 202190054 903268960 1012140194 2022679555 -1257310964 -869818292 -577274264 -853073538 -724880149
REM
CELL 1.54180   50.00000   50.00000   50.00000   90.00000   90.00000   90.00000
LATT -1
SFAC C  
C      1  0.4608220000000  0.4446110000000  0.5291320000000 1.0
C      1  0.5286240000000  0.4593050000000  0.4427820000000 1.0
C      1  0.4426410000000  0.5296270000000  0.4614740000000 1.0
C      1  0.4586810000000  0.5589700000000  0.4685860000000 1.0
C      1  0.5377810000000  0.5545910000000  0.5287030000000 1.0
C      1  0.5396310000000  0.4399650000000  0.4686550000000 1.0
C      1  0.5299900000000  0.5372680000000  0.5572530000000 1.0
C      1  0.4695640000000  0.5395150000000  0.4427460000000 1.0
C      1  0.4687500000000  0.4620600000000  0.5575670000000 1.0
C      1  0.4403720000000  0.4695240000000  0.5403930000000 1.0
C      1  0.5556360000000  0.4692750000000  0.4613360000000 1.0
C      1  0.5582850000000  0.5297280000000  0.5399750000000 1.0
C      1  0.4802570000000  0.5809180000000  0.4728550000000 1.0
C      1  0.4730330000000  0.4830450000000  0.5795710000000 1.0
C      1  0.5782820000000  0.4719220000000  0.4823770000000 1.0
C      1  0.4814670000000  0.4215610000000  0.5272690000000 1.0
C      1  0.5180760000000  0.4180360000000  0.4731260000000 1.0
C      1  0.5171270000000  0.5776330000000  0.5268370000000 1.0
C      1  0.4722680000000  0.5185690000000  0.4197860000000 1.0
C      1  0.5258140000000  0.5163820000000  0.5793700000000 1.0
C      1  0.5258090000000  0.4801480000000  0.4197420000000 1.0
C      1  0.5803670000000  0.5257050000000  0.5186590000000 1.0
C      1  0.4200970000000  0.5270740000000  0.4826360000000 1.0
C      1  0.4181870000000  0.4734520000000  0.5191650000000 1.0
C      1  0.4542500000000  0.5007950000000  0.4584020000000 1.0
C      1  0.4576830000000  0.4553510000000  0.4999990000000 1.0
C      1  0.4995240000000  0.4570460000000  0.4542440000000 1.0
C      1  0.4544680000000  0.4972410000000  0.5450600000000 1.0
C      1  0.5440120000000  0.4980940000000  0.4581920000000 1.0
C      1  0.5442120000000  0.5020320000000  0.5448330000000 1.0
C      1  0.4539430000000  0.5450730000000  0.4964960000000 1.0
C      1  0.5407800000000  0.5437220000000  0.4996020000000 1.0
C      1  0.5445040000000  0.4539850000000  0.4964800000000 1.0
C      1  0.5024860000000  0.5437100000000  0.5438390000000 1.0
C      1  0.4987190000000  0.5418240000000  0.4540580000000 1.0
C      1  0.4961890000000  0.4555580000000  0.5440500000000 1.0
C      1  0.4626120000000  0.5612510000000  0.5220840000000 1.0
C      1  0.5218560000000  0.4626470000000  0.5609000000000 1.0
C      1  0.5603020000000  0.5230330000000  0.4662330000000 1.0
C      1  0.4656500000000  0.4375070000000  0.4759780000000 1.0
C      1  0.5359580000000  0.4379210000000  0.5221810000000 1.0
C      1  0.5326960000000  0.5614590000000  0.4755410000000 1.0
C      1  0.5232890000000  0.5333450000000  0.4372490000000 1.0
C      1  0.4769010000000  0.5366970000000  0.5608440000000 1.0
C      1  0.4748730000000  0.4654500000000  0.4375170000000 1.0
C      1  0.5607500000000  0.4765980000000  0.5364440000000 1.0
C      1  0.4380000000000  0.4758920000000  0.4666320000000 1.0
C      1  0.4378900000000  0.5226380000000  0.5366380000000 1.0
C      1  0.5055480000000  0.5701160000000  0.4693760000000 1.0
C      1  0.4722670000000  0.5103450000000  0.5705850000000 1.0
C      1  0.5696640000000  0.4721210000000  0.5099610000000 1.0
C      1  0.5092130000000  0.4296400000000  0.5265450000000 1.0
C      1  0.4927690000000  0.4288220000000  0.4697200000000 1.0
C      1  0.4893780000000  0.5695510000000  0.5262820000000 1.0
C      1  0.4690390000000  0.4928170000000  0.4300720000000 1.0
C      1  0.5265360000000  0.4890420000000  0.5705010000000 1.0
C      1  0.5290880000000  0.5059460000000  0.4298980000000 1.0
C      1  0.5696820000000  0.5289280000000  0.4933670000000 1.0
C      1  0.4288480000000  0.5269970000000  0.5101780000000 1.0
C      1  0.4287500000000  0.4701170000000  0.4938370000000 1.0
C      1  0.4642130000000  0.4881220000000  0.4971640000000 1.0
C      1  0.4977240000000  0.4644930000000  0.4869300000000 1.0
C      1  0.4869470000000  0.4997000000000  0.4650860000000 1.0
C      1  0.4632160000000  0.5125250000000  0.4960370000000 1.0
C      1  0.5342360000000  0.5109390000000  0.4969450000000 1.0
C      1  0.5352280000000  0.4865300000000  0.4959210000000 1.0
C      1  0.5019250000000  0.5348420000000  0.5111830000000 1.0
C      1  0.5006760000000  0.5345220000000  0.4867680000000 1.0
C      1  0.4965930000000  0.4642820000000  0.5113530000000 1.0
C      1  0.4871290000000  0.4982770000000  0.5356090000000 1.0
C      1  0.5113490000000  0.4992190000000  0.4650280000000 1.0
C      1  0.5115060000000  0.5009540000000  0.5355440000000 1.0
C      1  0.5445460000000  0.5447300000000  0.4543270000000 1.0
C      1  0.4538710000000  0.5455870000000  0.5451870000000 1.0
C      1  0.5448100000000  0.4536870000000  0.5451720000000 1.0
C      1  0.4536980000000  0.4541420000000  0.4547470000000 1.0
END
