TITL C-2782233-7966-67 0.0019192666666244 125000 -1091.12456331494 0 0 189 (C1) n - 1
REM
REM in /home/nfs/bkarasulu/CARBON/AIRSS/Generating-Clusters/REBO/Higher-Symm/SD-CG/HFTN-CG
REM
REM
REM
REM
REM
REM ./C.cell (12c818d87b63d06a65506943cc24bca4)
REM
REM compiler GCC version 9.2.1 20190827 (Red Hat 9.2.1-1)
REM options -cpp -mtune=generic -march=x86-64 -g -O0 -fpre-include=/usr/include/finclude/math-vector-fortran.h
REM seed 1591138067 697298935 -267334874 1394496925 -390034905 -1108658716 2003381702 74228808 1888568738 1014681625 -1558710897 1439486692 -192486043 1662657472 -158030845 -784984362 -125312383 -1916538749 -1191923442 -143220732 956637464 1439514486 1514636164 -1145765173 -207454349 944374224 -666705171 -102691284 -16762307 109602121 -2007430797 400863167 1229841092
REM
CELL 1.54180   50.00000   50.00000   50.00000   90.00000   90.00000   90.00000
LATT -1
SFAC C  
C      1  0.4343030000000  0.4315320000000  0.5459800000000 1.0
C      1  0.5677240000000  0.4230030000000  0.4544870000000 1.0
C      1  0.4306780000000  0.5692490000000  0.5411390000000 1.0
C      1  0.5656590000000  0.5705890000000  0.4586080000000 1.0
C      1  0.5111660000000  0.4860390000000  0.5584810000000 1.0
C      1  0.4919380000000  0.4904590000000  0.4345360000000 1.0
C      1  0.5029430000000  0.5179860000000  0.5668400000000 1.0
C      1  0.4912510000000  0.5246350000000  0.4352070000000 1.0
C      1  0.3867240000000  0.5429700000000  0.5210580000000 1.0
C      1  0.6107770000000  0.5440490000000  0.4781400000000 1.0
C      1  0.3878380000000  0.4490380000000  0.5248480000000 1.0
C      1  0.6071970000000  0.4556490000000  0.4766230000000 1.0
C      1  0.4077110000000  0.5349630000000  0.5729870000000 1.0
C      1  0.5851900000000  0.5332450000000  0.4278790000000 1.0
C      1  0.4122540000000  0.4661630000000  0.5746930000000 1.0
C      1  0.5872370000000  0.4632900000000  0.4256890000000 1.0
C      1  0.5334370000000  0.4784390000000  0.4072370000000 1.0
C      1  0.4704530000000  0.4892660000000  0.5879660000000 1.0
C      1  0.5299260000000  0.5119270000000  0.4017110000000 1.0
C      1  0.4683030000000  0.5232330000000  0.5899670000000 1.0
C      1  0.5234850000000  0.5134520000000  0.4722330000000 1.0
C      1  0.4780910000000  0.5127310000000  0.5354280000000 1.0
C      1  0.5249350000000  0.4812690000000  0.4813710000000 1.0
C      1  0.4831040000000  0.4795970000000  0.5313800000000 1.0
C      1  0.5178130000000  0.6079410000000  0.4683910000000 1.0
C      1  0.4775250000000  0.6081730000000  0.5294720000000 1.0
C      1  0.5113110000000  0.3932740000000  0.4677260000000 1.0
C      1  0.4812660000000  0.3889960000000  0.5338940000000 1.0
C      1  0.4934810000000  0.4751730000000  0.4856830000000 1.0
C      1  0.5138460000000  0.4765060000000  0.5198140000000 1.0
C      1  0.4941800000000  0.5246770000000  0.4812410000000 1.0
C      1  0.5069460000000  0.5255190000000  0.5253500000000 1.0
C      1  0.4840510000000  0.4461760000000  0.4940440000000 1.0
C      1  0.5215230000000  0.4509190000000  0.5071330000000 1.0
C      1  0.4821890000000  0.5503720000000  0.4900020000000 1.0
C      1  0.5171400000000  0.5505960000000  0.5091060000000 1.0
C      1  0.5083740000000  0.5622250000000  0.5849900000000 1.0
C      1  0.4824500000000  0.5666960000000  0.4121680000000 1.0
C      1  0.5136080000000  0.4449890000000  0.5837040000000 1.0
C      1  0.4894750000000  0.4414430000000  0.4108870000000 1.0
C      1  0.5427690000000  0.4640380000000  0.4367200000000 1.0
C      1  0.4731680000000  0.4620850000000  0.5657750000000 1.0
C      1  0.5324480000000  0.5381460000000  0.4424910000000 1.0
C      1  0.4658110000000  0.5410470000000  0.5605450000000 1.0
C      1  0.5820460000000  0.4508570000000  0.5348070000000 1.0
C      1  0.4273540000000  0.4641740000000  0.4610010000000 1.0
C      1  0.5859450000000  0.5303600000000  0.5464600000000 1.0
C      1  0.4169150000000  0.5375120000000  0.4507500000000 1.0
C      1  0.5366950000000  0.4864350000000  0.5386520000000 1.0
C      1  0.4762050000000  0.4831000000000  0.4637990000000 1.0
C      1  0.5324870000000  0.5172930000000  0.5400890000000 1.0
C      1  0.4740480000000  0.5142580000000  0.4608810000000 1.0
C      1  0.3851620000000  0.5096980000000  0.5127630000000 1.0
C      1  0.6152940000000  0.5104430000000  0.4839110000000 1.0
C      1  0.3838020000000  0.4787960000000  0.5083590000000 1.0
C      1  0.6197570000000  0.4814980000000  0.4872740000000 1.0
C      1  0.5545350000000  0.4864890000000  0.5911530000000 1.0
C      1  0.4465410000000  0.4845580000000  0.4016220000000 1.0
C      1  0.5507670000000  0.5197040000000  0.5979980000000 1.0
C      1  0.4450560000000  0.5174000000000  0.3974820000000 1.0
C      1  0.4331380000000  0.4177530000000  0.5176080000000 1.0
C      1  0.5626530000000  0.4069150000000  0.4818260000000 1.0
C      1  0.4326700000000  0.5802630000000  0.5096050000000 1.0
C      1  0.5657160000000  0.5825880000000  0.4901300000000 1.0
C      1  0.3931040000000  0.4694440000000  0.4770100000000 1.0
C      1  0.6126600000000  0.4665840000000  0.5144430000000 1.0
C      1  0.3864640000000  0.5261370000000  0.4852780000000 1.0
C      1  0.6162670000000  0.5245300000000  0.5122270000000 1.0
C      1  0.5076460000000  0.5641090000000  0.5356600000000 1.0
C      1  0.4891390000000  0.5704150000000  0.4677160000000 1.0
C      1  0.5120140000000  0.4301990000000  0.5283620000000 1.0
C      1  0.4934410000000  0.4436530000000  0.4615030000000 1.0
C      1  0.5161290000000  0.5701510000000  0.4827750000000 1.0
C      1  0.4817950000000  0.5665490000000  0.5188090000000 1.0
C      1  0.5191930000000  0.4370010000000  0.4773790000000 1.0
C      1  0.4818840000000  0.4274990000000  0.5217330000000 1.0
C      1  0.5817820000000  0.4923190000000  0.5020640000000 1.0
C      1  0.4257090000000  0.4853700000000  0.5045480000000 1.0
C      1  0.5770370000000  0.5260330000000  0.5027080000000 1.0
C      1  0.4236130000000  0.5189450000000  0.4981570000000 1.0
C      1  0.4521040000000  0.5183880000000  0.5159760000000 1.0
C      1  0.5473230000000  0.5109460000000  0.4958510000000 1.0
C      1  0.4578450000000  0.4880930000000  0.5115440000000 1.0
C      1  0.5512800000000  0.4796740000000  0.5020260000000 1.0
C      1  0.4821920000000  0.5962080000000  0.5566510000000 1.0
C      1  0.5118310000000  0.5944780000000  0.4410450000000 1.0
C      1  0.4890360000000  0.4046980000000  0.5596760000000 1.0
C      1  0.5120620000000  0.4054360000000  0.4389060000000 1.0
C      1  0.5599030000000  0.4718190000000  0.5471630000000 1.0
C      1  0.4526180000000  0.4870800000000  0.4410110000000 1.0
C      1  0.5478590000000  0.5324940000000  0.5571130000000 1.0
C      1  0.4515880000000  0.5214480000000  0.4391640000000 1.0
C      1  0.5461610000000  0.4450830000000  0.4620770000000 1.0
C      1  0.4625080000000  0.4464250000000  0.5399310000000 1.0
C      1  0.5391930000000  0.5550570000000  0.4653610000000 1.0
C      1  0.4575410000000  0.5535380000000  0.5341890000000 1.0
C      1  0.4254140000000  0.5150250000000  0.5765600000000 1.0
C      1  0.5688710000000  0.5114750000000  0.4255190000000 1.0
C      1  0.4306570000000  0.4858710000000  0.5745600000000 1.0
C      1  0.5781450000000  0.4868520000000  0.4161390000000 1.0
C      1  0.5866050000000  0.5471260000000  0.4560880000000 1.0
C      1  0.4089170000000  0.5470500000000  0.5441990000000 1.0
C      1  0.5847340000000  0.4525930000000  0.4550550000000 1.0
C      1  0.4105780000000  0.4514210000000  0.5475930000000 1.0
C      1  0.4583480000000  0.4550350000000  0.4137100000000 1.0
C      1  0.5464400000000  0.4546170000000  0.5806200000000 1.0
C      1  0.4582650000000  0.5493560000000  0.3956890000000 1.0
C      1  0.5363470000000  0.5511510000000  0.5994790000000 1.0
C      1  0.5476500000000  0.4846810000000  0.4589850000000 1.0
C      1  0.4554610000000  0.4839650000000  0.5512910000000 1.0
C      1  0.5454280000000  0.5114130000000  0.4451750000000 1.0
C      1  0.4501780000000  0.5146800000000  0.5556080000000 1.0
C      1  0.5425270000000  0.4192560000000  0.4318790000000 1.0
C      1  0.4580380000000  0.4176970000000  0.5663160000000 1.0
C      1  0.5425830000000  0.5807100000000  0.4354210000000 1.0
C      1  0.4536890000000  0.5789050000000  0.5645840000000 1.0
C      1  0.5150870000000  0.4527820000000  0.5518960000000 1.0
C      1  0.4906530000000  0.4574480000000  0.4370570000000 1.0
C      1  0.5068930000000  0.5459700000000  0.5599720000000 1.0
C      1  0.4917710000000  0.5551650000000  0.4415560000000 1.0
C      1  0.5224090000000  0.5898470000000  0.5188350000000 1.0
C      1  0.4711490000000  0.5953510000000  0.4783170000000 1.0
C      1  0.5241990000000  0.4036410000000  0.5164670000000 1.0
C      1  0.4647790000000  0.3957650000000  0.4849800000000 1.0
C      1  0.4544610000000  0.5527890000000  0.4281510000000 1.0
C      1  0.5444520000000  0.5578510000000  0.5689180000000 1.0
C      1  0.4501800000000  0.4524900000000  0.4433720000000 1.0
C      1  0.5595990000000  0.4393040000000  0.5570700000000 1.0
C      1  0.4758510000000  0.5240990000000  0.3860510000000 1.0
C      1  0.5221350000000  0.5255040000000  0.6144060000000 1.0
C      1  0.4765740000000  0.4720240000000  0.3914520000000 1.0
C      1  0.5267560000000  0.4703200000000  0.6024880000000 1.0
C      1  0.4559500000000  0.5788700000000  0.4455840000000 1.0
C      1  0.5397580000000  0.5802860000000  0.5530960000000 1.0
C      1  0.4583160000000  0.4253940000000  0.4562910000000 1.0
C      1  0.5470810000000  0.4134180000000  0.5475220000000 1.0
C      1  0.4781610000000  0.5957920000000  0.4390180000000 1.0
C      1  0.5162370000000  0.5950410000000  0.5591520000000 1.0
C      1  0.4793330000000  0.4092840000000  0.4472780000000 1.0
C      1  0.5222370000000  0.4050300000000  0.5576090000000 1.0
C      1  0.5844460000000  0.5159650000000  0.4705940000000 1.0
C      1  0.4135010000000  0.5158240000000  0.5307490000000 1.0
C      1  0.5767800000000  0.4824890000000  0.4697490000000 1.0
C      1  0.4083420000000  0.4820170000000  0.5322920000000 1.0
C      1  0.6022380000000  0.4400650000000  0.5021960000000 1.0
C      1  0.3983970000000  0.4437400000000  0.4967010000000 1.0
C      1  0.6057930000000  0.5531970000000  0.5078080000000 1.0
C      1  0.3939110000000  0.5559530000000  0.4936130000000 1.0
C      1  0.4250660000000  0.5492890000000  0.4815950000000 1.0
C      1  0.5763200000000  0.5532030000000  0.5231720000000 1.0
C      1  0.4295710000000  0.4533340000000  0.4914920000000 1.0
C      1  0.5727810000000  0.4339110000000  0.5092890000000 1.0
C      1  0.5789120000000  0.4871420000000  0.5673820000000 1.0
C      1  0.4245170000000  0.4956980000000  0.4251180000000 1.0
C      1  0.5713990000000  0.5171480000000  0.5718680000000 1.0
C      1  0.4236170000000  0.5286210000000  0.4211130000000 1.0
C      1  0.5543020000000  0.5777260000000  0.5221390000000 1.0
C      1  0.4410110000000  0.5792140000000  0.4762400000000 1.0
C      1  0.5576270000000  0.4066380000000  0.5158250000000 1.0
C      1  0.4426850000000  0.4220080000000  0.4849880000000 1.0
C      1  0.4607690000000  0.4037220000000  0.5153630000000 1.0
C      1  0.5312440000000  0.4083610000000  0.4859060000000 1.0
C      1  0.4621150000000  0.5904330000000  0.5082530000000 1.0
C      1  0.5369750000000  0.5943200000000  0.4896100000000 1.0
C      1  0.5016000000000  0.3832080000000  0.5136600000000 1.0
C      1  0.4911760000000  0.3835930000000  0.4855340000000 1.0
C      1  0.5011640000000  0.6122350000000  0.5129590000000 1.0
C      1  0.4950130000000  0.6141800000000  0.4848650000000 1.0
C      1  0.5264000000000  0.5418660000000  0.4147920000000 1.0
C      1  0.4584010000000  0.5558430000000  0.5894040000000 1.0
C      1  0.5403580000000  0.4452440000000  0.4098570000000 1.0
C      1  0.4764600000000  0.4572540000000  0.5984850000000 1.0
C      1  0.5527020000000  0.4499370000000  0.4940860000000 1.0
C      1  0.4582400000000  0.4570020000000  0.5095930000000 1.0
C      1  0.5417850000000  0.5417860000000  0.4934100000000 1.0
C      1  0.4528380000000  0.5459440000000  0.5012030000000 1.0
C      1  0.4064250000000  0.4882580000000  0.4529860000000 1.0
C      1  0.5981610000000  0.4807010000000  0.5399140000000 1.0
C      1  0.3991680000000  0.5169060000000  0.4625440000000 1.0
C      1  0.6042190000000  0.5118590000000  0.5341580000000 1.0
C      1  0.4974050000000  0.5164000000000  0.4047790000000 1.0
C      1  0.4983460000000  0.5150570000000  0.6000010000000 1.0
C      1  0.5018620000000  0.4840040000000  0.4041440000000 1.0
C      1  0.5034050000000  0.4850780000000  0.5892210000000 1.0
C      1  0.4853210000000  0.4285770000000  0.5836420000000 1.0
C      1  0.5144950000000  0.4248770000000  0.4119590000000 1.0
C      1  0.4825480000000  0.5779670000000  0.5846840000000 1.0
C      1  0.5159640000000  0.5723040000000  0.4152860000000 1.0
C      1  0.5000850000000  0.5026420000000  0.5037630000000 1.0
END
