TITL C-2782225-7408-394 0.00480359474684198 125000 -851.639692096337 0 0 147 (C1) n - 1
REM
REM in /home/nfs/bkarasulu/CARBON/AIRSS/Generating-Clusters/REBO/Higher-Symm/SD-CG/HFTN-CG
REM
REM
REM
REM
REM
REM ./C.cell (12c818d87b63d06a65506943cc24bca4)
REM
REM compiler GCC version 9.2.1 20190827 (Red Hat 9.2.1-1)
REM options -cpp -mtune=generic -march=x86-64 -g -O0 -fpre-include=/usr/include/finclude/math-vector-fortran.h
REM seed 1863926104 -1552829635 -1396214450 1820490724 -1516772327 798761639 2116006236 -1553432414 1504445055 -332597388 2126013935 1509626281 187836885 -188675287 -1082658723 -906793404 1820170807 89173398 839817833 47227299 1797084061 159156915 315305828 1047377457 -735342463 -692622796 -287264815 34435541 244212337 -906468776 -196764667 78692956 2133801164
REM
CELL 1.54180   50.00000   50.00000   50.00000   90.00000   90.00000   90.00000
LATT -1
SFAC C  
C      1  0.5063950000000  0.4662380000000  0.6073350000000 1.0
C      1  0.4848730000000  0.5100680000000  0.4371790000000 1.0
C      1  0.4819870000000  0.4650580000000  0.5477220000000 1.0
C      1  0.5689520000000  0.4254690000000  0.5165260000000 1.0
C      1  0.4511610000000  0.4916830000000  0.5005000000000 1.0
C      1  0.4798570000000  0.5572770000000  0.4144940000000 1.0
C      1  0.5356600000000  0.4763090000000  0.4754000000000 1.0
C      1  0.4874240000000  0.5165120000000  0.5530130000000 1.0
C      1  0.5937550000000  0.4971330000000  0.5090130000000 1.0
C      1  0.5835860000000  0.4890710000000  0.4606840000000 1.0
C      1  0.4453450000000  0.4688930000000  0.4064560000000 1.0
C      1  0.5381110000000  0.5470450000000  0.5791920000000 1.0
C      1  0.5006780000000  0.4140280000000  0.5440720000000 1.0
C      1  0.5276140000000  0.5776660000000  0.5168400000000 1.0
C      1  0.4099710000000  0.4617520000000  0.4677080000000 1.0
C      1  0.5311300000000  0.5079910000000  0.4626580000000 1.0
C      1  0.4477300000000  0.5155240000000  0.5556190000000 1.0
C      1  0.4601680000000  0.5818080000000  0.5211920000000 1.0
C      1  0.5310180000000  0.4904500000000  0.5716380000000 1.0
C      1  0.4984700000000  0.5635650000000  0.5426440000000 1.0
C      1  0.4495860000000  0.5437990000000  0.4887600000000 1.0
C      1  0.4519890000000  0.4957090000000  0.4674730000000 1.0
C      1  0.4504260000000  0.4694280000000  0.4460680000000 1.0
C      1  0.5064870000000  0.5488320000000  0.4141950000000 1.0
C      1  0.4896780000000  0.5108000000000  0.4708910000000 1.0
C      1  0.4248890000000  0.5303320000000  0.4315740000000 1.0
C      1  0.4139750000000  0.4518980000000  0.5401810000000 1.0
C      1  0.5233240000000  0.4398070000000  0.4361300000000 1.0
C      1  0.4999760000000  0.4926020000000  0.6102400000000 1.0
C      1  0.4315530000000  0.5201180000000  0.4622600000000 1.0
C      1  0.4166770000000  0.4633210000000  0.4158600000000 1.0
C      1  0.5756780000000  0.5017850000000  0.4318510000000 1.0
C      1  0.5305190000000  0.5227380000000  0.5452890000000 1.0
C      1  0.5466680000000  0.4112220000000  0.4631670000000 1.0
C      1  0.4467880000000  0.5575080000000  0.5624850000000 1.0
C      1  0.5547290000000  0.5217510000000  0.4160200000000 1.0
C      1  0.5731410000000  0.4703090000000  0.5126240000000 1.0
C      1  0.5889520000000  0.4767020000000  0.5711170000000 1.0
C      1  0.5063940000000  0.5120200000000  0.5005270000000 1.0
C      1  0.5109880000000  0.5983680000000  0.5280470000000 1.0
C      1  0.5864850000000  0.4620830000000  0.5418550000000 1.0
C      1  0.5497990000000  0.5745930000000  0.4730160000000 1.0
C      1  0.4909480000000  0.4504720000000  0.4164060000000 1.0
C      1  0.5208510000000  0.4277830000000  0.5675260000000 1.0
C      1  0.4743360000000  0.4749150000000  0.5852710000000 1.0
C      1  0.4738000000000  0.5143880000000  0.5011550000000 1.0
C      1  0.4094000000000  0.5435390000000  0.5471070000000 1.0
C      1  0.4396030000000  0.4438440000000  0.5499590000000 1.0
C      1  0.4870430000000  0.4393980000000  0.5623640000000 1.0
C      1  0.5092270000000  0.5913140000000  0.5597110000000 1.0
C      1  0.5200990000000  0.5402500000000  0.4629390000000 1.0
C      1  0.4756560000000  0.5494930000000  0.5944480000000 1.0
C      1  0.5013620000000  0.4588590000000  0.4456490000000 1.0
C      1  0.5228700000000  0.4143170000000  0.4481070000000 1.0
C      1  0.4394010000000  0.5322050000000  0.5109780000000 1.0
C      1  0.4684930000000  0.5352490000000  0.4635440000000 1.0
C      1  0.4490630000000  0.5747990000000  0.4603050000000 1.0
C      1  0.4590930000000  0.5585980000000  0.5377830000000 1.0
C      1  0.4660230000000  0.4939980000000  0.5423230000000 1.0
C      1  0.4889650000000  0.4052730000000  0.4951020000000 1.0
C      1  0.4633340000000  0.4448870000000  0.4175200000000 1.0
C      1  0.4056500000000  0.4798000000000  0.5293510000000 1.0
C      1  0.4462410000000  0.4993000000000  0.3958020000000 1.0
C      1  0.5422200000000  0.4947830000000  0.5014260000000 1.0
C      1  0.5079390000000  0.4646550000000  0.5059740000000 1.0
C      1  0.4978630000000  0.5887580000000  0.4621530000000 1.0
C      1  0.5616390000000  0.4676760000000  0.4605080000000 1.0
C      1  0.4779860000000  0.4776160000000  0.5162340000000 1.0
C      1  0.4710130000000  0.4842630000000  0.4232880000000 1.0
C      1  0.4731160000000  0.5837600000000  0.4197300000000 1.0
C      1  0.5518850000000  0.4520110000000  0.4333500000000 1.0
C      1  0.4523180000000  0.5748620000000  0.4911180000000 1.0
C      1  0.4876020000000  0.5447230000000  0.5639210000000 1.0
C      1  0.5809420000000  0.5436060000000  0.4880420000000 1.0
C      1  0.5661320000000  0.4350880000000  0.4596840000000 1.0
C      1  0.4952490000000  0.4058390000000  0.4615350000000 1.0
C      1  0.4207780000000  0.4973300000000  0.5049250000000 1.0
C      1  0.6049870000000  0.4924510000000  0.4835870000000 1.0
C      1  0.5242840000000  0.4885220000000  0.4391350000000 1.0
C      1  0.5908130000000  0.5259610000000  0.5146050000000 1.0
C      1  0.4712590000000  0.5887920000000  0.4473510000000 1.0
C      1  0.5533520000000  0.5328320000000  0.5034070000000 1.0
C      1  0.4428930000000  0.5214870000000  0.4104920000000 1.0
C      1  0.4471760000000  0.4908420000000  0.5864810000000 1.0
C      1  0.5671970000000  0.4382320000000  0.5408770000000 1.0
C      1  0.5125290000000  0.5590830000000  0.5827710000000 1.0
C      1  0.5316390000000  0.4428010000000  0.4824870000000 1.0
C      1  0.4567580000000  0.4447800000000  0.4953130000000 1.0
C      1  0.4637800000000  0.4176860000000  0.4668050000000 1.0
C      1  0.5253140000000  0.5380510000000  0.4961460000000 1.0
C      1  0.5616590000000  0.4956970000000  0.5764200000000 1.0
C      1  0.5402950000000  0.5782240000000  0.5542690000000 1.0
C      1  0.5415540000000  0.4575120000000  0.5099200000000 1.0
C      1  0.5045300000000  0.4451370000000  0.5908770000000 1.0
C      1  0.5281570000000  0.5509610000000  0.5372090000000 1.0
C      1  0.4541420000000  0.4356290000000  0.4462090000000 1.0
C      1  0.5632730000000  0.5688940000000  0.5320890000000 1.0
C      1  0.5569310000000  0.5100050000000  0.5283580000000 1.0
C      1  0.4880180000000  0.5794520000000  0.5836540000000 1.0
C      1  0.5653690000000  0.5075510000000  0.4832550000000 1.0
C      1  0.5257870000000  0.5582040000000  0.4347370000000 1.0
C      1  0.4281790000000  0.4495310000000  0.4888570000000 1.0
C      1  0.4973430000000  0.4886310000000  0.5664610000000 1.0
C      1  0.5413390000000  0.4108580000000  0.4920850000000 1.0
C      1  0.4070830000000  0.4623370000000  0.4408090000000 1.0
C      1  0.5803540000000  0.5407980000000  0.5400330000000 1.0
C      1  0.4758780000000  0.5342020000000  0.5272340000000 1.0
C      1  0.5521220000000  0.4822450000000  0.4207030000000 1.0
C      1  0.3905240000000  0.5344760000000  0.4880810000000 1.0
C      1  0.4982420000000  0.5513350000000  0.5108270000000 1.0
C      1  0.4312060000000  0.5299290000000  0.5380680000000 1.0
C      1  0.5629140000000  0.5490580000000  0.5686370000000 1.0
C      1  0.4536870000000  0.4270860000000  0.5308670000000 1.0
C      1  0.4931980000000  0.5517450000000  0.4771760000000 1.0
C      1  0.4925250000000  0.5194970000000  0.5944150000000 1.0
C      1  0.4811680000000  0.4379980000000  0.5188430000000 1.0
C      1  0.5734470000000  0.4932350000000  0.5451480000000 1.0
C      1  0.4079280000000  0.4445920000000  0.5113600000000 1.0
C      1  0.4843210000000  0.5821970000000  0.4895920000000 1.0
C      1  0.5427720000000  0.4434870000000  0.5543180000000 1.0
C      1  0.5034940000000  0.4815750000000  0.4130390000000 1.0
C      1  0.4582070000000  0.4120520000000  0.5002010000000 1.0
C      1  0.5256730000000  0.4707340000000  0.5448210000000 1.0
C      1  0.4790820000000  0.4753570000000  0.4613030000000 1.0
C      1  0.5297800000000  0.5018940000000  0.4037810000000 1.0
C      1  0.5032300000000  0.4325470000000  0.4805160000000 1.0
C      1  0.5538870000000  0.5487960000000  0.4277160000000 1.0
C      1  0.4493660000000  0.4609300000000  0.5704170000000 1.0
C      1  0.5614500000000  0.5215820000000  0.4554170000000 1.0
C      1  0.5530250000000  0.5759160000000  0.5010920000000 1.0
C      1  0.5695580000000  0.5534840000000  0.4575210000000 1.0
C      1  0.4117390000000  0.5192500000000  0.4852920000000 1.0
C      1  0.5800910000000  0.5234440000000  0.5695470000000 1.0
C      1  0.4838770000000  0.4559390000000  0.4835600000000 1.0
C      1  0.5704470000000  0.4439150000000  0.4912990000000 1.0
C      1  0.4349000000000  0.5527540000000  0.4512400000000 1.0
C      1  0.5246500000000  0.5796060000000  0.4582000000000 1.0
C      1  0.5190480000000  0.5201780000000  0.5771560000000 1.0
C      1  0.4858250000000  0.5985660000000  0.5164560000000 1.0
C      1  0.5109530000000  0.4435650000000  0.5308740000000 1.0
C      1  0.3978610000000  0.4739500000000  0.4964680000000 1.0
C      1  0.5051620000000  0.3970800000000  0.5192350000000 1.0
C      1  0.4595000000000  0.5209170000000  0.5854330000000 1.0
C      1  0.5196620000000  0.4967830000000  0.5264120000000 1.0
C      1  0.4645020000000  0.5353940000000  0.4297560000000 1.0
C      1  0.5315270000000  0.3942340000000  0.5120230000000 1.0
C      1  0.5068570000000  0.5206180000000  0.4165000000000 1.0
END
