TITL C-2782239-8622-662 -0.00203924854018528 125000 -407.643177425374 0 0 70 (C1) n - 1
REM
REM in /home/nfs/bkarasulu/CARBON/AIRSS/Generating-Clusters/REBO/Higher-Symm/SD-CG/HFTN-CG
REM
REM
REM
REM
REM
REM ./C.cell (12c818d87b63d06a65506943cc24bca4)
REM
REM compiler GCC version 9.2.1 20190827 (Red Hat 9.2.1-1)
REM options -cpp -mtune=generic -march=x86-64 -g -O0 -fpre-include=/usr/include/finclude/math-vector-fortran.h
REM seed -773141724 1444938531 1720435102 351743487 1161218718 232637583 1346643310 -79559503 816060268 -1969757918 437657745 1372383007 -1648452228 1030638421 1433393716 1495562215 479228683 592309698 -1715529295 -1658240220 -961326012 891708873 778636249 1290418536 -1514316403 -495800695 1081933508 -2032653186 743659855 -302009287 -1628317297 -1354877630 -30584468
REM
CELL 1.54180   50.00000   50.00000   50.00000   90.00000   90.00000   90.00000
LATT -1
SFAC C  
C      1  0.5041280000000  0.4655390000000  0.4669370000000 1.0
C      1  0.4730330000000  0.4722520000000  0.4715850000000 1.0
C      1  0.4625580000000  0.5036320000000  0.4672510000000 1.0
C      1  0.4802180000000  0.5308680000000  0.4615950000000 1.0
C      1  0.5124910000000  0.5377000000000  0.4624920000000 1.0
C      1  0.5365060000000  0.5173570000000  0.4683580000000 1.0
C      1  0.5308960000000  0.4847220000000  0.4653420000000 1.0
C      1  0.5251450000000  0.4410240000000  0.5404970000000 1.0
C      1  0.4698080000000  0.4372920000000  0.5473810000000 1.0
C      1  0.4413010000000  0.4838810000000  0.5334210000000 1.0
C      1  0.4569450000000  0.5389750000000  0.5383050000000 1.0
C      1  0.4974030000000  0.5540050000000  0.5330110000000 1.0
C      1  0.5484720000000  0.5420040000000  0.5479710000000 1.0
C      1  0.5579350000000  0.4844980000000  0.5351890000000 1.0
C      1  0.4331440000000  0.4580280000000  0.5190460000000 1.0
C      1  0.4339970000000  0.5310230000000  0.5188220000000 1.0
C      1  0.4825370000000  0.5701010000000  0.4980160000000 1.0
C      1  0.5433330000000  0.5650190000000  0.5272750000000 1.0
C      1  0.5739350000000  0.5074150000000  0.5219180000000 1.0
C      1  0.5478150000000  0.4445010000000  0.4969830000000 1.0
C      1  0.4855380000000  0.4199160000000  0.5262130000000 1.0
C      1  0.5155690000000  0.4359620000000  0.4911750000000 1.0
C      1  0.4676400000000  0.4250660000000  0.5007050000000 1.0
C      1  0.4248570000000  0.4790290000000  0.4974910000000 1.0
C      1  0.4391350000000  0.5467570000000  0.4935390000000 1.0
C      1  0.5149670000000  0.5683960000000  0.4877760000000 1.0
C      1  0.5598660000000  0.5536750000000  0.5025220000000 1.0
C      1  0.5728820000000  0.4882290000000  0.4984810000000 1.0
C      1  0.5359010000000  0.4990020000000  0.5885280000000 1.0
C      1  0.5198110000000  0.4739620000000  0.5878750000000 1.0
C      1  0.4898550000000  0.4707340000000  0.5872190000000 1.0
C      1  0.4736840000000  0.4909580000000  0.5991420000000 1.0
C      1  0.4750400000000  0.5172890000000  0.5880610000000 1.0
C      1  0.4965680000000  0.5330060000000  0.5984140000000 1.0
C      1  0.5229690000000  0.5262210000000  0.5907600000000 1.0
C      1  0.4644420000000  0.4884600000000  0.5481990000000 1.0
C      1  0.4720100000000  0.5174610000000  0.5570330000000 1.0
C      1  0.4989290000000  0.5303550000000  0.5463790000000 1.0
C      1  0.5267770000000  0.5230770000000  0.5582520000000 1.0
C      1  0.5358180000000  0.4903870000000  0.5552240000000 1.0
C      1  0.5142350000000  0.4650760000000  0.5561470000000 1.0
C      1  0.4807880000000  0.4639190000000  0.5574620000000 1.0
C      1  0.5610980000000  0.4629980000000  0.5122100000000 1.0
C      1  0.5125370000000  0.4269580000000  0.5210270000000 1.0
C      1  0.4493150000000  0.4358500000000  0.5233890000000 1.0
C      1  0.4264360000000  0.5043560000000  0.5163690000000 1.0
C      1  0.4618790000000  0.5585420000000  0.5122390000000 1.0
C      1  0.5163220000000  0.5695180000000  0.5192730000000 1.0
C      1  0.5683940000000  0.5343010000000  0.5253990000000 1.0
C      1  0.4928430000000  0.5597110000000  0.4283150000000 1.0
C      1  0.5394490000000  0.5423570000000  0.4033890000000 1.0
C      1  0.5567730000000  0.4995800000000  0.4388550000000 1.0
C      1  0.5326550000000  0.4519270000000  0.4296740000000 1.0
C      1  0.4833460000000  0.4473090000000  0.4031540000000 1.0
C      1  0.4493340000000  0.4776800000000  0.4398760000000 1.0
C      1  0.4497160000000  0.5303270000000  0.4358150000000 1.0
C      1  0.4470070000000  0.5338590000000  0.4684780000000 1.0
C      1  0.4896940000000  0.5624960000000  0.4662990000000 1.0
C      1  0.5398660000000  0.5488090000000  0.4799100000000 1.0
C      1  0.5622200000000  0.4961480000000  0.4721360000000 1.0
C      1  0.5347410000000  0.4517240000000  0.4678240000000 1.0
C      1  0.4844170000000  0.4421180000000  0.4819820000000 1.0
C      1  0.4399210000000  0.4789710000000  0.4721240000000 1.0
C      1  0.5187860000000  0.4744020000000  0.4214450000000 1.0
C      1  0.4910950000000  0.4708170000000  0.4147790000000 1.0
C      1  0.4708450000000  0.4886310000000  0.4246410000000 1.0
C      1  0.4724760000000  0.5169870000000  0.4246210000000 1.0
C      1  0.4954990000000  0.5332000000000  0.4206420000000 1.0
C      1  0.5220210000000  0.5243720000000  0.4144070000000 1.0
C      1  0.5324370000000  0.4992770000000  0.4237340000000 1.0
END
