TITL C-2782237-5345-1366 -0.00350826894356327 125000 -945.433835527994 0 0 163 (C1) n - 1
REM
REM in /home/nfs/bkarasulu/CARBON/AIRSS/Generating-Clusters/REBO/Higher-Symm/SD-CG/HFTN-CG
REM
REM
REM
REM
REM
REM ./C.cell (12c818d87b63d06a65506943cc24bca4)
REM
REM compiler GCC version 9.2.1 20190827 (Red Hat 9.2.1-1)
REM options -cpp -mtune=generic -march=x86-64 -g -O0 -fpre-include=/usr/include/finclude/math-vector-fortran.h
REM seed -2065861698 318228419 1248524186 1077004366 732035476 895767819 995175737 -999239231 1427052346 1746332138 -1747884433 627584870 2067302817 -234888315 424025265 660582860 1789528911 656532090 -556356778 1099616127 -466361642 -1953711226 -809584698 457503550 1863062851 -42923176 -209304639 2089224723 -87981673 980419535 770811880 -486504302 1372680956
REM
CELL 1.54180   50.00000   50.00000   50.00000   90.00000   90.00000   90.00000
LATT -1
SFAC C  
C      1  0.5608310000000  0.5608850000000  0.5468590000000 1.0
C      1  0.4476790000000  0.5555080000000  0.5630600000000 1.0
C      1  0.4346710000000  0.5598890000000  0.4499190000000 1.0
C      1  0.5559460000000  0.5428340000000  0.4431530000000 1.0
C      1  0.5589620000000  0.4529740000000  0.5505440000000 1.0
C      1  0.4463050000000  0.4458190000000  0.5568550000000 1.0
C      1  0.4473580000000  0.4548210000000  0.4423340000000 1.0
C      1  0.5511860000000  0.4339940000000  0.4419030000000 1.0
C      1  0.4502350000000  0.4108680000000  0.5193100000000 1.0
C      1  0.4814790000000  0.4064510000000  0.4459780000000 1.0
C      1  0.5491780000000  0.4058220000000  0.4729370000000 1.0
C      1  0.5195960000000  0.4094690000000  0.5490770000000 1.0
C      1  0.4549500000000  0.5759030000000  0.5284890000000 1.0
C      1  0.4747160000000  0.5882170000000  0.4492160000000 1.0
C      1  0.5424770000000  0.5812650000000  0.4733290000000 1.0
C      1  0.5202990000000  0.5841250000000  0.5442670000000 1.0
C      1  0.4277850000000  0.4272120000000  0.5153970000000 1.0
C      1  0.4854740000000  0.4279540000000  0.4275270000000 1.0
C      1  0.5759080000000  0.4216740000000  0.4771930000000 1.0
C      1  0.5195580000000  0.4299540000000  0.5685420000000 1.0
C      1  0.4257840000000  0.5657020000000  0.5274330000000 1.0
C      1  0.4767430000000  0.5671010000000  0.4253760000000 1.0
C      1  0.5698890000000  0.5686480000000  0.4803530000000 1.0
C      1  0.5233670000000  0.5706010000000  0.5716450000000 1.0
C      1  0.5122650000000  0.4194900000000  0.4790330000000 1.0
C      1  0.5164420000000  0.4256640000000  0.5120550000000 1.0
C      1  0.4841530000000  0.4318940000000  0.5197180000000 1.0
C      1  0.4857590000000  0.4316740000000  0.4873300000000 1.0
C      1  0.5018010000000  0.5859800000000  0.4785320000000 1.0
C      1  0.5201020000000  0.5904790000000  0.5048990000000 1.0
C      1  0.4913380000000  0.5872970000000  0.5169140000000 1.0
C      1  0.4730290000000  0.5794520000000  0.4908390000000 1.0
C      1  0.4866830000000  0.4901720000000  0.5455220000000 1.0
C      1  0.4557810000000  0.4838840000000  0.4914380000000 1.0
C      1  0.5136410000000  0.4804130000000  0.4577080000000 1.0
C      1  0.5459300000000  0.4822110000000  0.5090300000000 1.0
C      1  0.4938860000000  0.5227870000000  0.5434600000000 1.0
C      1  0.4551160000000  0.5177370000000  0.4882340000000 1.0
C      1  0.5092510000000  0.5142260000000  0.4589210000000 1.0
C      1  0.5452630000000  0.5155950000000  0.5116770000000 1.0
C      1  0.5591460000000  0.5224970000000  0.5828350000000 1.0
C      1  0.4122960000000  0.5146790000000  0.5571710000000 1.0
C      1  0.4445710000000  0.5210820000000  0.4146260000000 1.0
C      1  0.5859850000000  0.5058680000000  0.4442920000000 1.0
C      1  0.5577400000000  0.4914920000000  0.5773860000000 1.0
C      1  0.4118790000000  0.4847660000000  0.5561930000000 1.0
C      1  0.4491170000000  0.4895210000000  0.4100820000000 1.0
C      1  0.5850170000000  0.4761560000000  0.4452920000000 1.0
C      1  0.5018220000000  0.5150900000000  0.5815890000000 1.0
C      1  0.4169050000000  0.5136020000000  0.4979060000000 1.0
C      1  0.4977300000000  0.5187110000000  0.4212110000000 1.0
C      1  0.5826250000000  0.5106210000000  0.4988130000000 1.0
C      1  0.5036810000000  0.4836190000000  0.5808600000000 1.0
C      1  0.4179840000000  0.4829560000000  0.5035930000000 1.0
C      1  0.4992220000000  0.4877330000000  0.4212910000000 1.0
C      1  0.5847550000000  0.4798590000000  0.5007600000000 1.0
C      1  0.5333330000000  0.4488010000000  0.4033070000000 1.0
C      1  0.5914730000000  0.4412270000000  0.5306770000000 1.0
C      1  0.4666480000000  0.4544910000000  0.5901070000000 1.0
C      1  0.4135460000000  0.4509320000000  0.4620680000000 1.0
C      1  0.5330060000000  0.5438260000000  0.4111110000000 1.0
C      1  0.5951740000000  0.5508230000000  0.5294520000000 1.0
C      1  0.4717400000000  0.5448000000000  0.5940560000000 1.0
C      1  0.4046290000000  0.5430000000000  0.4739150000000 1.0
C      1  0.5184170000000  0.5576620000000  0.4793440000000 1.0
C      1  0.5213410000000  0.5610820000000  0.5190600000000 1.0
C      1  0.4818900000000  0.5559370000000  0.5218720000000 1.0
C      1  0.4717530000000  0.5578470000000  0.4646520000000 1.0
C      1  0.5402780000000  0.4387590000000  0.4799350000000 1.0
C      1  0.5174160000000  0.4574530000000  0.5212010000000 1.0
C      1  0.4764210000000  0.4624500000000  0.5188470000000 1.0
C      1  0.4855180000000  0.4612680000000  0.4783620000000 1.0
C      1  0.5039160000000  0.6024300000000  0.4519180000000 1.0
C      1  0.5491280000000  0.6010960000000  0.5001450000000 1.0
C      1  0.4891130000000  0.5976250000000  0.5461580000000 1.0
C      1  0.4438440000000  0.5889510000000  0.4988490000000 1.0
C      1  0.5085350000000  0.4011470000000  0.4560220000000 1.0
C      1  0.5370030000000  0.4003330000000  0.5029870000000 1.0
C      1  0.4929960000000  0.4072440000000  0.5390480000000 1.0
C      1  0.4642870000000  0.4080190000000  0.4945230000000 1.0
C      1  0.5349260000000  0.4744920000000  0.5835870000000 1.0
C      1  0.4090840000000  0.4701320000000  0.5317970000000 1.0
C      1  0.4732600000000  0.4738340000000  0.4099370000000 1.0
C      1  0.5961470000000  0.4658650000000  0.4747210000000 1.0
C      1  0.5279280000000  0.5333960000000  0.5908910000000 1.0
C      1  0.4113940000000  0.5285140000000  0.5264500000000 1.0
C      1  0.4742050000000  0.5363890000000  0.4107210000000 1.0
C      1  0.5914090000000  0.5227210000000  0.4681400000000 1.0
C      1  0.5370740000000  0.4032860000000  0.4412280000000 1.0
C      1  0.5430530000000  0.4042650000000  0.5327690000000 1.0
C      1  0.4622790000000  0.4162880000000  0.5491820000000 1.0
C      1  0.4579990000000  0.4078380000000  0.4639750000000 1.0
C      1  0.5322900000000  0.5928950000000  0.4466170000000 1.0
C      1  0.5509820000000  0.5896730000000  0.5304890000000 1.0
C      1  0.4617350000000  0.5867800000000  0.5590490000000 1.0
C      1  0.4446850000000  0.5891340000000  0.4647030000000 1.0
C      1  0.5491630000000  0.5164220000000  0.5446700000000 1.0
C      1  0.4601510000000  0.5192980000000  0.5406580000000 1.0
C      1  0.4551900000000  0.5219340000000  0.4549910000000 1.0
C      1  0.5410670000000  0.5090950000000  0.4581640000000 1.0
C      1  0.5388940000000  0.4872360000000  0.5390670000000 1.0
C      1  0.4533780000000  0.4890790000000  0.5508550000000 1.0
C      1  0.4530840000000  0.4905650000000  0.4591260000000 1.0
C      1  0.5477140000000  0.4790700000000  0.4592400000000 1.0
C      1  0.4839100000000  0.5326800000000  0.4491480000000 1.0
C      1  0.5544560000000  0.5205330000000  0.4818240000000 1.0
C      1  0.5235840000000  0.5267080000000  0.5577860000000 1.0
C      1  0.4430640000000  0.5259730000000  0.5172850000000 1.0
C      1  0.4813970000000  0.4777990000000  0.4488710000000 1.0
C      1  0.5576890000000  0.4655070000000  0.4847460000000 1.0
C      1  0.5136100000000  0.4731600000000  0.5498780000000 1.0
C      1  0.4468580000000  0.4768080000000  0.5212360000000 1.0
C      1  0.4644180000000  0.4218910000000  0.5826050000000 1.0
C      1  0.4328030000000  0.4228410000000  0.4592650000000 1.0
C      1  0.5359420000000  0.4164750000000  0.4098600000000 1.0
C      1  0.5685840000000  0.4175310000000  0.5350180000000 1.0
C      1  0.4681160000000  0.5773510000000  0.5892950000000 1.0
C      1  0.4145910000000  0.5754820000000  0.4722650000000 1.0
C      1  0.5338050000000  0.5744340000000  0.4252270000000 1.0
C      1  0.5841310000000  0.5825460000000  0.5356270000000 1.0
C      1  0.5053970000000  0.5576140000000  0.4244930000000 1.0
C      1  0.5728720000000  0.5641860000000  0.5089010000000 1.0
C      1  0.4974140000000  0.5621610000000  0.5806880000000 1.0
C      1  0.4178380000000  0.5586620000000  0.5009700000000 1.0
C      1  0.5140340000000  0.4356520000000  0.4272080000000 1.0
C      1  0.5741500000000  0.4315670000000  0.5046530000000 1.0
C      1  0.4925900000000  0.4391390000000  0.5742590000000 1.0
C      1  0.4266620000000  0.4369710000000  0.4888020000000 1.0
C      1  0.4355800000000  0.5266700000000  0.5767580000000 1.0
C      1  0.4241020000000  0.5056060000000  0.4361880000000 1.0
C      1  0.5657370000000  0.5184620000000  0.4281770000000 1.0
C      1  0.5845610000000  0.5168840000000  0.5625720000000 1.0
C      1  0.4274780000000  0.4681990000000  0.5728560000000 1.0
C      1  0.4296160000000  0.4756180000000  0.4306420000000 1.0
C      1  0.5558400000000  0.4649330000000  0.4320210000000 1.0
C      1  0.5739950000000  0.4788940000000  0.5560580000000 1.0
C      1  0.4771170000000  0.4572780000000  0.5516310000000 1.0
C      1  0.4526060000000  0.4539440000000  0.4745800000000 1.0
C      1  0.5223810000000  0.4489440000000  0.4539920000000 1.0
C      1  0.5508690000000  0.4504610000000  0.5209920000000 1.0
C      1  0.4789320000000  0.5509900000000  0.5552410000000 1.0
C      1  0.4432990000000  0.5491380000000  0.4812740000000 1.0
C      1  0.5235980000000  0.5440030000000  0.4499570000000 1.0
C      1  0.5478240000000  0.5473510000000  0.5198420000000 1.0
C      1  0.5765520000000  0.5480620000000  0.4630830000000 1.0
C      1  0.5493610000000  0.5531600000000  0.5730360000000 1.0
C      1  0.4159350000000  0.5488440000000  0.5526240000000 1.0
C      1  0.4479830000000  0.5517020000000  0.4262860000000 1.0
C      1  0.5801260000000  0.4436880000000  0.4554210000000 1.0
C      1  0.5395170000000  0.4489300000000  0.5709290000000 1.0
C      1  0.4223200000000  0.4450910000000  0.5355800000000 1.0
C      1  0.4680580000000  0.4489270000000  0.4235840000000 1.0
C      1  0.4683350000000  0.5173820000000  0.5747410000000 1.0
C      1  0.4224730000000  0.5190050000000  0.4651690000000 1.0
C      1  0.5314570000000  0.5124140000000  0.4244670000000 1.0
C      1  0.5799490000000  0.5223960000000  0.5301910000000 1.0
C      1  0.4693140000000  0.4835710000000  0.5806700000000 1.0
C      1  0.4225880000000  0.4793960000000  0.4700650000000 1.0
C      1  0.5305060000000  0.4794660000000  0.4155150000000 1.0
C      1  0.5893440000000  0.4699290000000  0.5308410000000 1.0
C      1  0.4992980000000  0.4794460000000  0.5023350000000 1.0
C      1  0.5028420000000  0.5381860000000  0.5026830000000 1.0
C      1  0.5016090000000  0.5088190000000  0.5017260000000 1.0
END
