TITL C-2782237-5345-1124 -20.9967815737225 125000 -458.107337655089 0 0 82 (C1) n - 1
REM
REM in /home/nfs/bkarasulu/CARBON/AIRSS/Generating-Clusters/REBO/Higher-Symm/SD-CG/HFTN-CG
REM
REM
REM
REM
REM
REM ./C.cell (12c818d87b63d06a65506943cc24bca4)
REM
REM compiler GCC version 9.2.1 20190827 (Red Hat 9.2.1-1)
REM options -cpp -mtune=generic -march=x86-64 -g -O0 -fpre-include=/usr/include/finclude/math-vector-fortran.h
REM seed 187735631 2117196777 -1921137420 2120329953 -1732320539 -948593699 -1717051321 -1977643736 963764233 478654968 -878052698 238195742 -1115112374 1623717399 1723084833 1959276080 -187371144 2119196939 1251111897 311367602 -152857902 -1270709895 1258524046 479638204 1138366062 708836570 -233052467 358054409 -1541237230 1657144835 -1012051214 177471829 734149371
REM
CELL 1.54180   50.00000   50.00000   50.00000   90.00000   90.00000   90.00000
LATT -1
SFAC C  
C      1  0.4320490000000  0.5309880000000  0.5545580000000 1.0
C      1  0.4333060000000  0.4655020000000  0.4483140000000 1.0
C      1  0.5084870000000  0.4714050000000  0.5513400000000 1.0
C      1  0.5047760000000  0.5309990000000  0.4591990000000 1.0
C      1  0.5140960000000  0.4326990000000  0.5134120000000 1.0
C      1  0.5164420000000  0.5679880000000  0.4903880000000 1.0
C      1  0.5779810000000  0.5159700000000  0.5513790000000 1.0
C      1  0.5778350000000  0.4802960000000  0.4520810000000 1.0
C      1  0.5580940000000  0.4868110000000  0.5799880000000 1.0
C      1  0.5543140000000  0.5149850000000  0.4249260000000 1.0
C      1  0.5450790000000  0.5589360000000  0.5252360000000 1.0
C      1  0.5438800000000  0.4380100000000  0.4790400000000 1.0
C      1  0.4974220000000  0.4901570000000  0.4715410000000 1.0
C      1  0.4986770000000  0.5039920000000  0.5289650000000 1.0
C      1  0.4194690000000  0.4801070000000  0.4732800000000 1.0
C      1  0.4190110000000  0.5162060000000  0.5294830000000 1.0
C      1  0.5590120000000  0.5227130000000  0.5342380000000 1.0
C      1  0.5586130000000  0.4737010000000  0.4689920000000 1.0
C      1  0.5202320000000  0.5280190000000  0.4887410000000 1.0
C      1  0.5214180000000  0.4723430000000  0.5211800000000 1.0
C      1  0.5246140000000  0.4491410000000  0.4631530000000 1.0
C      1  0.5256680000000  0.5471710000000  0.5405830000000 1.0
C      1  0.5416640000000  0.4481260000000  0.5176060000000 1.0
C      1  0.5429500000000  0.5506710000000  0.4862580000000 1.0
C      1  0.5579380000000  0.5207570000000  0.4786520000000 1.0
C      1  0.5605710000000  0.4756660000000  0.5259050000000 1.0
C      1  0.4777950000000  0.4911940000000  0.4219880000000 1.0
C      1  0.4750100000000  0.5141980000000  0.5761470000000 1.0
C      1  0.5261360000000  0.4811980000000  0.4620170000000 1.0
C      1  0.5264210000000  0.5148010000000  0.5404690000000 1.0
C      1  0.4931010000000  0.5705320000000  0.4982870000000 1.0
C      1  0.4907580000000  0.4302610000000  0.5062170000000 1.0
C      1  0.5649410000000  0.5382860000000  0.5073370000000 1.0
C      1  0.5642470000000  0.4586670000000  0.4963060000000 1.0
C      1  0.4359800000000  0.5257470000000  0.4848410000000 1.0
C      1  0.4316490000000  0.4696460000000  0.5194980000000 1.0
C      1  0.5030280000000  0.5594500000000  0.5532490000000 1.0
C      1  0.5013850000000  0.4386280000000  0.4499070000000 1.0
C      1  0.4659610000000  0.4393360000000  0.4892650000000 1.0
C      1  0.4701110000000  0.5577030000000  0.5131350000000 1.0
C      1  0.5459390000000  0.4884540000000  0.5496480000000 1.0
C      1  0.5440500000000  0.5081010000000  0.4551480000000 1.0
C      1  0.4382240000000  0.4466070000000  0.5045700000000 1.0
C      1  0.4431320000000  0.5499090000000  0.4974650000000 1.0
C      1  0.4984010000000  0.4470680000000  0.4218660000000 1.0
C      1  0.5014540000000  0.5584840000000  0.5821350000000 1.0
C      1  0.4499900000000  0.4545640000000  0.5642140000000 1.0
C      1  0.4473880000000  0.5420950000000  0.4395820000000 1.0
C      1  0.5256940000000  0.5265870000000  0.4334860000000 1.0
C      1  0.5268770000000  0.4806140000000  0.5772040000000 1.0
C      1  0.4279740000000  0.4991610000000  0.5543940000000 1.0
C      1  0.4283620000000  0.4970560000000  0.4480750000000 1.0
C      1  0.4742210000000  0.4634520000000  0.4195840000000 1.0
C      1  0.4793750000000  0.5437220000000  0.5900090000000 1.0
C      1  0.4693010000000  0.5214770000000  0.5064300000000 1.0
C      1  0.4697120000000  0.4706190000000  0.5075850000000 1.0
C      1  0.4942960000000  0.5192590000000  0.4289870000000 1.0
C      1  0.4947100000000  0.4882610000000  0.5770110000000 1.0
C      1  0.4760880000000  0.5556000000000  0.5424310000000 1.0
C      1  0.4735080000000  0.4393420000000  0.4605330000000 1.0
C      1  0.4759980000000  0.5040600000000  0.4530960000000 1.0
C      1  0.4759350000000  0.4943430000000  0.5490460000000 1.0
C      1  0.4488030000000  0.4770190000000  0.5469760000000 1.0
C      1  0.4481150000000  0.5191220000000  0.4562680000000 1.0
C      1  0.4582900000000  0.5402210000000  0.5635570000000 1.0
C      1  0.4565820000000  0.4520440000000  0.4407460000000 1.0
C      1  0.4874560000000  0.5325630000000  0.4873130000000 1.0
C      1  0.4898150000000  0.4653310000000  0.5253740000000 1.0
C      1  0.6234260000000  0.5010470000000  0.5013690000000 1.0
C      1  0.4577570000000  0.4961190000000  0.5049620000000 1.0
C      1  0.5970610000000  0.4999510000000  0.5018150000000 1.0
C      1  0.3363600000000  0.5033360000000  0.4984610000000 1.0
C      1  0.6766340000000  0.5032550000000  0.5004660000000 1.0
C      1  0.5661190000000  0.4986610000000  0.5023350000000 1.0
C      1  0.3892590000000  0.5001860000000  0.5001920000000 1.0
C      1  0.4989370000000  0.4962840000000  0.4991000000000 1.0
C      1  0.3629290000000  0.5017540000000  0.4993300000000 1.0
C      1  0.4232160000000  0.4981630000000  0.5013020000000 1.0
C      1  0.6500300000000  0.5021510000000  0.5009180000000 1.0
C      1  0.7028150000000  0.5043400000000  0.5000210000000 1.0
C      1  0.5321430000000  0.4998920000000  0.5041000000000 1.0
C      1  0.3102130000000  0.5048930000000  0.4976060000000 1.0
END
