TITL C-2782229-3092-832 0.00176185843281662 125000 -883.564005390087 0 0 153 (C1) n - 1
REM
REM in /home/nfs/bkarasulu/CARBON/AIRSS/Generating-Clusters/REBO/Higher-Symm/SD-CG/HFTN-CG
REM
REM
REM
REM
REM
REM ./C.cell (12c818d87b63d06a65506943cc24bca4)
REM
REM compiler GCC version 9.2.1 20190827 (Red Hat 9.2.1-1)
REM options -cpp -mtune=generic -march=x86-64 -g -O0 -fpre-include=/usr/include/finclude/math-vector-fortran.h
REM seed -908756056 785089220 -1619898693 -900396567 967961486 -1269406430 -1225273082 -1858829271 -1913420524 1622897472 -1163288300 -917521182 342622141 748750487 921397745 1775330261 240206561 1641746910 -1504420851 -387887282 -1966288908 1693829044 -303715895 1259276134 2005978371 -1361393525 -629193551 -1752899448 -1642886976 -810373666 -1137999414 -1532605857 -967243882
REM
CELL 1.54180   50.00000   50.00000   50.00000   90.00000   90.00000   90.00000
LATT -1
SFAC C  
C      1  0.4478870000000  0.4344330000000  0.4625290000000 1.0
C      1  0.5574760000000  0.4317300000000  0.4620440000000 1.0
C      1  0.4865290000000  0.4827190000000  0.4129290000000 1.0
C      1  0.5189840000000  0.4777370000000  0.4110940000000 1.0
C      1  0.5523960000000  0.4525110000000  0.5574560000000 1.0
C      1  0.4455310000000  0.4635010000000  0.5522790000000 1.0
C      1  0.4750280000000  0.5607140000000  0.4888030000000 1.0
C      1  0.5218000000000  0.5584260000000  0.4839450000000 1.0
C      1  0.4857570000000  0.5141430000000  0.4065470000000 1.0
C      1  0.5160180000000  0.5086100000000  0.4061740000000 1.0
C      1  0.5524510000000  0.4980470000000  0.5858450000000 1.0
C      1  0.4508060000000  0.4898830000000  0.5834030000000 1.0
C      1  0.5957020000000  0.5347120000000  0.4990470000000 1.0
C      1  0.4022260000000  0.5333600000000  0.5035850000000 1.0
C      1  0.6044650000000  0.4676020000000  0.5355620000000 1.0
C      1  0.3936010000000  0.4628410000000  0.5311390000000 1.0
C      1  0.4822440000000  0.6032720000000  0.5230060000000 1.0
C      1  0.5113450000000  0.6023700000000  0.5200320000000 1.0
C      1  0.5373810000000  0.4069720000000  0.4568810000000 1.0
C      1  0.4601120000000  0.4068490000000  0.4540490000000 1.0
C      1  0.5314960000000  0.5129960000000  0.5298320000000 1.0
C      1  0.4709180000000  0.5169380000000  0.5362540000000 1.0
C      1  0.4708680000000  0.4758290000000  0.4949450000000 1.0
C      1  0.5268440000000  0.4715030000000  0.4929070000000 1.0
C      1  0.4464900000000  0.5033640000000  0.5523620000000 1.0
C      1  0.5551810000000  0.5043530000000  0.5521480000000 1.0
C      1  0.5479590000000  0.5412240000000  0.5237600000000 1.0
C      1  0.4529810000000  0.5411990000000  0.5232660000000 1.0
C      1  0.5705280000000  0.5174340000000  0.5247590000000 1.0
C      1  0.4322870000000  0.5167460000000  0.5263420000000 1.0
C      1  0.5780040000000  0.4902350000000  0.4136740000000 1.0
C      1  0.4251000000000  0.4918920000000  0.4119230000000 1.0
C      1  0.5299610000000  0.4417970000000  0.4750320000000 1.0
C      1  0.4729380000000  0.4456910000000  0.4786210000000 1.0
C      1  0.4728460000000  0.4639080000000  0.5840260000000 1.0
C      1  0.5370850000000  0.4685710000000  0.5928010000000 1.0
C      1  0.5456960000000  0.5727390000000  0.5248890000000 1.0
C      1  0.4544700000000  0.5725800000000  0.5282480000000 1.0
C      1  0.5649260000000  0.5441190000000  0.4956250000000 1.0
C      1  0.4319550000000  0.5446520000000  0.4979020000000 1.0
C      1  0.5250720000000  0.5136010000000  0.4464140000000 1.0
C      1  0.4749230000000  0.5167260000000  0.4476580000000 1.0
C      1  0.5505490000000  0.5738950000000  0.4738170000000 1.0
C      1  0.4460160000000  0.5756900000000  0.4779820000000 1.0
C      1  0.5383360000000  0.5727940000000  0.5638060000000 1.0
C      1  0.4572000000000  0.5695760000000  0.5677170000000 1.0
C      1  0.5690900000000  0.4778380000000  0.5665720000000 1.0
C      1  0.4234280000000  0.4832300000000  0.5655990000000 1.0
C      1  0.4338200000000  0.5369490000000  0.4379070000000 1.0
C      1  0.5655020000000  0.5337400000000  0.4379070000000 1.0
C      1  0.5203960000000  0.4238750000000  0.4996740000000 1.0
C      1  0.4858180000000  0.4267920000000  0.5001110000000 1.0
C      1  0.4824900000000  0.5894210000000  0.4720250000000 1.0
C      1  0.5135660000000  0.5866020000000  0.4676720000000 1.0
C      1  0.5305950000000  0.5959200000000  0.5429560000000 1.0
C      1  0.4654630000000  0.5963530000000  0.5489980000000 1.0
C      1  0.5173900000000  0.4605160000000  0.4550970000000 1.0
C      1  0.4865800000000  0.4642610000000  0.4576540000000 1.0
C      1  0.4635280000000  0.4183580000000  0.5322350000000 1.0
C      1  0.5331880000000  0.4116150000000  0.5354590000000 1.0
C      1  0.4419340000000  0.5445240000000  0.4667870000000 1.0
C      1  0.5541550000000  0.5418170000000  0.4651850000000 1.0
C      1  0.4539260000000  0.5018090000000  0.4267030000000 1.0
C      1  0.5482990000000  0.4991260000000  0.4276620000000 1.0
C      1  0.5203470000000  0.5297160000000  0.5522520000000 1.0
C      1  0.4890460000000  0.5305460000000  0.5562200000000 1.0
C      1  0.5522030000000  0.4238760000000  0.5117420000000 1.0
C      1  0.4445310000000  0.4275890000000  0.5154940000000 1.0
C      1  0.5197540000000  0.3908970000000  0.4938290000000 1.0
C      1  0.4746840000000  0.3977660000000  0.4998550000000 1.0
C      1  0.4207760000000  0.4707680000000  0.4344170000000 1.0
C      1  0.5822370000000  0.4689620000000  0.4359000000000 1.0
C      1  0.5955760000000  0.4886230000000  0.5528530000000 1.0
C      1  0.3976680000000  0.4850880000000  0.5478590000000 1.0
C      1  0.4827350000000  0.4539730000000  0.5204270000000 1.0
C      1  0.5138100000000  0.4512250000000  0.5189790000000 1.0
C      1  0.4519440000000  0.5156020000000  0.4798810000000 1.0
C      1  0.5447690000000  0.5133670000000  0.4807390000000 1.0
C      1  0.5165580000000  0.5633490000000  0.5130470000000 1.0
C      1  0.4855630000000  0.5637270000000  0.5189620000000 1.0
C      1  0.5968650000000  0.4842240000000  0.4626110000000 1.0
C      1  0.4046180000000  0.4862940000000  0.4605730000000 1.0
C      1  0.4632880000000  0.5975800000000  0.4984380000000 1.0
C      1  0.5327020000000  0.5952590000000  0.4945360000000 1.0
C      1  0.5471880000000  0.5298250000000  0.5818670000000 1.0
C      1  0.4512660000000  0.5239420000000  0.5861380000000 1.0
C      1  0.5841110000000  0.5083550000000  0.4418880000000 1.0
C      1  0.4174340000000  0.5100740000000  0.4397070000000 1.0
C      1  0.4091760000000  0.4334730000000  0.5377540000000 1.0
C      1  0.5872660000000  0.4397400000000  0.5425900000000 1.0
C      1  0.5162690000000  0.5428560000000  0.4377080000000 1.0
C      1  0.4859530000000  0.5461070000000  0.4398460000000 1.0
C      1  0.5337230000000  0.4616560000000  0.4297190000000 1.0
C      1  0.4708400000000  0.4658640000000  0.4311260000000 1.0
C      1  0.4894290000000  0.4409520000000  0.5760240000000 1.0
C      1  0.5234870000000  0.4433740000000  0.5754080000000 1.0
C      1  0.5152320000000  0.4910260000000  0.5186790000000 1.0
C      1  0.4850890000000  0.4938060000000  0.5201170000000 1.0
C      1  0.5805300000000  0.5472590000000  0.5491350000000 1.0
C      1  0.4179230000000  0.5434850000000  0.5520620000000 1.0
C      1  0.5981860000000  0.4450550000000  0.5108300000000 1.0
C      1  0.4014720000000  0.4409630000000  0.5064280000000 1.0
C      1  0.5261780000000  0.4697200000000  0.5425700000000 1.0
C      1  0.4732740000000  0.4742550000000  0.5454860000000 1.0
C      1  0.4839630000000  0.5801700000000  0.4417490000000 1.0
C      1  0.5172480000000  0.5769880000000  0.4372570000000 1.0
C      1  0.5928070000000  0.5170810000000  0.5479100000000 1.0
C      1  0.4066790000000  0.5142690000000  0.5469080000000 1.0
C      1  0.5716580000000  0.4278580000000  0.5682760000000 1.0
C      1  0.4341070000000  0.4350940000000  0.5563510000000 1.0
C      1  0.4432390000000  0.4946100000000  0.4578410000000 1.0
C      1  0.5582410000000  0.4931950000000  0.4594730000000 1.0
C      1  0.5645200000000  0.5834950000000  0.5023970000000 1.0
C      1  0.4329600000000  0.5833210000000  0.5076740000000 1.0
C      1  0.5151650000000  0.5296260000000  0.4753280000000 1.0
C      1  0.4813140000000  0.5330230000000  0.4773040000000 1.0
C      1  0.5166250000000  0.5148440000000  0.5804510000000 1.0
C      1  0.4827320000000  0.5172210000000  0.5843740000000 1.0
C      1  0.4152820000000  0.5584470000000  0.5233520000000 1.0
C      1  0.5830450000000  0.5597700000000  0.5190040000000 1.0
C      1  0.4352230000000  0.5626770000000  0.4210130000000 1.0
C      1  0.5661560000000  0.5583500000000  0.4192640000000 1.0
C      1  0.4396590000000  0.4758540000000  0.5013760000000 1.0
C      1  0.5583920000000  0.4729320000000  0.5033960000000 1.0
C      1  0.5613510000000  0.4516710000000  0.5243630000000 1.0
C      1  0.4334050000000  0.4565700000000  0.5229030000000 1.0
C      1  0.5600910000000  0.4516910000000  0.4382810000000 1.0
C      1  0.4444140000000  0.4549070000000  0.4386720000000 1.0
C      1  0.5699000000000  0.5031650000000  0.4988410000000 1.0
C      1  0.4296740000000  0.5047100000000  0.4997490000000 1.0
C      1  0.5122750000000  0.3982030000000  0.4537960000000 1.0
C      1  0.4853810000000  0.3975410000000  0.4524130000000 1.0
C      1  0.4289150000000  0.4678140000000  0.4731200000000 1.0
C      1  0.5715980000000  0.4668610000000  0.4743440000000 1.0
C      1  0.4658500000000  0.5647960000000  0.4193010000000 1.0
C      1  0.5355810000000  0.5604890000000  0.4156990000000 1.0
C      1  0.4885750000000  0.4882950000000  0.5709040000000 1.0
C      1  0.5191390000000  0.4830250000000  0.5698420000000 1.0
C      1  0.3992270000000  0.5090060000000  0.4847150000000 1.0
C      1  0.5987170000000  0.5101590000000  0.4819320000000 1.0
C      1  0.4837450000000  0.4942120000000  0.4693550000000 1.0
C      1  0.5149180000000  0.4906080000000  0.4673280000000 1.0
C      1  0.4834280000000  0.5612220000000  0.5530730000000 1.0
C      1  0.5145530000000  0.5595950000000  0.5460870000000 1.0
C      1  0.5751100000000  0.4368830000000  0.4900010000000 1.0
C      1  0.4273370000000  0.4381400000000  0.4879690000000 1.0
C      1  0.5581740000000  0.5520030000000  0.5680850000000 1.0
C      1  0.4395540000000  0.5467510000000  0.5717250000000 1.0
C      1  0.4836880000000  0.4221390000000  0.5513370000000 1.0
C      1  0.5144740000000  0.4209620000000  0.5526820000000 1.0
C      1  0.5422900000000  0.5272890000000  0.4123020000000 1.0
C      1  0.4593110000000  0.5318100000000  0.4141790000000 1.0
C      1  0.4947280000000  0.3792830000000  0.4955370000000 1.0
END
