TITL C-2782229-3092-562 -0.00478985952656258 125000 -1066.24413324395 0 0 181 (C1) n - 1
REM
REM in /home/nfs/bkarasulu/CARBON/AIRSS/Generating-Clusters/REBO/Higher-Symm/SD-CG/HFTN-CG
REM
REM
REM
REM
REM
REM ./C.cell (12c818d87b63d06a65506943cc24bca4)
REM
REM compiler GCC version 9.2.1 20190827 (Red Hat 9.2.1-1)
REM options -cpp -mtune=generic -march=x86-64 -g -O0 -fpre-include=/usr/include/finclude/math-vector-fortran.h
REM seed -1657642723 -1998983381 1493336217 1944832084 -1632741932 -1401061133 318667257 -1277041396 1095380840 1140717323 916737545 -317606312 -148340574 695727987 -1847174251 1470493526 -298450649 -141391439 402695336 885022218 255792470 -1475253284 549167032 770138240 -570680601 -987086982 -101498708 504152914 2101023640 -1166940825 -614705235 217471465 2009367745
REM
CELL 1.54180   50.00000   50.00000   50.00000   90.00000   90.00000   90.00000
LATT -1
SFAC C  
C      1  0.5408520000000  0.4845060000000  0.4975590000000 1.0
C      1  0.4877780000000  0.5487970000000  0.4946390000000 1.0
C      1  0.4609110000000  0.4623800000000  0.4991670000000 1.0
C      1  0.4760950000000  0.3530120000000  0.4821900000000 1.0
C      1  0.6396960000000  0.5536160000000  0.4947880000000 1.0
C      1  0.3824980000000  0.5841770000000  0.4904850000000 1.0
C      1  0.5646340000000  0.4420110000000  0.4751880000000 1.0
C      1  0.5193360000000  0.5848720000000  0.4745350000000 1.0
C      1  0.4207080000000  0.4730400000000  0.4763220000000 1.0
C      1  0.4431410000000  0.5624480000000  0.5580030000000 1.0
C      1  0.4666540000000  0.4155880000000  0.5573170000000 1.0
C      1  0.5811420000000  0.5133230000000  0.5576790000000 1.0
C      1  0.5860780000000  0.5017440000000  0.4184970000000 1.0
C      1  0.4572880000000  0.5713070000000  0.4117560000000 1.0
C      1  0.4576060000000  0.4244380000000  0.4130180000000 1.0
C      1  0.4790170000000  0.6011560000000  0.5692770000000 1.0
C      1  0.4228370000000  0.4389830000000  0.5757630000000 1.0
C      1  0.5976140000000  0.4635620000000  0.5663950000000 1.0
C      1  0.5172870000000  0.4000350000000  0.5396260000000 1.0
C      1  0.5752310000000  0.5678890000000  0.5367270000000 1.0
C      1  0.4049140000000  0.5292600000000  0.5354560000000 1.0
C      1  0.4646320000000  0.4920220000000  0.3900040000000 1.0
C      1  0.5248180000000  0.4693340000000  0.3895910000000 1.0
C      1  0.5139320000000  0.5324230000000  0.3892200000000 1.0
C      1  0.4160420000000  0.5505220000000  0.4366200000000 1.0
C      1  0.4978060000000  0.4027940000000  0.4378240000000 1.0
C      1  0.5853130000000  0.5445560000000  0.4420460000000 1.0
C      1  0.5748890000000  0.4418130000000  0.5033480000000 1.0
C      1  0.5152950000000  0.6010670000000  0.4997640000000 1.0
C      1  0.4077600000000  0.4611650000000  0.5007440000000 1.0
C      1  0.5395590000000  0.5123030000000  0.4691210000000 1.0
C      1  0.4609550000000  0.5407380000000  0.4661850000000 1.0
C      1  0.4843020000000  0.4583860000000  0.4669710000000 1.0
C      1  0.5681110000000  0.5250660000000  0.5129250000000 1.0
C      1  0.4510960000000  0.5556590000000  0.5143190000000 1.0
C      1  0.4756490000000  0.4209460000000  0.5182220000000 1.0
C      1  0.5827430000000  0.4578030000000  0.4358120000000 1.0
C      1  0.4968190000000  0.5867420000000  0.4385660000000 1.0
C      1  0.4263200000000  0.4509700000000  0.4397010000000 1.0
C      1  0.5096860000000  0.4356870000000  0.5712010000000 1.0
C      1  0.5461460000000  0.5439510000000  0.5713250000000 1.0
C      1  0.4454980000000  0.5238350000000  0.5673290000000 1.0
C      1  0.5508080000000  0.4674470000000  0.4702860000000 1.0
C      1  0.5062790000000  0.5607900000000  0.4731370000000 1.0
C      1  0.4485420000000  0.4738330000000  0.4762580000000 1.0
C      1  0.4424730000000  0.5411780000000  0.4166960000000 1.0
C      1  0.4912530000000  0.4285510000000  0.4157500000000 1.0
C      1  0.5652660000000  0.5273590000000  0.4200430000000 1.0
C      1  0.5470450000000  0.5831170000000  0.4590100000000 1.0
C      1  0.4054320000000  0.4958880000000  0.4593310000000 1.0
C      1  0.5573060000000  0.4166960000000  0.4569300000000 1.0
C      1  0.5041040000000  0.5612060000000  0.5619860000000 1.0
C      1  0.4518590000000  0.4764420000000  0.5547570000000 1.0
C      1  0.5477790000000  0.4676980000000  0.5578930000000 1.0
C      1  0.5052640000000  0.4796920000000  0.4222750000000 1.0
C      1  0.5153110000000  0.5119450000000  0.4229690000000 1.0
C      1  0.4820600000000  0.5045660000000  0.4232470000000 1.0
C      1  0.4257230000000  0.4365500000000  0.4916260000000 1.0
C      1  0.5877800000000  0.4697440000000  0.4918130000000 1.0
C      1  0.4849070000000  0.5973820000000  0.4901450000000 1.0
C      1  0.5148390000000  0.5311830000000  0.5181270000000 1.0
C      1  0.4667070000000  0.5017160000000  0.5021930000000 1.0
C      1  0.5153110000000  0.4576840000000  0.5123310000000 1.0
C      1  0.5653880000000  0.4302560000000  0.5851390000000 1.0
C      1  0.5260130000000  0.5964570000000  0.5858260000000 1.0
C      1  0.4140310000000  0.4850880000000  0.5888970000000 1.0
C      1  0.5680850000000  0.4965160000000  0.4667180000000 1.0
C      1  0.4558570000000  0.5711710000000  0.4615590000000 1.0
C      1  0.4647940000000  0.4307490000000  0.4635090000000 1.0
C      1  0.5779180000000  0.4973110000000  0.5034180000000 1.0
C      1  0.4697830000000  0.5818290000000  0.5078870000000 1.0
C      1  0.4471150000000  0.4270200000000  0.5112790000000 1.0
C      1  0.5145850000000  0.5386240000000  0.4523780000000 1.0
C      1  0.4576760000000  0.4945590000000  0.4531390000000 1.0
C      1  0.5253810000000  0.4647670000000  0.4529560000000 1.0
C      1  0.5507790000000  0.5834940000000  0.5428980000000 1.0
C      1  0.4088440000000  0.5014210000000  0.5419930000000 1.0
C      1  0.5424100000000  0.4177470000000  0.5413630000000 1.0
C      1  0.4023630000000  0.4836360000000  0.5208770000000 1.0
C      1  0.5584560000000  0.4218790000000  0.5186970000000 1.0
C      1  0.5386230000000  0.5969690000000  0.5199880000000 1.0
C      1  0.4863110000000  0.3958710000000  0.5469400000000 1.0
C      1  0.5877060000000  0.5388820000000  0.5446810000000 1.0
C      1  0.4216210000000  0.5536730000000  0.5411870000000 1.0
C      1  0.4460820000000  0.4428000000000  0.5551740000000 1.0
C      1  0.5777860000000  0.4823090000000  0.5513330000000 1.0
C      1  0.4740170000000  0.5738490000000  0.5542690000000 1.0
C      1  0.5221710000000  0.4197100000000  0.4747590000000 1.0
C      1  0.5418800000000  0.5589800000000  0.5085410000000 1.0
C      1  0.4276310000000  0.5097530000000  0.5042090000000 1.0
C      1  0.4817410000000  0.5552420000000  0.5990550000000 1.0
C      1  0.4634920000000  0.4540300000000  0.5896540000000 1.0
C      1  0.5560800000000  0.4924490000000  0.5932390000000 1.0
C      1  0.5990720000000  0.5382040000000  0.5141270000000 1.0
C      1  0.4214500000000  0.5671860000000  0.5133690000000 1.0
C      1  0.4817880000000  0.3875430000000  0.5158370000000 1.0
C      1  0.4344690000000  0.4379910000000  0.4153930000000 1.0
C      1  0.5883140000000  0.4753070000000  0.4139840000000 1.0
C      1  0.4811360000000  0.5833770000000  0.4146530000000 1.0
C      1  0.5075630000000  0.4466900000000  0.4838010000000 1.0
C      1  0.5339280000000  0.5312650000000  0.4914680000000 1.0
C      1  0.4516130000000  0.5314030000000  0.4940880000000 1.0
C      1  0.5341970000000  0.5039560000000  0.5205370000000 1.0
C      1  0.4842870000000  0.5249720000000  0.5156760000000 1.0
C      1  0.4848290000000  0.4594660000000  0.5140050000000 1.0
C      1  0.4285120000000  0.4966600000000  0.5639950000000 1.0
C      1  0.5419240000000  0.4368880000000  0.5656130000000 1.0
C      1  0.5354240000000  0.5733040000000  0.5666530000000 1.0
C      1  0.4964170000000  0.4805310000000  0.5922780000000 1.0
C      1  0.5186870000000  0.5063900000000  0.5940770000000 1.0
C      1  0.4860060000000  0.5130040000000  0.5942350000000 1.0
C      1  0.4520340000000  0.5232500000000  0.3949530000000 1.0
C      1  0.5021110000000  0.4441130000000  0.3928730000000 1.0
C      1  0.5469290000000  0.5273130000000  0.3964490000000 1.0
C      1  0.5177800000000  0.4582650000000  0.5928380000000 1.0
C      1  0.5295070000000  0.5346340000000  0.5977040000000 1.0
C      1  0.4571750000000  0.5050080000000  0.5905750000000 1.0
C      1  0.4217570000000  0.5707900000000  0.4641130000000 1.0
C      1  0.4799340000000  0.4001110000000  0.4671170000000 1.0
C      1  0.6072010000000  0.5340060000000  0.4659150000000 1.0
C      1  0.4818270000000  0.5144670000000  0.5537710000000 1.0
C      1  0.5031880000000  0.4685140000000  0.5499450000000 1.0
C      1  0.5215640000000  0.5169910000000  0.5557250000000 1.0
C      1  0.4590160000000  0.5507430000000  0.5832240000000 1.0
C      1  0.4784160000000  0.4341170000000  0.5770130000000 1.0
C      1  0.5620910000000  0.5163430000000  0.5789930000000 1.0
C      1  0.4140670000000  0.5255990000000  0.4568170000000 1.0
C      1  0.5260190000000  0.4157070000000  0.4437110000000 1.0
C      1  0.5638870000000  0.5568970000000  0.4617020000000 1.0
C      1  0.4447120000000  0.5244690000000  0.4456320000000 1.0
C      1  0.5037560000000  0.4416930000000  0.4443210000000 1.0
C      1  0.5474130000000  0.5335300000000  0.4467430000000 1.0
C      1  0.4371330000000  0.5763510000000  0.4346360000000 1.0
C      1  0.4652960000000  0.4087420000000  0.4383660000000 1.0
C      1  0.5883480000000  0.5119370000000  0.4487650000000 1.0
C      1  0.4391020000000  0.4550800000000  0.5243270000000 1.0
C      1  0.5635860000000  0.4768460000000  0.5226920000000 1.0
C      1  0.4886110000000  0.5633820000000  0.5255660000000 1.0
C      1  0.4894380000000  0.5253760000000  0.4688030000000 1.0
C      1  0.4840400000000  0.4920230000000  0.4742780000000 1.0
C      1  0.5175690000000  0.4889870000000  0.4726790000000 1.0
C      1  0.5548470000000  0.5865660000000  0.4920590000000 1.0
C      1  0.3966170000000  0.5003060000000  0.4920460000000 1.0
C      1  0.5493010000000  0.4080320000000  0.4892990000000 1.0
C      1  0.5692870000000  0.5495220000000  0.4900160000000 1.0
C      1  0.4137510000000  0.5353170000000  0.4854300000000 1.0
C      1  0.4985650000000  0.4184410000000  0.4973160000000 1.0
C      1  0.5205020000000  0.5597250000000  0.5322310000000 1.0
C      1  0.4437650000000  0.4885980000000  0.5237000000000 1.0
C      1  0.5371230000000  0.4589170000000  0.5279380000000 1.0
C      1  0.4111950000000  0.4580250000000  0.5913090000000 1.0
C      1  0.5896160000000  0.4425970000000  0.5819690000000 1.0
C      1  0.5012760000000  0.6076910000000  0.5834780000000 1.0
C      1  0.4788760000000  0.3797000000000  0.4891510000000 1.0
C      1  0.6152610000000  0.5417480000000  0.4917050000000 1.0
C      1  0.4085260000000  0.5746730000000  0.4901940000000 1.0
C      1  0.5267530000000  0.5003240000000  0.3927230000000 1.0
C      1  0.4857580000000  0.5195910000000  0.3926030000000 1.0
C      1  0.4905830000000  0.4755630000000  0.3917090000000 1.0
C      1  0.4599090000000  0.5324940000000  0.5377100000000 1.0
C      1  0.4939010000000  0.4393190000000  0.5406150000000 1.0
C      1  0.5483770000000  0.5283080000000  0.5405320000000 1.0
C      1  0.5263970000000  0.4872730000000  0.5669350000000 1.0
C      1  0.4999950000000  0.5332840000000  0.5711280000000 1.0
C      1  0.4788630000000  0.4848950000000  0.5637210000000 1.0
C      1  0.5428160000000  0.4687220000000  0.5982660000000 1.0
C      1  0.5085610000000  0.5517720000000  0.6054940000000 1.0
C      1  0.4530320000000  0.4785100000000  0.5946630000000 1.0
C      1  0.5582220000000  0.4425070000000  0.4347940000000 1.0
C      1  0.5231030000000  0.5743910000000  0.4363480000000 1.0
C      1  0.4242760000000  0.4795720000000  0.4371630000000 1.0
C      1  0.5895450000000  0.4697300000000  0.4611390000000 1.0
C      1  0.4803910000000  0.5893780000000  0.4627930000000 1.0
C      1  0.4351500000000  0.4377880000000  0.4645310000000 1.0
C      1  0.5808100000000  0.5733620000000  0.5087690000000 1.0
C      1  0.3934780000000  0.5299220000000  0.5088030000000 1.0
C      1  0.5230370000000  0.4020190000000  0.5101430000000 1.0
C      1  0.5204350000000  0.5455530000000  0.4200510000000 1.0
C      1  0.4501210000000  0.4928840000000  0.4209170000000 1.0
C      1  0.5318100000000  0.4581760000000  0.4210970000000 1.0
C      1  0.5043110000000  0.4967050000000  0.5352140000000 1.0
END
