TITL C-2782229-3092-1375 -0.00084413912552687 125000 -390.266000129291 0 0 65 (C1) n - 1
REM
REM in /home/nfs/bkarasulu/CARBON/AIRSS/Generating-Clusters/REBO/Higher-Symm/SD-CG/HFTN-CG
REM
REM
REM
REM
REM
REM ./C.cell (12c818d87b63d06a65506943cc24bca4)
REM
REM compiler GCC version 9.2.1 20190827 (Red Hat 9.2.1-1)
REM options -cpp -mtune=generic -march=x86-64 -g -O0 -fpre-include=/usr/include/finclude/math-vector-fortran.h
REM seed -1219616677 -2126124201 1980873375 -358908926 -572636280 2079679751 -99623382 989980001 1515499537 672082821 -1369561367 1649205223 -1794516600 -1549664308 1981566904 775867487 -551476613 -1476911557 1438855599 -858134018 1317500809 1459087658 -1704080803 -1246638814 1789113703 803870108 727276440 273812805 260832346 -1245638355 699161629 -1381167297 2034441623
REM
CELL 1.54180   50.00000   50.00000   50.00000   90.00000   90.00000   90.00000
LATT -1
SFAC C  
C      1  0.5487770000000  0.5099760000000  0.5101080000000 1.0
C      1  0.5123920000000  0.5091950000000  0.5499690000000 1.0
C      1  0.5114390000000  0.5485630000000  0.5164640000000 1.0
C      1  0.4550590000000  0.4914930000000  0.5062340000000 1.0
C      1  0.5466600000000  0.4912110000000  0.4892890000000 1.0
C      1  0.4609190000000  0.5053270000000  0.4817860000000 1.0
C      1  0.4890140000000  0.4937200000000  0.5492890000000 1.0
C      1  0.5064460000000  0.4927630000000  0.4570090000000 1.0
C      1  0.5012790000000  0.5212720000000  0.4568980000000 1.0
C      1  0.4905550000000  0.4557900000000  0.5143030000000 1.0
C      1  0.5092300000000  0.4550310000000  0.4935700000000 1.0
C      1  0.4901250000000  0.5496300000000  0.4983180000000 1.0
C      1  0.5518080000000  0.5837990000000  0.5341360000000 1.0
C      1  0.5885900000000  0.5233740000000  0.5477820000000 1.0
C      1  0.5331120000000  0.5429350000000  0.5901470000000 1.0
C      1  0.4505350000000  0.4193550000000  0.5295890000000 1.0
C      1  0.5392960000000  0.4154760000000  0.4644310000000 1.0
C      1  0.4441490000000  0.5630200000000  0.4753770000000 1.0
C      1  0.4129470000000  0.4791190000000  0.5419080000000 1.0
C      1  0.5615570000000  0.4734200000000  0.4395490000000 1.0
C      1  0.4450540000000  0.5061840000000  0.4254530000000 1.0
C      1  0.4659790000000  0.4592640000000  0.5875400000000 1.0
C      1  0.4940310000000  0.4579190000000  0.4269590000000 1.0
C      1  0.4864710000000  0.5668800000000  0.4240290000000 1.0
C      1  0.5654430000000  0.4248910000000  0.4619860000000 1.0
C      1  0.4197770000000  0.4850500000000  0.5681630000000 1.0
C      1  0.4762230000000  0.5879090000000  0.4391630000000 1.0
C      1  0.4316350000000  0.5398450000000  0.4669890000000 1.0
C      1  0.5769470000000  0.5742700000000  0.5271970000000 1.0
C      1  0.4256470000000  0.4285360000000  0.5213270000000 1.0
C      1  0.5803930000000  0.5171260000000  0.5735760000000 1.0
C      1  0.4581770000000  0.5204130000000  0.4054290000000 1.0
C      1  0.5429900000000  0.4726020000000  0.4191250000000 1.0
C      1  0.4922500000000  0.4305390000000  0.4345920000000 1.0
C      1  0.4707300000000  0.4328040000000  0.5803950000000 1.0
C      1  0.5287720000000  0.5695460000000  0.5833600000000 1.0
C      1  0.5651230000000  0.4804620000000  0.4713810000000 1.0
C      1  0.4742630000000  0.4862040000000  0.5714570000000 1.0
C      1  0.4722350000000  0.5694250000000  0.4905820000000 1.0
C      1  0.4586230000000  0.4912510000000  0.4522400000000 1.0
C      1  0.5726360000000  0.5202890000000  0.5196840000000 1.0
C      1  0.4304020000000  0.4824070000000  0.5147390000000 1.0
C      1  0.5258800000000  0.5163060000000  0.5730620000000 1.0
C      1  0.4966840000000  0.5385750000000  0.4361710000000 1.0
C      1  0.4850200000000  0.4779280000000  0.4452580000000 1.0
C      1  0.5168720000000  0.4317090000000  0.4810360000000 1.0
C      1  0.4795760000000  0.4335730000000  0.5266120000000 1.0
C      1  0.5226470000000  0.5704490000000  0.5291600000000 1.0
C      1  0.5307090000000  0.5818040000000  0.5584940000000 1.0
C      1  0.5869710000000  0.5483750000000  0.5274170000000 1.0
C      1  0.5555600000000  0.5201610000000  0.5856220000000 1.0
C      1  0.4701960000000  0.4212260000000  0.5551370000000 1.0
C      1  0.5087790000000  0.4176110000000  0.4531170000000 1.0
C      1  0.4638040000000  0.5862880000000  0.4641620000000 1.0
C      1  0.4153760000000  0.4543720000000  0.5212860000000 1.0
C      1  0.5739290000000  0.4513670000000  0.4594730000000 1.0
C      1  0.4349470000000  0.5160740000000  0.4536700000000 1.0
C      1  0.4437710000000  0.4820040000000  0.5817780000000 1.0
C      1  0.5175930000000  0.4653460000000  0.4127060000000 1.0
C      1  0.4786700000000  0.5390830000000  0.4092000000000 1.0
C      1  0.4867950000000  0.5230650000000  0.4842580000000 1.0
C      1  0.4817490000000  0.4847190000000  0.5207180000000 1.0
C      1  0.5176210000000  0.4830910000000  0.4843880000000 1.0
C      1  0.5209080000000  0.5190510000000  0.5217820000000 1.0
C      1  0.5014830000000  0.5023930000000  0.5031490000000 1.0
END
