TITL C-2782228-2999-1268 -0.00133954676344342 125000 -908.727614606261 0 0 155 (C1) n - 1
REM
REM in /home/nfs/bkarasulu/CARBON/AIRSS/Generating-Clusters/REBO/Higher-Symm/SD-CG/HFTN-CG
REM
REM
REM
REM
REM
REM ./C.cell (12c818d87b63d06a65506943cc24bca4)
REM
REM compiler GCC version 9.2.1 20190827 (Red Hat 9.2.1-1)
REM options -cpp -mtune=generic -march=x86-64 -g -O0 -fpre-include=/usr/include/finclude/math-vector-fortran.h
REM seed -746452431 1368416539 1352449124 -940438780 1232207786 1190834273 365950003 139236196 -388784113 -1920247522 -1102722616 -1897787851 -1520407558 -1091585174 -1132879662 799515411 418245993 1821539773 730038193 -1337687783 -1846452532 -1076636124 -207008149 1902241549 -34033533 -163532122 -2125896491 1556849225 1628934126 1691648877 494074147 -187817235 -699685068
REM
CELL 1.54180   50.00000   50.00000   50.00000   90.00000   90.00000   90.00000
LATT -1
SFAC C  
C      1  0.4186800000000  0.4893950000000  0.4234750000000 1.0
C      1  0.4232750000000  0.5290000000000  0.4223720000000 1.0
C      1  0.4602530000000  0.5667220000000  0.4250910000000 1.0
C      1  0.4993330000000  0.5752430000000  0.4252560000000 1.0
C      1  0.5384510000000  0.5672560000000  0.4273740000000 1.0
C      1  0.5769700000000  0.5313630000000  0.4241830000000 1.0
C      1  0.5837270000000  0.4920660000000  0.4246820000000 1.0
C      1  0.5625830000000  0.4434610000000  0.4220980000000 1.0
C      1  0.5289430000000  0.4219280000000  0.4207050000000 1.0
C      1  0.4760680000000  0.4213910000000  0.4201650000000 1.0
C      1  0.4423070000000  0.4425810000000  0.4225330000000 1.0
C      1  0.5123890000000  0.4195640000000  0.5430150000000 1.0
C      1  0.4678520000000  0.4309020000000  0.5401330000000 1.0
C      1  0.4289450000000  0.4589970000000  0.5458520000000 1.0
C      1  0.4088580000000  0.4981320000000  0.5453850000000 1.0
C      1  0.4308590000000  0.5406000000000  0.5428120000000 1.0
C      1  0.4656420000000  0.5870310000000  0.5459960000000 1.0
C      1  0.5142160000000  0.5910740000000  0.5439340000000 1.0
C      1  0.5557410000000  0.5618550000000  0.5424280000000 1.0
C      1  0.5845380000000  0.5271380000000  0.5451210000000 1.0
C      1  0.5802890000000  0.4766400000000  0.5437510000000 1.0
C      1  0.5612200000000  0.4351740000000  0.5445830000000 1.0
C      1  0.4428230000000  0.4964870000000  0.5444900000000 1.0
C      1  0.4719100000000  0.5128240000000  0.5532570000000 1.0
C      1  0.4836580000000  0.5369180000000  0.5371120000000 1.0
C      1  0.5070950000000  0.5617400000000  0.5387150000000 1.0
C      1  0.5234200000000  0.5387100000000  0.5528620000000 1.0
C      1  0.5509800000000  0.5213050000000  0.5430650000000 1.0
C      1  0.5459210000000  0.4940120000000  0.5568670000000 1.0
C      1  0.5424720000000  0.4631150000000  0.5436890000000 1.0
C      1  0.5156660000000  0.4594590000000  0.5578200000000 1.0
C      1  0.4868290000000  0.4570290000000  0.5466030000000 1.0
C      1  0.4692190000000  0.4790820000000  0.5573860000000 1.0
C      1  0.6079820000000  0.5248890000000  0.4997860000000 1.0
C      1  0.6058320000000  0.4721650000000  0.4969370000000 1.0
C      1  0.5675270000000  0.4163010000000  0.4942330000000 1.0
C      1  0.5165560000000  0.3956940000000  0.4952650000000 1.0
C      1  0.4495900000000  0.4127770000000  0.4950130000000 1.0
C      1  0.3967450000000  0.4396960000000  0.4940610000000 1.0
C      1  0.3862840000000  0.5040680000000  0.4999630000000 1.0
C      1  0.4136120000000  0.5586010000000  0.4980900000000 1.0
C      1  0.4564260000000  0.6023770000000  0.5000650000000 1.0
C      1  0.5228870000000  0.6130620000000  0.4999110000000 1.0
C      1  0.5751070000000  0.5841900000000  0.4995820000000 1.0
C      1  0.5596320000000  0.4899420000000  0.5198670000000 1.0
C      1  0.5372660000000  0.4657580000000  0.5121300000000 1.0
C      1  0.5150140000000  0.4452660000000  0.5207800000000 1.0
C      1  0.4844910000000  0.4559810000000  0.5133090000000 1.0
C      1  0.4540730000000  0.4644870000000  0.5234180000000 1.0
C      1  0.4473120000000  0.4940510000000  0.5112600000000 1.0
C      1  0.4499210000000  0.5259450000000  0.5188930000000 1.0
C      1  0.4766030000000  0.5370830000000  0.5047150000000 1.0
C      1  0.5071220000000  0.5511060000000  0.5081820000000 1.0
C      1  0.5376650000000  0.5482380000000  0.5168440000000 1.0
C      1  0.5498420000000  0.5178310000000  0.5103530000000 1.0
C      1  0.4482320000000  0.4777770000000  0.5911610000000 1.0
C      1  0.4539570000000  0.5052810000000  0.5967870000000 1.0
C      1  0.4584720000000  0.5312570000000  0.5861090000000 1.0
C      1  0.4827800000000  0.5466800000000  0.5810360000000 1.0
C      1  0.5114450000000  0.5395240000000  0.5831620000000 1.0
C      1  0.5424610000000  0.5320470000000  0.5868260000000 1.0
C      1  0.5463610000000  0.5027830000000  0.5873540000000 1.0
C      1  0.5501080000000  0.4714150000000  0.5891660000000 1.0
C      1  0.5236240000000  0.4577210000000  0.5879460000000 1.0
C      1  0.4956830000000  0.4433250000000  0.5878340000000 1.0
C      1  0.4726660000000  0.4605750000000  0.5889520000000 1.0
C      1  0.5142280000000  0.5987270000000  0.5708140000000 1.0
C      1  0.5576220000000  0.5509350000000  0.5690550000000 1.0
C      1  0.5938770000000  0.5347420000000  0.5704330000000 1.0
C      1  0.5725530000000  0.4672490000000  0.5696510000000 1.0
C      1  0.5715150000000  0.4274660000000  0.5692080000000 1.0
C      1  0.4956290000000  0.4216760000000  0.5673130000000 1.0
C      1  0.4677100000000  0.4094610000000  0.5646880000000 1.0
C      1  0.4293930000000  0.4695390000000  0.5707940000000 1.0
C      1  0.3990760000000  0.4977190000000  0.5717670000000 1.0
C      1  0.4372880000000  0.5402920000000  0.5695210000000 1.0
C      1  0.4766950000000  0.5705810000000  0.5658100000000 1.0
C      1  0.5285860000000  0.5490270000000  0.4745660000000 1.0
C      1  0.5468430000000  0.5246500000000  0.4790000000000 1.0
C      1  0.5544640000000  0.4938280000000  0.4760020000000 1.0
C      1  0.5417900000000  0.4659320000000  0.4815700000000 1.0
C      1  0.5166310000000  0.4490900000000  0.4749920000000 1.0
C      1  0.4868690000000  0.4509120000000  0.4824530000000 1.0
C      1  0.4582660000000  0.4610070000000  0.4753290000000 1.0
C      1  0.4471430000000  0.4894500000000  0.4813340000000 1.0
C      1  0.4491600000000  0.5169080000000  0.4673610000000 1.0
C      1  0.4685150000000  0.5403670000000  0.4737130000000 1.0
C      1  0.4978850000000  0.5542630000000  0.4760340000000 1.0
C      1  0.5583840000000  0.5077660000000  0.4080540000000 1.0
C      1  0.5572630000000  0.4752610000000  0.4109460000000 1.0
C      1  0.5330300000000  0.4532380000000  0.4078940000000 1.0
C      1  0.5024140000000  0.4407140000000  0.4099500000000 1.0
C      1  0.4717380000000  0.4532360000000  0.4087710000000 1.0
C      1  0.4461520000000  0.4739970000000  0.4102960000000 1.0
C      1  0.4428750000000  0.5062060000000  0.4062760000000 1.0
C      1  0.4540940000000  0.5367740000000  0.4098860000000 1.0
C      1  0.4837980000000  0.5503350000000  0.4074140000000 1.0
C      1  0.5159210000000  0.5502750000000  0.4086800000000 1.0
C      1  0.5458840000000  0.5378200000000  0.4115650000000 1.0
C      1  0.4753390000000  0.4213600000000  0.4745230000000 1.0
C      1  0.4406790000000  0.4419590000000  0.4692120000000 1.0
C      1  0.4194270000000  0.4807460000000  0.4677570000000 1.0
C      1  0.4204630000000  0.5263830000000  0.4621500000000 1.0
C      1  0.4504750000000  0.5646010000000  0.4639400000000 1.0
C      1  0.4943440000000  0.5838130000000  0.4680580000000 1.0
C      1  0.5413280000000  0.5729170000000  0.4720120000000 1.0
C      1  0.5728920000000  0.5385270000000  0.4671640000000 1.0
C      1  0.5814740000000  0.4915570000000  0.4718950000000 1.0
C      1  0.5653530000000  0.4445150000000  0.4749290000000 1.0
C      1  0.5235940000000  0.4239270000000  0.4679430000000 1.0
C      1  0.4759990000000  0.4152200000000  0.5139560000000 1.0
C      1  0.4115640000000  0.4382750000000  0.5249100000000 1.0
C      1  0.3887060000000  0.4824100000000  0.5225930000000 1.0
C      1  0.4072540000000  0.5458730000000  0.5251500000000 1.0
C      1  0.4513810000000  0.5791950000000  0.5196180000000 1.0
C      1  0.5006540000000  0.6125020000000  0.5219990000000 1.0
C      1  0.5617580000000  0.5875780000000  0.5268910000000 1.0
C      1  0.5877590000000  0.5407600000000  0.5157090000000 1.0
C      1  0.6059030000000  0.4824350000000  0.5275170000000 1.0
C      1  0.5720790000000  0.4418630000000  0.5142480000000 1.0
C      1  0.5283320000000  0.3998340000000  0.5249560000000 1.0
C      1  0.5024520000000  0.4095250000000  0.4346520000000 1.0
C      1  0.4477370000000  0.4127110000000  0.4317870000000 1.0
C      1  0.4221380000000  0.4613410000000  0.4396440000000 1.0
C      1  0.4022320000000  0.5104240000000  0.4394350000000 1.0
C      1  0.4316380000000  0.5554530000000  0.4371110000000 1.0
C      1  0.4739660000000  0.5883170000000  0.4417180000000 1.0
C      1  0.5232460000000  0.5909130000000  0.4413660000000 1.0
C      1  0.5656620000000  0.5576570000000  0.4399810000000 1.0
C      1  0.5991100000000  0.5152550000000  0.4403890000000 1.0
C      1  0.5848780000000  0.4624860000000  0.4366130000000 1.0
C      1  0.5564600000000  0.4150640000000  0.4348280000000 1.0
C      1  0.5014910000000  0.4208720000000  0.5045980000000 1.0
C      1  0.4413720000000  0.4331890000000  0.5187400000000 1.0
C      1  0.3852320000000  0.4557130000000  0.5186710000000 1.0
C      1  0.3948250000000  0.5210000000000  0.5241960000000 1.0
C      1  0.4417540000000  0.5562360000000  0.5080310000000 1.0
C      1  0.4729990000000  0.6118150000000  0.5251830000000 1.0
C      1  0.5384890000000  0.6027250000000  0.5250250000000 1.0
C      1  0.5671270000000  0.5548340000000  0.5048150000000 1.0
C      1  0.6093470000000  0.5104730000000  0.5281080000000 1.0
C      1  0.5765720000000  0.4676840000000  0.5051300000000 1.0
C      1  0.5553210000000  0.4086430000000  0.5240840000000 1.0
C      1  0.4099110000000  0.4489950000000  0.4692500000000 1.0
C      1  0.3974580000000  0.5035930000000  0.4724830000000 1.0
C      1  0.4178760000000  0.5570030000000  0.4682960000000 1.0
C      1  0.4625240000000  0.5932640000000  0.4728290000000 1.0
C      1  0.5219970000000  0.5988060000000  0.4733730000000 1.0
C      1  0.5731890000000  0.5724750000000  0.4695860000000 1.0
C      1  0.5974280000000  0.5188860000000  0.4720560000000 1.0
C      1  0.5906760000000  0.4613120000000  0.4682850000000 1.0
C      1  0.5528780000000  0.4164660000000  0.4644400000000 1.0
C      1  0.4996150000000  0.4038890000000  0.4666690000000 1.0
C      1  0.4464310000000  0.4114470000000  0.4615040000000 1.0
C      1  0.4890970000000  0.5071190000000  0.5774540000000 1.0
END
