TITL C-2782239-8622-915 0.00657065195956065 125000 -846.908209028481 0 0 145 (C1) n - 1
REM
REM in /home/nfs/bkarasulu/CARBON/AIRSS/Generating-Clusters/REBO/Higher-Symm/SD-CG/HFTN-CG
REM
REM
REM
REM
REM
REM ./C.cell (12c818d87b63d06a65506943cc24bca4)
REM
REM compiler GCC version 9.2.1 20190827 (Red Hat 9.2.1-1)
REM options -cpp -mtune=generic -march=x86-64 -g -O0 -fpre-include=/usr/include/finclude/math-vector-fortran.h
REM seed -2133755384 1617021839 -1110599486 -505941936 937141555 -1281526455 -2065233436 -543338901 -411097981 -1531246580 -286271689 1975863780 -2090097510 351059778 1331910315 -810973380 1643189332 1118147331 945803956 1191305545 -1879895741 1475044380 -358522238 469783601 -1050316707 543874477 -1153118898 -1909603789 -80350908 -619184026 -1397971852 -522754285 1628307484
REM
CELL 1.54180   50.00000   50.00000   50.00000   90.00000   90.00000   90.00000
LATT -1
SFAC C  
C      1  0.4876440000000  0.5394040000000  0.4126570000000 1.0
C      1  0.4917120000000  0.5411310000000  0.5868000000000 1.0
C      1  0.4182260000000  0.4607900000000  0.5166020000000 1.0
C      1  0.4181100000000  0.4627950000000  0.4824150000000 1.0
C      1  0.4403730000000  0.4387430000000  0.4916520000000 1.0
C      1  0.4343010000000  0.4309130000000  0.5213980000000 1.0
C      1  0.5491390000000  0.4634560000000  0.4160060000000 1.0
C      1  0.5508870000000  0.4682980000000  0.5818520000000 1.0
C      1  0.5487230000000  0.5381420000000  0.5541980000000 1.0
C      1  0.5549330000000  0.5447960000000  0.4538500000000 1.0
C      1  0.5796130000000  0.5387530000000  0.5411450000000 1.0
C      1  0.5863420000000  0.5401620000000  0.4667080000000 1.0
C      1  0.4734710000000  0.4816340000000  0.5932290000000 1.0
C      1  0.4710260000000  0.4748310000000  0.4039100000000 1.0
C      1  0.5761050000000  0.4410400000000  0.4842360000000 1.0
C      1  0.5756600000000  0.4385330000000  0.5181540000000 1.0
C      1  0.4783420000000  0.4018980000000  0.4622290000000 1.0
C      1  0.4789410000000  0.3991830000000  0.5352330000000 1.0
C      1  0.5047510000000  0.4669680000000  0.5231480000000 1.0
C      1  0.4918670000000  0.4577080000000  0.4683820000000 1.0
C      1  0.5782890000000  0.4785910000000  0.5755890000000 1.0
C      1  0.5773420000000  0.4786040000000  0.4281000000000 1.0
C      1  0.5040850000000  0.5837710000000  0.5539780000000 1.0
C      1  0.5013280000000  0.5830730000000  0.4470960000000 1.0
C      1  0.4699330000000  0.4526060000000  0.4461400000000 1.0
C      1  0.4746780000000  0.4513290000000  0.5440920000000 1.0
C      1  0.4240130000000  0.5286240000000  0.4440720000000 1.0
C      1  0.4258600000000  0.5283730000000  0.5546490000000 1.0
C      1  0.4507220000000  0.4937290000000  0.5716570000000 1.0
C      1  0.4514340000000  0.4951250000000  0.4224840000000 1.0
C      1  0.4677650000000  0.5642060000000  0.4573120000000 1.0
C      1  0.4685600000000  0.5670820000000  0.5471740000000 1.0
C      1  0.4153460000000  0.4758410000000  0.5666520000000 1.0
C      1  0.4118090000000  0.4749470000000  0.4319330000000 1.0
C      1  0.4770170000000  0.4822050000000  0.5534070000000 1.0
C      1  0.4762280000000  0.4837180000000  0.4424000000000 1.0
C      1  0.4230740000000  0.4550790000000  0.5500320000000 1.0
C      1  0.4191840000000  0.4545850000000  0.4493900000000 1.0
C      1  0.4140510000000  0.5004340000000  0.5544970000000 1.0
C      1  0.4108550000000  0.5003970000000  0.4426070000000 1.0
C      1  0.4111510000000  0.4933050000000  0.5242950000000 1.0
C      1  0.4098220000000  0.4946410000000  0.4734980000000 1.0
C      1  0.5513630000000  0.5729880000000  0.4813940000000 1.0
C      1  0.5471330000000  0.5647570000000  0.5112050000000 1.0
C      1  0.5014750000000  0.4682050000000  0.5827150000000 1.0
C      1  0.4955080000000  0.4548740000000  0.4156640000000 1.0
C      1  0.5851120000000  0.5265570000000  0.5698590000000 1.0
C      1  0.5865010000000  0.5264650000000  0.4378460000000 1.0
C      1  0.4009170000000  0.5237730000000  0.4859790000000 1.0
C      1  0.4034530000000  0.5233860000000  0.5134140000000 1.0
C      1  0.5164370000000  0.4971020000000  0.4582990000000 1.0
C      1  0.5269830000000  0.4937440000000  0.5466990000000 1.0
C      1  0.4559490000000  0.4219840000000  0.4676970000000 1.0
C      1  0.4538730000000  0.4136080000000  0.5377690000000 1.0
C      1  0.4468050000000  0.4896260000000  0.4560140000000 1.0
C      1  0.4474870000000  0.4852460000000  0.5386480000000 1.0
C      1  0.5590030000000  0.4690590000000  0.4539000000000 1.0
C      1  0.5691190000000  0.4658890000000  0.5465730000000 1.0
C      1  0.5937350000000  0.4989740000000  0.4404240000000 1.0
C      1  0.5954340000000  0.4999120000000  0.5665610000000 1.0
C      1  0.4721830000000  0.4513260000000  0.5782070000000 1.0
C      1  0.4630630000000  0.4435920000000  0.4149600000000 1.0
C      1  0.4572570000000  0.4700680000000  0.5097310000000 1.0
C      1  0.4561130000000  0.4748700000000  0.4853020000000 1.0
C      1  0.4854870000000  0.5689460000000  0.5715300000000 1.0
C      1  0.4830910000000  0.5663400000000  0.4308520000000 1.0
C      1  0.5985970000000  0.4926790000000  0.4684250000000 1.0
C      1  0.6030940000000  0.4938470000000  0.5386540000000 1.0
C      1  0.5358260000000  0.5352330000000  0.5132800000000 1.0
C      1  0.5346660000000  0.5386830000000  0.4796710000000 1.0
C      1  0.4888740000000  0.5943270000000  0.4728240000000 1.0
C      1  0.4906680000000  0.5941420000000  0.5280160000000 1.0
C      1  0.5406170000000  0.4623780000000  0.4884930000000 1.0
C      1  0.5354330000000  0.4629320000000  0.5174530000000 1.0
C      1  0.4574790000000  0.5310970000000  0.4380770000000 1.0
C      1  0.4589200000000  0.5309680000000  0.5606450000000 1.0
C      1  0.4390790000000  0.5053550000000  0.5120780000000 1.0
C      1  0.4379930000000  0.5098750000000  0.4820100000000 1.0
C      1  0.5182830000000  0.5787600000000  0.5172370000000 1.0
C      1  0.5182580000000  0.5802210000000  0.4830270000000 1.0
C      1  0.5706920000000  0.5661310000000  0.5278040000000 1.0
C      1  0.5782780000000  0.5704110000000  0.4734870000000 1.0
C      1  0.5434090000000  0.5467110000000  0.5929060000000 1.0
C      1  0.5393700000000  0.5410220000000  0.4084350000000 1.0
C      1  0.4366420000000  0.5684570000000  0.4820340000000 1.0
C      1  0.4395330000000  0.5681860000000  0.5159460000000 1.0
C      1  0.5684310000000  0.5364750000000  0.5901170000000 1.0
C      1  0.5621670000000  0.5346650000000  0.4232740000000 1.0
C      1  0.5278930000000  0.4144570000000  0.5148030000000 1.0
C      1  0.5312040000000  0.4123930000000  0.4864910000000 1.0
C      1  0.5180650000000  0.5502540000000  0.4233830000000 1.0
C      1  0.5213740000000  0.5537640000000  0.5784040000000 1.0
C      1  0.4396320000000  0.5587600000000  0.4451830000000 1.0
C      1  0.4405960000000  0.5588830000000  0.5546560000000 1.0
C      1  0.5293250000000  0.4871590000000  0.5858360000000 1.0
C      1  0.5178200000000  0.4770390000000  0.4134720000000 1.0
C      1  0.5425200000000  0.4473510000000  0.5572500000000 1.0
C      1  0.5384170000000  0.4451020000000  0.4429860000000 1.0
C      1  0.4720680000000  0.5095310000000  0.5189840000000 1.0
C      1  0.4699040000000  0.5157040000000  0.4751930000000 1.0
C      1  0.5090260000000  0.5363740000000  0.5271150000000 1.0
C      1  0.5058830000000  0.5389780000000  0.4701460000000 1.0
C      1  0.5102990000000  0.4002790000000  0.4716500000000 1.0
C      1  0.5004350000000  0.4145730000000  0.5238460000000 1.0
C      1  0.5916780000000  0.5164620000000  0.5205420000000 1.0
C      1  0.5873900000000  0.5157250000000  0.4877170000000 1.0
C      1  0.4573340000000  0.5246820000000  0.4066790000000 1.0
C      1  0.4644350000000  0.5200700000000  0.5892490000000 1.0
C      1  0.5600110000000  0.5118560000000  0.5167130000000 1.0
C      1  0.5542000000000  0.5135450000000  0.4853510000000 1.0
C      1  0.4917110000000  0.4902640000000  0.5077690000000 1.0
C      1  0.4921770000000  0.4897290000000  0.4764800000000 1.0
C      1  0.5476020000000  0.4356850000000  0.4729970000000 1.0
C      1  0.5472320000000  0.4349790000000  0.5281470000000 1.0
C      1  0.5016270000000  0.4132130000000  0.4440710000000 1.0
C      1  0.4818390000000  0.3733980000000  0.5432930000000 1.0
C      1  0.5428480000000  0.4894300000000  0.4740030000000 1.0
C      1  0.5509820000000  0.4872070000000  0.5301640000000 1.0
C      1  0.5360380000000  0.5157450000000  0.5686890000000 1.0
C      1  0.5401960000000  0.4908680000000  0.4345690000000 1.0
C      1  0.4558080000000  0.5394000000000  0.5217440000000 1.0
C      1  0.4573020000000  0.5436560000000  0.4899020000000 1.0
C      1  0.5283210000000  0.5667930000000  0.4521970000000 1.0
C      1  0.5290660000000  0.5645910000000  0.5468500000000 1.0
C      1  0.5964670000000  0.4632530000000  0.5304870000000 1.0
C      1  0.5978680000000  0.4657950000000  0.4754710000000 1.0
C      1  0.4860160000000  0.5567820000000  0.4851620000000 1.0
C      1  0.4845280000000  0.5557100000000  0.5191670000000 1.0
C      1  0.4839940000000  0.5062440000000  0.4022330000000 1.0
C      1  0.4956540000000  0.5076540000000  0.5919400000000 1.0
C      1  0.4144510000000  0.5450850000000  0.4711340000000 1.0
C      1  0.4169930000000  0.5453790000000  0.5277700000000 1.0
C      1  0.4630700000000  0.5900370000000  0.4865490000000 1.0
C      1  0.4648400000000  0.5913400000000  0.5161720000000 1.0
C      1  0.4840590000000  0.5232520000000  0.5446650000000 1.0
C      1  0.4877000000000  0.5232420000000  0.4490930000000 1.0
C      1  0.5039180000000  0.5053040000000  0.4276530000000 1.0
C      1  0.4997340000000  0.5012660000000  0.5604020000000 1.0
C      1  0.5160260000000  0.4651050000000  0.5552600000000 1.0
C      1  0.5082100000000  0.4426540000000  0.4422570000000 1.0
C      1  0.4873260000000  0.4410950000000  0.5174430000000 1.0
C      1  0.4746270000000  0.4399540000000  0.4899690000000 1.0
C      1  0.4425000000000  0.4365040000000  0.4414460000000 1.0
C      1  0.4476430000000  0.4389560000000  0.5580610000000 1.0
C      1  0.6041670000000  0.4486530000000  0.5025250000000 1.0
END
