TITL C-2782238-9940-440 -0.000468893823698212 125000 -425.43662567816 0 0 75 (C1) n - 1
REM
REM in /home/nfs/bkarasulu/CARBON/AIRSS/Generating-Clusters/REBO/Higher-Symm/SD-CG/HFTN-CG
REM
REM
REM
REM
REM
REM ./C.cell (12c818d87b63d06a65506943cc24bca4)
REM
REM compiler GCC version 9.2.1 20190827 (Red Hat 9.2.1-1)
REM options -cpp -mtune=generic -march=x86-64 -g -O0 -fpre-include=/usr/include/finclude/math-vector-fortran.h
REM seed -1423571071 63426113 -387056000 -526679853 -1519318292 1660180780 -1552418016 1548013412 -28129012 -1491390745 -1601922549 834891528 1939139823 1921685361 1924722745 -378247927 -1477137948 84437400 -315176277 -1964709662 1546722151 1971071930 -576878788 908899515 -1305132192 -312578009 -1348077271 -843256918 798172502 149411169 -1611625539 -217104740 -46714549
REM
CELL 1.54180   50.00000   50.00000   50.00000   90.00000   90.00000   90.00000
LATT -1
SFAC C  
C      1  0.5719130000000  0.5914280000000  0.4833360000000 1.0
C      1  0.4426050000000  0.5850450000000  0.4453360000000 1.0
C      1  0.4840110000000  0.5867160000000  0.5792490000000 1.0
C      1  0.4964590000000  0.4943450000000  0.5293240000000 1.0
C      1  0.5290510000000  0.4887080000000  0.4834030000000 1.0
C      1  0.4738600000000  0.4909980000000  0.4825370000000 1.0
C      1  0.5638460000000  0.5682130000000  0.4905070000000 1.0
C      1  0.4552060000000  0.5629130000000  0.4478510000000 1.0
C      1  0.4803150000000  0.5643470000000  0.5673640000000 1.0
C      1  0.4978790000000  0.4663180000000  0.5552090000000 1.0
C      1  0.5478150000000  0.4627500000000  0.4735670000000 1.0
C      1  0.4510300000000  0.4633060000000  0.4696550000000 1.0
C      1  0.4722950000000  0.4840950000000  0.5117810000000 1.0
C      1  0.5236940000000  0.4864450000000  0.5158940000000 1.0
C      1  0.5021400000000  0.4849640000000  0.4690820000000 1.0
C      1  0.4464180000000  0.4964720000000  0.5237940000000 1.0
C      1  0.5451300000000  0.4996660000000  0.5348180000000 1.0
C      1  0.5088580000000  0.5000780000000  0.4432160000000 1.0
C      1  0.5731650000000  0.5175100000000  0.5270710000000 1.0
C      1  0.4867410000000  0.5144750000000  0.4217460000000 1.0
C      1  0.4411100000000  0.5166610000000  0.5507410000000 1.0
C      1  0.5526350000000  0.5045210000000  0.4687480000000 1.0
C      1  0.4461200000000  0.4969110000000  0.4673810000000 1.0
C      1  0.4993240000000  0.4988020000000  0.5621880000000 1.0
C      1  0.5419450000000  0.5312040000000  0.4244470000000 1.0
C      1  0.4269600000000  0.5338310000000  0.4983100000000 1.0
C      1  0.5402810000000  0.5319000000000  0.5723180000000 1.0
C      1  0.4901250000000  0.4554300000000  0.4789750000000 1.0
C      1  0.4854190000000  0.4561940000000  0.5186510000000 1.0
C      1  0.5220690000000  0.4549940000000  0.5030170000000 1.0
C      1  0.3959380000000  0.4877160000000  0.5220560000000 1.0
C      1  0.5720370000000  0.4835430000000  0.5761890000000 1.0
C      1  0.5324500000000  0.4837600000000  0.3997620000000 1.0
C      1  0.4954170000000  0.4438630000000  0.4412840000000 1.0
C      1  0.4497700000000  0.4464450000000  0.5333060000000 1.0
C      1  0.5529110000000  0.4471930000000  0.5267600000000 1.0
C      1  0.5264360000000  0.5082310000000  0.5725660000000 1.0
C      1  0.5494070000000  0.5089650000000  0.4409560000000 1.0
C      1  0.4260660000000  0.5091540000000  0.4865610000000 1.0
C      1  0.5232330000000  0.4350740000000  0.4878890000000 1.0
C      1  0.4754090000000  0.4362270000000  0.4856260000000 1.0
C      1  0.4976560000000  0.4367240000000  0.5286710000000 1.0
C      1  0.5108720000000  0.5414930000000  0.4829620000000 1.0
C      1  0.4799150000000  0.5348540000000  0.4954980000000 1.0
C      1  0.5058800000000  0.5387300000000  0.5171100000000 1.0
C      1  0.4642080000000  0.4624360000000  0.5519000000000 1.0
C      1  0.5611310000000  0.4633740000000  0.5045580000000 1.0
C      1  0.4725750000000  0.4602490000000  0.4434120000000 1.0
C      1  0.5386350000000  0.5470390000000  0.4958550000000 1.0
C      1  0.4749130000000  0.5429200000000  0.4658080000000 1.0
C      1  0.4883570000000  0.5432810000000  0.5429920000000 1.0
C      1  0.5237210000000  0.4419400000000  0.4568030000000 1.0
C      1  0.4494360000000  0.4443550000000  0.5009490000000 1.0
C      1  0.5244750000000  0.4447460000000  0.5424020000000 1.0
C      1  0.4704070000000  0.5217960000000  0.5242490000000 1.0
C      1  0.5358410000000  0.5307710000000  0.5238210000000 1.0
C      1  0.5033290000000  0.5323820000000  0.4532110000000 1.0
C      1  0.4641350000000  0.5356210000000  0.5651800000000 1.0
C      1  0.5708240000000  0.5377270000000  0.5010970000000 1.0
C      1  0.4637940000000  0.5334110000000  0.4357360000000 1.0
C      1  0.4716090000000  0.4842850000000  0.4276180000000 1.0
C      1  0.4518560000000  0.4862590000000  0.5620830000000 1.0
C      1  0.5739060000000  0.4881920000000  0.5095280000000 1.0
C      1  0.4253650000000  0.4621430000000  0.4910440000000 1.0
C      1  0.5279690000000  0.4620020000000  0.5682930000000 1.0
C      1  0.5449500000000  0.4604110000000  0.4412670000000 1.0
C      1  0.5146800000000  0.5340520000000  0.4230440000000 1.0
C      1  0.4391470000000  0.5355460000000  0.5224870000000 1.0
C      1  0.5548760000000  0.5355110000000  0.5495670000000 1.0
C      1  0.4722580000000  0.5064450000000  0.5731330000000 1.0
C      1  0.5726260000000  0.5094530000000  0.4880240000000 1.0
C      1  0.4521860000000  0.5048730000000  0.4390010000000 1.0
C      1  0.4199560000000  0.4870190000000  0.5079730000000 1.0
C      1  0.5468230000000  0.4855650000000  0.5646690000000 1.0
C      1  0.5341930000000  0.4849820000000  0.4275820000000 1.0
END
