TITL C-2782233-7966-976 0.000206508529617612 125000 -248.766810432175 0 0 44 (C1) n - 1
REM
REM in /home/nfs/bkarasulu/CARBON/AIRSS/Generating-Clusters/REBO/Higher-Symm/SD-CG/HFTN-CG
REM
REM
REM
REM
REM
REM ./C.cell (12c818d87b63d06a65506943cc24bca4)
REM
REM compiler GCC version 9.2.1 20190827 (Red Hat 9.2.1-1)
REM options -cpp -mtune=generic -march=x86-64 -g -O0 -fpre-include=/usr/include/finclude/math-vector-fortran.h
REM seed 1152731895 -1787038844 164928832 1846875656 -2011571227 429475592 21510459 -393414188 -353166706 -235940816 -701248525 1572511221 -1040152267 -1354919492 -1971575663 -27896437 -37916014 146074705 1821775929 -837431577 -1505681791 -1195863718 -38101803 -946080011 -773684291 2027480873 -637973232 -1229210815 647695764 -1938526094 2108485670 -243704818 -1148738509
REM
CELL 1.54180   50.00000   50.00000   50.00000   90.00000   90.00000   90.00000
LATT -1
SFAC C  
C      1  0.4844770000000  0.5325020000000  0.5708310000000 1.0
C      1  0.4842290000000  0.4636750000000  0.5687600000000 1.0
C      1  0.5430320000000  0.5387340000000  0.5248530000000 1.0
C      1  0.5434260000000  0.4688700000000  0.5274880000000 1.0
C      1  0.4911190000000  0.4466100000000  0.5213050000000 1.0
C      1  0.4924660000000  0.5538480000000  0.5266120000000 1.0
C      1  0.4719050000000  0.5141950000000  0.4944470000000 1.0
C      1  0.4661190000000  0.4818120000000  0.4958280000000 1.0
C      1  0.4678700000000  0.4570590000000  0.4644640000000 1.0
C      1  0.4730580000000  0.5431750000000  0.4652780000000 1.0
C      1  0.4932730000000  0.4843680000000  0.4789100000000 1.0
C      1  0.4978920000000  0.5131470000000  0.4742780000000 1.0
C      1  0.4929930000000  0.5558470000000  0.5582510000000 1.0
C      1  0.4907720000000  0.4413060000000  0.5534040000000 1.0
C      1  0.5217010000000  0.4556100000000  0.5124990000000 1.0
C      1  0.5210940000000  0.5526470000000  0.5135750000000 1.0
C      1  0.5373610000000  0.4905940000000  0.5444590000000 1.0
C      1  0.5380620000000  0.5178280000000  0.5434330000000 1.0
C      1  0.4388310000000  0.4630570000000  0.5181350000000 1.0
C      1  0.4416750000000  0.5436190000000  0.5206660000000 1.0
C      1  0.5426840000000  0.4811600000000  0.4702340000000 1.0
C      1  0.5451400000000  0.5123040000000  0.4687250000000 1.0
C      1  0.5091140000000  0.4363300000000  0.4874810000000 1.0
C      1  0.5185220000000  0.5530340000000  0.4838350000000 1.0
C      1  0.4637600000000  0.4874620000000  0.4516620000000 1.0
C      1  0.4645950000000  0.5144880000000  0.4507850000000 1.0
C      1  0.5083850000000  0.4855770000000  0.4286870000000 1.0
C      1  0.5088420000000  0.5133020000000  0.4270700000000 1.0
C      1  0.4471320000000  0.4538080000000  0.4899480000000 1.0
C      1  0.4554890000000  0.5441610000000  0.4931720000000 1.0
C      1  0.4885890000000  0.4706410000000  0.4416450000000 1.0
C      1  0.4896340000000  0.5299280000000  0.4389810000000 1.0
C      1  0.4773150000000  0.4381850000000  0.4912020000000 1.0
C      1  0.4871000000000  0.5571080000000  0.4930610000000 1.0
C      1  0.5698350000000  0.5177670000000  0.4873950000000 1.0
C      1  0.5676570000000  0.4860810000000  0.4884780000000 1.0
C      1  0.4698530000000  0.4713220000000  0.5264300000000 1.0
C      1  0.4716300000000  0.5278560000000  0.5256090000000 1.0
C      1  0.5183690000000  0.4675000000000  0.4809620000000 1.0
C      1  0.5212480000000  0.5278730000000  0.4707590000000 1.0
C      1  0.4748560000000  0.5128150000000  0.5523280000000 1.0
C      1  0.4747100000000  0.4855300000000  0.5525850000000 1.0
C      1  0.5677510000000  0.4712560000000  0.5127980000000 1.0
C      1  0.5664370000000  0.5360080000000  0.5086930000000 1.0
END
