TITL C-2782235-7892-394 0.000610210165989877 125000 -112.480250439528 0 0 21 (Cs) n - 1
REM
REM in /home/nfs/bkarasulu/CARBON/AIRSS/Generating-Clusters/REBO/Higher-Symm/SD-CG/HFTN-CG
REM
REM
REM
REM
REM
REM ./C.cell (12c818d87b63d06a65506943cc24bca4)
REM
REM compiler GCC version 9.2.1 20190827 (Red Hat 9.2.1-1)
REM options -cpp -mtune=generic -march=x86-64 -g -O0 -fpre-include=/usr/include/finclude/math-vector-fortran.h
REM seed -776856542 -1332761398 1423353181 -1819675154 1371621636 -177369851 -260651972 439184065 -231825278 -740571050 -659284973 -276373467 293674411 665539633 695325784 834264397 478737809 -1168496967 1523257034 -906205947 1674999299 40162155 1934063053 980106240 52265884 -71511688 -204556181 1801857697 155603341 -179174444 -474829757 2128395408 1566776346
REM
CELL 1.54180   50.00000   50.00000   50.00000   90.00000   90.00000   90.00000
LATT -1
SFAC C  
C      1  0.4738650000000  0.4810320000000  0.5474550000000 1.0
C      1  0.5246050000000  0.5153570000000  0.5443850000000 1.0
C      1  0.5257880000000  0.4821750000000  0.5470840000000 1.0
C      1  0.4735490000000  0.5142330000000  0.5447500000000 1.0
C      1  0.5258390000000  0.4831940000000  0.4679510000000 1.0
C      1  0.4718680000000  0.5147410000000  0.4656570000000 1.0
C      1  0.4726400000000  0.4820230000000  0.4683310000000 1.0
C      1  0.5251320000000  0.5159130000000  0.4652760000000 1.0
C      1  0.4837860000000  0.5271300000000  0.4890660000000 1.0
C      1  0.5142490000000  0.4745120000000  0.4928780000000 1.0
C      1  0.5130160000000  0.5277730000000  0.4888570000000 1.0
C      1  0.4849550000000  0.4738670000000  0.4930880000000 1.0
C      1  0.4727690000000  0.4860980000000  0.5166510000000 1.0
C      1  0.5251540000000  0.5190750000000  0.5135660000000 1.0
C      1  0.5262210000000  0.4872740000000  0.5162690000000 1.0
C      1  0.4723960000000  0.5179140000000  0.5139430000000 1.0
C      1  0.5320990000000  0.5181140000000  0.4341260000000 1.0
C      1  0.4653600000000  0.4863860000000  0.4385870000000 1.0
C      1  0.4643660000000  0.5166230000000  0.4346100000000 1.0
C      1  0.5324930000000  0.4878640000000  0.4381070000000 1.0
C      1  0.4995430000000  0.4987770000000  0.5603720000000 1.0
END
