TITL C-2782235-7892-920 -0.00418247607132654 125000 -997.827621976907 0 0 172 (C1) n - 1
REM
REM in /home/nfs/bkarasulu/CARBON/AIRSS/Generating-Clusters/REBO/Higher-Symm/SD-CG/HFTN-CG
REM
REM
REM
REM
REM
REM ./C.cell (12c818d87b63d06a65506943cc24bca4)
REM
REM compiler GCC version 9.2.1 20190827 (Red Hat 9.2.1-1)
REM options -cpp -mtune=generic -march=x86-64 -g -O0 -fpre-include=/usr/include/finclude/math-vector-fortran.h
REM seed -1753509813 1651073018 -59655628 1224074544 2097272212 541549946 -1060498509 655775710 1166999788 -138087573 192555162 -543770792 -104377499 -1926228660 -1522958879 -571406887 -714386650 575406836 365167493 1018710165 -1149350875 14844279 -171884410 -628486070 1626343206 1299180350 447697679 -190004920 -139642469 1926846436 -112971074 430656740 1484536673
REM
CELL 1.54180   50.00000   50.00000   50.00000   90.00000   90.00000   90.00000
LATT -1
SFAC C  
C      1  0.4533270000000  0.4434510000000  0.5781590000000 1.0
C      1  0.5459310000000  0.4467430000000  0.4244480000000 1.0
C      1  0.5430410000000  0.4486180000000  0.5720430000000 1.0
C      1  0.4553330000000  0.4443770000000  0.4237090000000 1.0
C      1  0.4870860000000  0.4483380000000  0.4471180000000 1.0
C      1  0.5061750000000  0.4455860000000  0.5572530000000 1.0
C      1  0.5184650000000  0.4511980000000  0.4530210000000 1.0
C      1  0.4793130000000  0.4638230000000  0.5563990000000 1.0
C      1  0.4809040000000  0.5475480000000  0.5951690000000 1.0
C      1  0.5140280000000  0.5461300000000  0.4078420000000 1.0
C      1  0.5118730000000  0.5518530000000  0.5950180000000 1.0
C      1  0.4826970000000  0.5476600000000  0.4078500000000 1.0
C      1  0.5149380000000  0.4002150000000  0.4581450000000 1.0
C      1  0.4882660000000  0.4010120000000  0.5399900000000 1.0
C      1  0.4867010000000  0.3976180000000  0.4590580000000 1.0
C      1  0.5162930000000  0.4009850000000  0.5381460000000 1.0
C      1  0.4397300000000  0.5613610000000  0.4375270000000 1.0
C      1  0.5610770000000  0.5645310000000  0.5664240000000 1.0
C      1  0.5638600000000  0.5629850000000  0.4346050000000 1.0
C      1  0.4329250000000  0.5655160000000  0.5677540000000 1.0
C      1  0.5471880000000  0.5412600000000  0.4144200000000 1.0
C      1  0.4485590000000  0.5415380000000  0.5853410000000 1.0
C      1  0.4504000000000  0.5437460000000  0.4181060000000 1.0
C      1  0.5432360000000  0.5441560000000  0.5852990000000 1.0
C      1  0.4808300000000  0.5372210000000  0.5520260000000 1.0
C      1  0.5115810000000  0.5395480000000  0.4472170000000 1.0
C      1  0.5135520000000  0.5436670000000  0.5533450000000 1.0
C      1  0.4775610000000  0.5435510000000  0.4472720000000 1.0
C      1  0.5543750000000  0.4665340000000  0.5452820000000 1.0
C      1  0.4556200000000  0.4599920000000  0.4541540000000 1.0
C      1  0.4492210000000  0.4600370000000  0.5481400000000 1.0
C      1  0.5483450000000  0.4659670000000  0.4519040000000 1.0
C      1  0.5620690000000  0.4500280000000  0.4794250000000 1.0
C      1  0.4386920000000  0.4481100000000  0.5174230000000 1.0
C      1  0.4412920000000  0.4480700000000  0.4832110000000 1.0
C      1  0.5608210000000  0.4514680000000  0.5137300000000 1.0
C      1  0.5393850000000  0.4960970000000  0.5537930000000 1.0
C      1  0.4598480000000  0.4931430000000  0.4469110000000 1.0
C      1  0.4525360000000  0.4932880000000  0.5552000000000 1.0
C      1  0.5430190000000  0.4964320000000  0.4422070000000 1.0
C      1  0.5620770000000  0.5164780000000  0.4221790000000 1.0
C      1  0.4363890000000  0.5161360000000  0.5752470000000 1.0
C      1  0.4330650000000  0.5209070000000  0.4210640000000 1.0
C      1  0.5509910000000  0.5169400000000  0.5788820000000 1.0
C      1  0.4489630000000  0.5478050000000  0.5157170000000 1.0
C      1  0.5539060000000  0.5454940000000  0.4825140000000 1.0
C      1  0.5481470000000  0.5452700000000  0.5151990000000 1.0
C      1  0.4565820000000  0.5452720000000  0.4825640000000 1.0
C      1  0.5129780000000  0.4745750000000  0.5742010000000 1.0
C      1  0.4819130000000  0.4755540000000  0.4285730000000 1.0
C      1  0.4876250000000  0.4598490000000  0.5893750000000 1.0
C      1  0.5123880000000  0.4680740000000  0.4237840000000 1.0
C      1  0.5288000000000  0.4652600000000  0.4944110000000 1.0
C      1  0.4742440000000  0.4654370000000  0.5169380000000 1.0
C      1  0.4795700000000  0.4586040000000  0.4859200000000 1.0
C      1  0.5224160000000  0.4729410000000  0.5236420000000 1.0
C      1  0.5339110000000  0.4175030000000  0.4370790000000 1.0
C      1  0.4679640000000  0.4189780000000  0.5593420000000 1.0
C      1  0.4640290000000  0.4164000000000  0.4417460000000 1.0
C      1  0.5357490000000  0.4188200000000  0.5572210000000 1.0
C      1  0.4576830000000  0.5944890000000  0.5274940000000 1.0
C      1  0.5528040000000  0.5940420000000  0.4773110000000 1.0
C      1  0.5475800000000  0.5906030000000  0.5267820000000 1.0
C      1  0.4591330000000  0.5937880000000  0.4794320000000 1.0
C      1  0.5230360000000  0.5470160000000  0.4842530000000 1.0
C      1  0.4802620000000  0.5492460000000  0.5144010000000 1.0
C      1  0.4905820000000  0.5478530000000  0.4836440000000 1.0
C      1  0.5142010000000  0.5496420000000  0.5155620000000 1.0
C      1  0.4359060000000  0.5766250000000  0.5193040000000 1.0
C      1  0.5717190000000  0.5725910000000  0.4850410000000 1.0
C      1  0.5680190000000  0.5703370000000  0.5187800000000 1.0
C      1  0.4390290000000  0.5731860000000  0.4866090000000 1.0
C      1  0.6072540000000  0.4717970000000  0.4791670000000 1.0
C      1  0.3968870000000  0.4762750000000  0.5112010000000 1.0
C      1  0.3962610000000  0.4701670000000  0.4825950000000 1.0
C      1  0.6047330000000  0.4764450000000  0.5083300000000 1.0
C      1  0.4830280000000  0.5708470000000  0.5474280000000 1.0
C      1  0.5142290000000  0.5728250000000  0.4552720000000 1.0
C      1  0.5147960000000  0.5768190000000  0.5452820000000 1.0
C      1  0.4824880000000  0.5756880000000  0.4531270000000 1.0
C      1  0.5407880000000  0.5283200000000  0.5421750000000 1.0
C      1  0.4512690000000  0.5243280000000  0.4570560000000 1.0
C      1  0.4532550000000  0.5233990000000  0.5390480000000 1.0
C      1  0.5429210000000  0.5282420000000  0.4552410000000 1.0
C      1  0.5518970000000  0.4884720000000  0.4845350000000 1.0
C      1  0.4491850000000  0.4883720000000  0.5161320000000 1.0
C      1  0.4582620000000  0.4840510000000  0.4854940000000 1.0
C      1  0.5438140000000  0.4965490000000  0.5142270000000 1.0
C      1  0.4902310000000  0.5878310000000  0.4843390000000 1.0
C      1  0.5196050000000  0.5892130000000  0.5139190000000 1.0
C      1  0.5243150000000  0.5887530000000  0.4812440000000 1.0
C      1  0.4864890000000  0.5883510000000  0.5183700000000 1.0
C      1  0.4818750000000  0.5151180000000  0.4781040000000 1.0
C      1  0.5213610000000  0.5164280000000  0.5097240000000 1.0
C      1  0.5135570000000  0.5155940000000  0.4787790000000 1.0
C      1  0.4897280000000  0.5184890000000  0.5106360000000 1.0
C      1  0.4142330000000  0.5284170000000  0.4430590000000 1.0
C      1  0.5800610000000  0.5215730000000  0.5640740000000 1.0
C      1  0.5854510000000  0.5270860000000  0.4402470000000 1.0
C      1  0.4145250000000  0.5285350000000  0.5569140000000 1.0
C      1  0.5383580000000  0.4721660000000  0.4028490000000 1.0
C      1  0.4578000000000  0.4707360000000  0.5987450000000 1.0
C      1  0.4559600000000  0.4741170000000  0.4078760000000 1.0
C      1  0.5414090000000  0.4778490000000  0.5897350000000 1.0
C      1  0.5223280000000  0.4379510000000  0.4816100000000 1.0
C      1  0.4898210000000  0.4358600000000  0.5169170000000 1.0
C      1  0.4930770000000  0.4303610000000  0.4860070000000 1.0
C      1  0.5167320000000  0.4424030000000  0.5298270000000 1.0
C      1  0.5308940000000  0.5681870000000  0.4278820000000 1.0
C      1  0.4660440000000  0.5679490000000  0.5727980000000 1.0
C      1  0.4743190000000  0.5753720000000  0.4235840000000 1.0
C      1  0.5291470000000  0.5732960000000  0.5745130000000 1.0
C      1  0.4216810000000  0.5533700000000  0.4650640000000 1.0
C      1  0.5775580000000  0.5486190000000  0.5434820000000 1.0
C      1  0.5844120000000  0.5547320000000  0.4589680000000 1.0
C      1  0.4187690000000  0.5577430000000  0.5399600000000 1.0
C      1  0.5154170000000  0.5108040000000  0.4323000000000 1.0
C      1  0.4792310000000  0.5078970000000  0.5651910000000 1.0
C      1  0.4825500000000  0.5150260000000  0.4340440000000 1.0
C      1  0.5128130000000  0.5136540000000  0.5663890000000 1.0
C      1  0.4301140000000  0.4839660000000  0.5847750000000 1.0
C      1  0.5669360000000  0.4845930000000  0.4130860000000 1.0
C      1  0.5707840000000  0.4905380000000  0.5776020000000 1.0
C      1  0.4323080000000  0.4913110000000  0.4183810000000 1.0
C      1  0.6134730000000  0.5046890000000  0.4815760000000 1.0
C      1  0.3899130000000  0.5076370000000  0.5159710000000 1.0
C      1  0.3891650000000  0.5026730000000  0.4822700000000 1.0
C      1  0.6062060000000  0.5083430000000  0.5147410000000 1.0
C      1  0.4174580000000  0.4624060000000  0.4656350000000 1.0
C      1  0.5883160000000  0.4611970000000  0.5253340000000 1.0
C      1  0.5867340000000  0.4620970000000  0.4628930000000 1.0
C      1  0.4140050000000  0.4649690000000  0.5303510000000 1.0
C      1  0.4839480000000  0.4282530000000  0.5856310000000 1.0
C      1  0.5147010000000  0.4348640000000  0.4167840000000 1.0
C      1  0.5175070000000  0.4285190000000  0.5834220000000 1.0
C      1  0.4848560000000  0.4282490000000  0.4188890000000 1.0
C      1  0.5668480000000  0.5098180000000  0.4710400000000 1.0
C      1  0.4296160000000  0.5131460000000  0.5168370000000 1.0
C      1  0.4385890000000  0.5096010000000  0.4840950000000 1.0
C      1  0.5671740000000  0.5124490000000  0.5276080000000 1.0
C      1  0.5471410000000  0.4219360000000  0.4673130000000 1.0
C      1  0.4604650000000  0.4270450000000  0.5285230000000 1.0
C      1  0.4619350000000  0.4252950000000  0.4728830000000 1.0
C      1  0.5436080000000  0.4268090000000  0.5250720000000 1.0
C      1  0.5213830000000  0.5138740000000  0.4009460000000 1.0
C      1  0.4764090000000  0.5153880000000  0.5957600000000 1.0
C      1  0.4738360000000  0.5152530000000  0.4028300000000 1.0
C      1  0.5160960000000  0.5181330000000  0.5979390000000 1.0
C      1  0.4010820000000  0.5061420000000  0.5463170000000 1.0
C      1  0.5942480000000  0.5005050000000  0.4546510000000 1.0
C      1  0.5928220000000  0.4991580000000  0.5444960000000 1.0
C      1  0.4030640000000  0.5050080000000  0.4533970000000 1.0
C      1  0.4138390000000  0.4807240000000  0.5550930000000 1.0
C      1  0.5837840000000  0.4755400000000  0.4360720000000 1.0
C      1  0.5859300000000  0.4704550000000  0.5559630000000 1.0
C      1  0.4177930000000  0.4812540000000  0.4430860000000 1.0
C      1  0.5868370000000  0.5355820000000  0.5133850000000 1.0
C      1  0.4107080000000  0.5287930000000  0.4855400000000 1.0
C      1  0.4072670000000  0.5366480000000  0.5185340000000 1.0
C      1  0.5906990000000  0.5300300000000  0.4816690000000 1.0
C      1  0.5203340000000  0.4859970000000  0.4723670000000 1.0
C      1  0.4798450000000  0.4965270000000  0.5265050000000 1.0
C      1  0.4897190000000  0.4845390000000  0.4710890000000 1.0
C      1  0.5023950000000  0.4829110000000  0.5433810000000 1.0
C      1  0.4825620000000  0.4912940000000  0.6114870000000 1.0
C      1  0.5112270000000  0.4879610000000  0.3892770000000 1.0
C      1  0.5165670000000  0.4900340000000  0.6103000000000 1.0
C      1  0.4819080000000  0.4886700000000  0.3909560000000 1.0
C      1  0.4727800000000  0.3984780000000  0.5141630000000 1.0
C      1  0.5302210000000  0.3988410000000  0.4841980000000 1.0
C      1  0.5302090000000  0.4000690000000  0.5111110000000 1.0
C      1  0.4720630000000  0.3965910000000  0.4870210000000 1.0
END
