TITL C-2782226-7400-910 -0.00103139698613737 125000 -323.825312466491 0 0 58 (C1) n - 1
REM
REM in /home/nfs/bkarasulu/CARBON/AIRSS/Generating-Clusters/REBO/Higher-Symm/SD-CG/HFTN-CG
REM
REM
REM
REM
REM
REM ./C.cell (12c818d87b63d06a65506943cc24bca4)
REM
REM compiler GCC version 9.2.1 20190827 (Red Hat 9.2.1-1)
REM options -cpp -mtune=generic -march=x86-64 -g -O0 -fpre-include=/usr/include/finclude/math-vector-fortran.h
REM seed -52131129 -844947415 -544961687 -2100246337 -539651263 -248520752 1076687898 141974384 1590631484 812255613 890384479 -1059946351 189941868 3627288 -444120147 -947401074 976859628 -1766961869 1401456364 613612755 59576108 1588962395 -1280898308 538207184 -1947381427 -1305415239 -1574133123 1286121357 -621496402 177585144 -95917000 -2085436764 -746413768
REM
CELL 1.54180   50.00000   50.00000   50.00000   90.00000   90.00000   90.00000
LATT -1
SFAC C  
C      1  0.5286780000000  0.5280720000000  0.5475030000000 1.0
C      1  0.4576090000000  0.5076040000000  0.5468530000000 1.0
C      1  0.5124550000000  0.4589260000000  0.5506540000000 1.0
C      1  0.4973290000000  0.5297920000000  0.4322800000000 1.0
C      1  0.4759880000000  0.4848410000000  0.4354050000000 1.0
C      1  0.5267340000000  0.4895930000000  0.4343230000000 1.0
C      1  0.4485970000000  0.5036550000000  0.5081070000000 1.0
C      1  0.5177610000000  0.4494230000000  0.5123920000000 1.0
C      1  0.5362820000000  0.5265060000000  0.5038930000000 1.0
C      1  0.5623250000000  0.4519660000000  0.4863560000000 1.0
C      1  0.5043860000000  0.5834940000000  0.4838050000000 1.0
C      1  0.4261150000000  0.4544690000000  0.4834340000000 1.0
C      1  0.5437400000000  0.5338300000000  0.4442950000000 1.0
C      1  0.4566720000000  0.5253740000000  0.4540800000000 1.0
C      1  0.5023460000000  0.4535410000000  0.4569380000000 1.0
C      1  0.4512150000000  0.4467570000000  0.4960480000000 1.0
C      1  0.5652310000000  0.4803700000000  0.4949840000000 1.0
C      1  0.4837450000000  0.5670950000000  0.4958780000000 1.0
C      1  0.4722280000000  0.5495030000000  0.4725790000000 1.0
C      1  0.4726910000000  0.4510870000000  0.4737070000000 1.0
C      1  0.5590070000000  0.4965670000000  0.4720040000000 1.0
C      1  0.5458750000000  0.5231610000000  0.4746140000000 1.0
C      1  0.4632200000000  0.5209210000000  0.4855090000000 1.0
C      1  0.4998010000000  0.4608190000000  0.4885120000000 1.0
C      1  0.4781750000000  0.5182800000000  0.5143930000000 1.0
C      1  0.4927210000000  0.4717070000000  0.5184330000000 1.0
C      1  0.5241160000000  0.5038350000000  0.5160890000000 1.0
C      1  0.4297960000000  0.4676410000000  0.4587950000000 1.0
C      1  0.5562950000000  0.4526670000000  0.4577340000000 1.0
C      1  0.5106820000000  0.5754890000000  0.4575800000000 1.0
C      1  0.5127120000000  0.5568660000000  0.5370340000000 1.0
C      1  0.4444430000000  0.4802060000000  0.5314240000000 1.0
C      1  0.5424450000000  0.4567380000000  0.5342110000000 1.0
C      1  0.5211220000000  0.4895150000000  0.5402200000000 1.0
C      1  0.4963300000000  0.5206870000000  0.5393380000000 1.0
C      1  0.4818000000000  0.4839310000000  0.5447490000000 1.0
C      1  0.4807000000000  0.5159010000000  0.5695980000000 1.0
C      1  0.5004770000000  0.4813710000000  0.5730740000000 1.0
C      1  0.5141900000000  0.5112490000000  0.5736900000000 1.0
C      1  0.5584780000000  0.4845360000000  0.5228820000000 1.0
C      1  0.4836950000000  0.5582020000000  0.5227480000000 1.0
C      1  0.4574360000000  0.4535810000000  0.5232660000000 1.0
C      1  0.4189470000000  0.4910690000000  0.5116170000000 1.0
C      1  0.5479950000000  0.4378690000000  0.5064590000000 1.0
C      1  0.5353240000000  0.5510520000000  0.5155410000000 1.0
C      1  0.5558790000000  0.5087280000000  0.5397920000000 1.0
C      1  0.4615460000000  0.5394810000000  0.5353580000000 1.0
C      1  0.4843040000000  0.4448060000000  0.5377990000000 1.0
C      1  0.5424340000000  0.4960020000000  0.5659630000000 1.0
C      1  0.4966300000000  0.5453910000000  0.5638380000000 1.0
C      1  0.4683450000000  0.4784890000000  0.5754140000000 1.0
C      1  0.5027490000000  0.4739830000000  0.4370890000000 1.0
C      1  0.5237200000000  0.5184170000000  0.4304000000000 1.0
C      1  0.4736500000000  0.5133110000000  0.4345550000000 1.0
C      1  0.4575830000000  0.4690990000000  0.4508740000000 1.0
C      1  0.5499410000000  0.4800670000000  0.4494400000000 1.0
C      1  0.4945640000000  0.5532480000000  0.4487130000000 1.0
C      1  0.5148480000000  0.5248440000000  0.4702740000000 1.0
END
