TITL C-2782237-5345-913 -0.000490448093001737 125000 -1033.09133294262 0 0 174 (C1) n - 1
REM
REM in /home/nfs/bkarasulu/CARBON/AIRSS/Generating-Clusters/REBO/Higher-Symm/SD-CG/HFTN-CG
REM
REM
REM
REM
REM
REM ./C.cell (12c818d87b63d06a65506943cc24bca4)
REM
REM compiler GCC version 9.2.1 20190827 (Red Hat 9.2.1-1)
REM options -cpp -mtune=generic -march=x86-64 -g -O0 -fpre-include=/usr/include/finclude/math-vector-fortran.h
REM seed -1658651443 85125644 -966217238 -212962354 2142019588 -1649701282 443928768 1090745531 -426364684 356271993 1884484723 1492742857 -817798407 -1138351535 -1004246815 -912264030 -1072848388 -742779523 888618538 235779983 1836295388 -1236764600 -690187131 -594357127 -1008249125 -1066343318 760629919 -637943067 410863724 -783008069 1069241756 1040019482 1964279040
REM
CELL 1.54180   50.00000   50.00000   50.00000   90.00000   90.00000   90.00000
LATT -1
SFAC C  
C      1  0.4772270000000  0.4406300000000  0.5123210000000 1.0
C      1  0.4409940000000  0.5014720000000  0.5112330000000 1.0
C      1  0.4852680000000  0.5563370000000  0.5078000000000 1.0
C      1  0.5495680000000  0.5290400000000  0.5105650000000 1.0
C      1  0.5492230000000  0.4581860000000  0.5096840000000 1.0
C      1  0.4412080000000  0.5314400000000  0.5013640000000 1.0
C      1  0.5139610000000  0.5639160000000  0.5011720000000 1.0
C      1  0.5680710000000  0.5061080000000  0.5030790000000 1.0
C      1  0.5189750000000  0.4453350000000  0.5142130000000 1.0
C      1  0.4496850000000  0.4520220000000  0.5048620000000 1.0
C      1  0.5644290000000  0.4832670000000  0.5553940000000 1.0
C      1  0.4987960000000  0.4275510000000  0.5652590000000 1.0
C      1  0.4372610000000  0.4739770000000  0.5602380000000 1.0
C      1  0.4584920000000  0.5471900000000  0.5517330000000 1.0
C      1  0.5369730000000  0.5564470000000  0.5567050000000 1.0
C      1  0.4504400000000  0.5390480000000  0.4202250000000 1.0
C      1  0.5233520000000  0.5571230000000  0.4226130000000 1.0
C      1  0.5726580000000  0.4959960000000  0.4220090000000 1.0
C      1  0.4926240000000  0.4342070000000  0.4089820000000 1.0
C      1  0.4414250000000  0.4653960000000  0.4232300000000 1.0
C      1  0.4348990000000  0.5453410000000  0.5294720000000 1.0
C      1  0.5228690000000  0.5730040000000  0.5329340000000 1.0
C      1  0.5810560000000  0.4988180000000  0.5314150000000 1.0
C      1  0.5205530000000  0.4254960000000  0.5401220000000 1.0
C      1  0.4337000000000  0.4535700000000  0.5330440000000 1.0
C      1  0.4466220000000  0.5837270000000  0.5409910000000 1.0
C      1  0.5647760000000  0.5764440000000  0.5346150000000 1.0
C      1  0.5939990000000  0.4600570000000  0.5422950000000 1.0
C      1  0.4916940000000  0.3978360000000  0.5400580000000 1.0
C      1  0.4019540000000  0.4761290000000  0.5418990000000 1.0
C      1  0.4275820000000  0.4776330000000  0.4669610000000 1.0
C      1  0.4575150000000  0.5613480000000  0.4646290000000 1.0
C      1  0.5468630000000  0.5553880000000  0.4647340000000 1.0
C      1  0.5753580000000  0.4744840000000  0.4643740000000 1.0
C      1  0.4988740000000  0.4266700000000  0.4608430000000 1.0
C      1  0.4244210000000  0.4959430000000  0.5376400000000 1.0
C      1  0.4732700000000  0.5715410000000  0.5338120000000 1.0
C      1  0.5589670000000  0.5444110000000  0.5346520000000 1.0
C      1  0.5645130000000  0.4544950000000  0.5368600000000 1.0
C      1  0.4762920000000  0.4243090000000  0.5397480000000 1.0
C      1  0.4620930000000  0.5278230000000  0.5792940000000 1.0
C      1  0.5139240000000  0.5448810000000  0.5794210000000 1.0
C      1  0.5393130000000  0.5022930000000  0.5653530000000 1.0
C      1  0.5149960000000  0.4550410000000  0.5701660000000 1.0
C      1  0.4680830000000  0.4773450000000  0.5674890000000 1.0
C      1  0.6089940000000  0.5103560000000  0.5053120000000 1.0
C      1  0.5459550000000  0.4012970000000  0.5048060000000 1.0
C      1  0.4185170000000  0.4271390000000  0.5046710000000 1.0
C      1  0.4049140000000  0.5531630000000  0.5042500000000 1.0
C      1  0.5180140000000  0.6167110000000  0.5097400000000 1.0
C      1  0.5281240000000  0.5120450000000  0.4397560000000 1.0
C      1  0.5265770000000  0.4702520000000  0.4427570000000 1.0
C      1  0.4872110000000  0.4696090000000  0.4395590000000 1.0
C      1  0.4645380000000  0.5012550000000  0.4473130000000 1.0
C      1  0.4815740000000  0.5287960000000  0.4427190000000 1.0
C      1  0.5617680000000  0.4227030000000  0.4481990000000 1.0
C      1  0.4375210000000  0.4157580000000  0.4485520000000 1.0
C      1  0.4018620000000  0.5294490000000  0.4481230000000 1.0
C      1  0.4988840000000  0.6010790000000  0.4512810000000 1.0
C      1  0.5995420000000  0.5329870000000  0.4511840000000 1.0
C      1  0.4512160000000  0.4425320000000  0.4408600000000 1.0
C      1  0.4317050000000  0.5225150000000  0.4394830000000 1.0
C      1  0.5006180000000  0.5707580000000  0.4402050000000 1.0
C      1  0.5722750000000  0.5198350000000  0.4414750000000 1.0
C      1  0.5560120000000  0.4467100000000  0.4302860000000 1.0
C      1  0.4865030000000  0.3996600000000  0.4693040000000 1.0
C      1  0.3978330000000  0.4816570000000  0.4729390000000 1.0
C      1  0.4517280000000  0.5900870000000  0.4732530000000 1.0
C      1  0.5720590000000  0.5685830000000  0.4737960000000 1.0
C      1  0.5957020000000  0.4533500000000  0.4730960000000 1.0
C      1  0.5960540000000  0.5538340000000  0.4699270000000 1.0
C      1  0.5814510000000  0.4261870000000  0.4679640000000 1.0
C      1  0.4550070000000  0.4008920000000  0.4655930000000 1.0
C      1  0.3913640000000  0.5116480000000  0.4672720000000 1.0
C      1  0.4781880000000  0.6066940000000  0.4694860000000 1.0
C      1  0.4885510000000  0.4626260000000  0.5501440000000 1.0
C      1  0.4601750000000  0.5060530000000  0.5560970000000 1.0
C      1  0.4989350000000  0.5454890000000  0.5528560000000 1.0
C      1  0.5288380000000  0.5202860000000  0.5444670000000 1.0
C      1  0.5255730000000  0.4771320000000  0.5500360000000 1.0
C      1  0.5527560000000  0.4803910000000  0.4870510000000 1.0
C      1  0.4993690000000  0.4443620000000  0.4867780000000 1.0
C      1  0.4489350000000  0.4813170000000  0.4911420000000 1.0
C      1  0.4692460000000  0.5422390000000  0.4874680000000 1.0
C      1  0.5319470000000  0.5395900000000  0.4879050000000 1.0
C      1  0.4744700000000  0.4901250000000  0.4765860000000 1.0
C      1  0.4866780000000  0.5200650000000  0.4744430000000 1.0
C      1  0.5177690000000  0.5174780000000  0.4721780000000 1.0
C      1  0.5271480000000  0.4866210000000  0.4710990000000 1.0
C      1  0.4988800000000  0.4711520000000  0.4715140000000 1.0
C      1  0.4025990000000  0.4505370000000  0.5240780000000 1.0
C      1  0.4226470000000  0.5750630000000  0.5235490000000 1.0
C      1  0.5423310000000  0.5960740000000  0.5217880000000 1.0
C      1  0.6077820000000  0.4820690000000  0.5245810000000 1.0
C      1  0.5175330000000  0.3979890000000  0.5219430000000 1.0
C      1  0.5899330000000  0.4288040000000  0.5152850000000 1.0
C      1  0.4625730000000  0.3983640000000  0.5127620000000 1.0
C      1  0.3860240000000  0.5047360000000  0.5147810000000 1.0
C      1  0.4653960000000  0.6123220000000  0.5158330000000 1.0
C      1  0.5857430000000  0.5647940000000  0.5111470000000 1.0
C      1  0.4340600000000  0.5396240000000  0.4690920000000 1.0
C      1  0.5197420000000  0.5720620000000  0.4685500000000 1.0
C      1  0.5796160000000  0.5054920000000  0.4718240000000 1.0
C      1  0.5255190000000  0.4386110000000  0.4444570000000 1.0
C      1  0.4392900000000  0.4474250000000  0.4726790000000 1.0
C      1  0.5281310000000  0.5112920000000  0.5953420000000 1.0
C      1  0.5220560000000  0.4793880000000  0.5930320000000 1.0
C      1  0.4894440000000  0.4746700000000  0.5938300000000 1.0
C      1  0.4698970000000  0.5016830000000  0.5990040000000 1.0
C      1  0.4965070000000  0.5233000000000  0.5991530000000 1.0
C      1  0.5100390000000  0.5222900000000  0.3928640000000 1.0
C      1  0.5296840000000  0.5045820000000  0.4065470000000 1.0
C      1  0.5172220000000  0.4779080000000  0.4146550000000 1.0
C      1  0.4847520000000  0.4834220000000  0.4082120000000 1.0
C      1  0.4843670000000  0.5114030000000  0.3952420000000 1.0
C      1  0.5162710000000  0.5493780000000  0.3972900000000 1.0
C      1  0.5586580000000  0.5008380000000  0.3990900000000 1.0
C      1  0.5072980000000  0.4518780000000  0.3983820000000 1.0
C      1  0.4576700000000  0.4696710000000  0.4011100000000 1.0
C      1  0.4611690000000  0.5268510000000  0.3983820000000 1.0
C      1  0.4419230000000  0.4059080000000  0.4909030000000 1.0
C      1  0.3891760000000  0.5253630000000  0.4918080000000 1.0
C      1  0.4874280000000  0.6165950000000  0.4942930000000 1.0
C      1  0.6081020000000  0.5434680000000  0.4960450000000 1.0
C      1  0.5751320000000  0.4138050000000  0.4920970000000 1.0
C      1  0.4726000000000  0.5573840000000  0.4383960000000 1.0
C      1  0.5465310000000  0.5392740000000  0.4391760000000 1.0
C      1  0.5687200000000  0.4714020000000  0.4353350000000 1.0
C      1  0.4815110000000  0.4394530000000  0.4376670000000 1.0
C      1  0.4369550000000  0.4902840000000  0.4408780000000 1.0
C      1  0.3892270000000  0.4748550000000  0.5042420000000 1.0
C      1  0.4404740000000  0.5963760000000  0.5037690000000 1.0
C      1  0.5654400000000  0.5892240000000  0.4972800000000 1.0
C      1  0.6051400000000  0.4546170000000  0.5045440000000 1.0
C      1  0.4914640000000  0.3939020000000  0.5005570000000 1.0
C      1  0.4232800000000  0.5184130000000  0.5809240000000 1.0
C      1  0.4920080000000  0.5785900000000  0.5763610000000 1.0
C      1  0.5737600000000  0.5284730000000  0.5777540000000 1.0
C      1  0.5521320000000  0.4399390000000  0.5800140000000 1.0
C      1  0.4532310000000  0.4396130000000  0.5821400000000 1.0
C      1  0.4977440000000  0.5856760000000  0.5464020000000 1.0
C      1  0.5802540000000  0.5264050000000  0.5502730000000 1.0
C      1  0.5495770000000  0.4294510000000  0.5509710000000 1.0
C      1  0.4477680000000  0.4318670000000  0.5533120000000 1.0
C      1  0.4196770000000  0.5242860000000  0.5506440000000 1.0
C      1  0.4732040000000  0.5588540000000  0.5803440000000 1.0
C      1  0.5468910000000  0.5371070000000  0.5832390000000 1.0
C      1  0.5507580000000  0.4678990000000  0.5821770000000 1.0
C      1  0.4804280000000  0.4444930000000  0.5870680000000 1.0
C      1  0.4385240000000  0.4950560000000  0.5873760000000 1.0
C      1  0.5226760000000  0.5123170000000  0.5156070000000 1.0
C      1  0.5295210000000  0.4816380000000  0.5190870000000 1.0
C      1  0.4941100000000  0.4677980000000  0.5186820000000 1.0
C      1  0.4655330000000  0.5117560000000  0.5276380000000 1.0
C      1  0.4872160000000  0.5348150000000  0.5298030000000 1.0
C      1  0.4058180000000  0.5573360000000  0.4614880000000 1.0
C      1  0.5270120000000  0.6035490000000  0.4636060000000 1.0
C      1  0.6130890000000  0.5089050000000  0.4654500000000 1.0
C      1  0.5354050000000  0.4099600000000  0.4580000000000 1.0
C      1  0.4135430000000  0.4260660000000  0.4650950000000 1.0
C      1  0.4392360000000  0.4142600000000  0.5285810000000 1.0
C      1  0.3975960000000  0.5311240000000  0.5293380000000 1.0
C      1  0.4931660000000  0.6125670000000  0.5326570000000 1.0
C      1  0.5965840000000  0.5353000000000  0.5250630000000 1.0
C      1  0.5656380000000  0.4138880000000  0.5297710000000 1.0
C      1  0.6095110000000  0.4825960000000  0.4851090000000 1.0
C      1  0.5201640000000  0.3994190000000  0.4823060000000 1.0
C      1  0.4013290000000  0.4493810000000  0.4847040000000 1.0
C      1  0.4224630000000  0.5748090000000  0.4840320000000 1.0
C      1  0.5423590000000  0.6120530000000  0.4864230000000 1.0
C      1  0.4932150000000  0.5000370000000  0.5153680000000 1.0
C      1  0.4984060000000  0.4946240000000  0.5479590000000 1.0
C      1  0.4985220000000  0.5010310000000  0.4413160000000 1.0
C      1  0.4968210000000  0.5099160000000  0.5707860000000 1.0
END
