TITL C-2782232-2968-1091 -0.00727389757634526 125000 -828.174926334459 0 0 144 (C1) n - 1
REM
REM in /home/nfs/bkarasulu/CARBON/AIRSS/Generating-Clusters/REBO/Higher-Symm/SD-CG/HFTN-CG
REM
REM
REM
REM
REM
REM ./C.cell (12c818d87b63d06a65506943cc24bca4)
REM
REM compiler GCC version 9.2.1 20190827 (Red Hat 9.2.1-1)
REM options -cpp -mtune=generic -march=x86-64 -g -O0 -fpre-include=/usr/include/finclude/math-vector-fortran.h
REM seed 871420988 -1071931428 -1961301414 1475078181 207900540 -995425800 -280377454 2052589328 -1865029221 62066075 -248161012 2098963376 384567298 639483074 666443699 145880339 617467912 1055713282 2079803082 -1372367257 1250562430 -74804316 744085593 -2114995656 -573316036 -737724170 2046124949 -258289068 -28435434 -1931655988 -592864107 261752574 -1136051973
REM
CELL 1.54180   50.00000   50.00000   50.00000   90.00000   90.00000   90.00000
LATT -1
SFAC C  
C      1  0.5224490000000  0.5772980000000  0.4370690000000 1.0
C      1  0.4867100000000  0.5931370000000  0.5165570000000 1.0
C      1  0.5151470000000  0.5386680000000  0.5742020000000 1.0
C      1  0.4781060000000  0.4261090000000  0.5643130000000 1.0
C      1  0.5139300000000  0.4104560000000  0.4862720000000 1.0
C      1  0.4803900000000  0.4524500000000  0.4160580000000 1.0
C      1  0.5030720000000  0.4304760000000  0.6077890000000 1.0
C      1  0.4963890000000  0.3738440000000  0.5177060000000 1.0
C      1  0.5225440000000  0.4232210000000  0.4118140000000 1.0
C      1  0.4862400000000  0.5694840000000  0.4026910000000 1.0
C      1  0.5086580000000  0.6306870000000  0.4885790000000 1.0
C      1  0.4936490000000  0.5786330000000  0.5954670000000 1.0
C      1  0.4447110000000  0.4401760000000  0.4290650000000 1.0
C      1  0.5538880000000  0.5447070000000  0.4178060000000 1.0
C      1  0.4469160000000  0.5882440000000  0.4894740000000 1.0
C      1  0.5579300000000  0.5585790000000  0.5658750000000 1.0
C      1  0.4412180000000  0.4569290000000  0.5797330000000 1.0
C      1  0.5545080000000  0.4205550000000  0.5106720000000 1.0
C      1  0.6012870000000  0.5050400000000  0.4809540000000 1.0
C      1  0.3961910000000  0.5176540000000  0.4895260000000 1.0
C      1  0.6054520000000  0.5111320000000  0.5142880000000 1.0
C      1  0.3931080000000  0.4931170000000  0.5134990000000 1.0
C      1  0.6051230000000  0.4790120000000  0.5027230000000 1.0
C      1  0.3908030000000  0.4852250000000  0.4802580000000 1.0
C      1  0.4736530000000  0.4765880000000  0.4843620000000 1.0
C      1  0.5150730000000  0.5080210000000  0.4849670000000 1.0
C      1  0.4755260000000  0.5164530000000  0.4912290000000 1.0
C      1  0.5219720000000  0.5160260000000  0.5166420000000 1.0
C      1  0.4712070000000  0.4986160000000  0.5175410000000 1.0
C      1  0.5219600000000  0.4777450000000  0.5165940000000 1.0
C      1  0.4496350000000  0.5673350000000  0.4340540000000 1.0
C      1  0.5633800000000  0.5958630000000  0.5215880000000 1.0
C      1  0.4564750000000  0.5161810000000  0.5887790000000 1.0
C      1  0.5611950000000  0.4240820000000  0.5646850000000 1.0
C      1  0.4368780000000  0.4030690000000  0.4743310000000 1.0
C      1  0.5379700000000  0.4863760000000  0.4118510000000 1.0
C      1  0.4249460000000  0.4939160000000  0.4509000000000 1.0
C      1  0.5742490000000  0.5345090000000  0.4808240000000 1.0
C      1  0.4274550000000  0.5367800000000  0.5247810000000 1.0
C      1  0.5803290000000  0.5009540000000  0.5435740000000 1.0
C      1  0.4199310000000  0.4617670000000  0.5161510000000 1.0
C      1  0.5748780000000  0.4604630000000  0.4790740000000 1.0
C      1  0.5936440000000  0.5292630000000  0.5405470000000 1.0
C      1  0.4062150000000  0.4773040000000  0.5408910000000 1.0
C      1  0.5931990000000  0.4481820000000  0.5009860000000 1.0
C      1  0.4054440000000  0.4701310000000  0.4541720000000 1.0
C      1  0.5897290000000  0.5231700000000  0.4556300000000 1.0
C      1  0.4128860000000  0.5458350000000  0.4972880000000 1.0
C      1  0.4471920000000  0.5674000000000  0.5410380000000 1.0
C      1  0.5545940000000  0.5022970000000  0.5718040000000 1.0
C      1  0.4377110000000  0.4306480000000  0.5338020000000 1.0
C      1  0.5421320000000  0.4450000000000  0.4629640000000 1.0
C      1  0.4529870000000  0.4981780000000  0.4231790000000 1.0
C      1  0.5644950000000  0.5675310000000  0.4608380000000 1.0
C      1  0.4798600000000  0.4948640000000  0.5487250000000 1.0
C      1  0.5421660000000  0.4579080000000  0.5354170000000 1.0
C      1  0.4757070000000  0.4448150000000  0.4724990000000 1.0
C      1  0.5255060000000  0.4996460000000  0.4474640000000 1.0
C      1  0.4879020000000  0.5447100000000  0.4815250000000 1.0
C      1  0.5174340000000  0.5480470000000  0.5152830000000 1.0
C      1  0.5392370000000  0.5385550000000  0.5370880000000 1.0
C      1  0.4595320000000  0.4730220000000  0.5489320000000 1.0
C      1  0.5230670000000  0.4450510000000  0.5102380000000 1.0
C      1  0.4586970000000  0.4590860000000  0.4519170000000 1.0
C      1  0.5405670000000  0.5233410000000  0.4486130000000 1.0
C      1  0.4662830000000  0.5548320000000  0.4975570000000 1.0
C      1  0.5716140000000  0.4929160000000  0.4769330000000 1.0
C      1  0.4252500000000  0.5157120000000  0.4747770000000 1.0
C      1  0.5745760000000  0.5183090000000  0.5075560000000 1.0
C      1  0.4212780000000  0.5060910000000  0.5184030000000 1.0
C      1  0.5761270000000  0.4799070000000  0.5179050000000 1.0
C      1  0.4215290000000  0.4787860000000  0.4893380000000 1.0
C      1  0.5276590000000  0.5376580000000  0.4072040000000 1.0
C      1  0.4685460000000  0.5969420000000  0.4717320000000 1.0
C      1  0.5371120000000  0.5785120000000  0.5620220000000 1.0
C      1  0.4659290000000  0.4652150000000  0.5938500000000 1.0
C      1  0.5346360000000  0.4122410000000  0.5296900000000 1.0
C      1  0.4684590000000  0.4206240000000  0.4370730000000 1.0
C      1  0.4996000000000  0.4158720000000  0.5472820000000 1.0
C      1  0.4978010000000  0.4116440000000  0.4563190000000 1.0
C      1  0.4999900000000  0.5282340000000  0.4341850000000 1.0
C      1  0.5046010000000  0.5894780000000  0.4573310000000 1.0
C      1  0.5038430000000  0.5885720000000  0.5456440000000 1.0
C      1  0.5005570000000  0.4726060000000  0.5761740000000 1.0
C      1  0.4365890000000  0.5573500000000  0.4805300000000 1.0
C      1  0.5712260000000  0.5503310000000  0.5374520000000 1.0
C      1  0.4295910000000  0.4832840000000  0.5613880000000 1.0
C      1  0.5779530000000  0.4348530000000  0.5210070000000 1.0
C      1  0.4265220000000  0.4475760000000  0.4568820000000 1.0
C      1  0.5693920000000  0.5187820000000  0.4335190000000 1.0
C      1  0.4485670000000  0.4319540000000  0.5632600000000 1.0
C      1  0.5422620000000  0.4219070000000  0.4841580000000 1.0
C      1  0.4555770000000  0.4684420000000  0.4132560000000 1.0
C      1  0.5509590000000  0.5696980000000  0.4338500000000 1.0
C      1  0.4562150000000  0.5880310000000  0.5174800000000 1.0
C      1  0.5485390000000  0.5345700000000  0.5808790000000 1.0
C      1  0.5193810000000  0.4545320000000  0.4816210000000 1.0
C      1  0.4743560000000  0.4856000000000  0.4439450000000 1.0
C      1  0.5398580000000  0.5472950000000  0.4648730000000 1.0
C      1  0.4667260000000  0.5503140000000  0.5250600000000 1.0
C      1  0.5277560000000  0.5126180000000  0.5559060000000 1.0
C      1  0.4600400000000  0.4516100000000  0.5306360000000 1.0
C      1  0.5513750000000  0.5029350000000  0.5252410000000 1.0
C      1  0.4452540000000  0.4845980000000  0.5136910000000 1.0
C      1  0.5497620000000  0.4751830000000  0.4971500000000 1.0
C      1  0.4493790000000  0.4905480000000  0.4746050000000 1.0
C      1  0.5475260000000  0.5137620000000  0.4865280000000 1.0
C      1  0.4445310000000  0.5216670000000  0.4990190000000 1.0
C      1  0.4904560000000  0.5201980000000  0.5681010000000 1.0
C      1  0.5266220000000  0.4563030000000  0.5646380000000 1.0
C      1  0.4834890000000  0.4201610000000  0.4923440000000 1.0
C      1  0.5040630000000  0.4864640000000  0.4330350000000 1.0
C      1  0.4915080000000  0.5519930000000  0.4549330000000 1.0
C      1  0.5162090000000  0.5799000000000  0.5097530000000 1.0
C      1  0.5755330000000  0.5719820000000  0.5152570000000 1.0
C      1  0.4368410000000  0.5155770000000  0.5693240000000 1.0
C      1  0.5759100000000  0.4423540000000  0.5494880000000 1.0
C      1  0.4236790000000  0.4264330000000  0.4803780000000 1.0
C      1  0.5590700000000  0.4871610000000  0.4298330000000 1.0
C      1  0.4378520000000  0.5472500000000  0.4491870000000 1.0
C      1  0.5602100000000  0.4666440000000  0.4490110000000 1.0
C      1  0.4371900000000  0.5214800000000  0.4370830000000 1.0
C      1  0.5778990000000  0.5649410000000  0.4881760000000 1.0
C      1  0.4342350000000  0.5398250000000  0.5543510000000 1.0
C      1  0.5646370000000  0.4738190000000  0.5556570000000 1.0
C      1  0.4213140000000  0.4320730000000  0.5080290000000 1.0
C      1  0.5065270000000  0.3999800000000  0.5179050000000 1.0
C      1  0.4997150000000  0.4276540000000  0.4264620000000 1.0
C      1  0.5060860000000  0.5582080000000  0.4184080000000 1.0
C      1  0.4966230000000  0.6055750000000  0.4863190000000 1.0
C      1  0.5077100000000  0.5695540000000  0.5732240000000 1.0
C      1  0.4891990000000  0.4434780000000  0.5875940000000 1.0
C      1  0.4749590000000  0.5783790000000  0.4465710000000 1.0
C      1  0.5352500000000  0.5933950000000  0.5330320000000 1.0
C      1  0.4801820000000  0.4948620000000  0.5885880000000 1.0
C      1  0.5294300000000  0.4250410000000  0.5590580000000 1.0
C      1  0.4657710000000  0.4065040000000  0.4667390000000 1.0
C      1  0.5149060000000  0.5089680000000  0.4101410000000 1.0
C      1  0.5168730000000  0.4852980000000  0.5490550000000 1.0
C      1  0.4741260000000  0.4500040000000  0.5057050000000 1.0
C      1  0.5046560000000  0.4788110000000  0.4802890000000 1.0
C      1  0.4898790000000  0.5104090000000  0.4614590000000 1.0
C      1  0.5248630000000  0.5581530000000  0.4854240000000 1.0
C      1  0.4767640000000  0.5260180000000  0.5373800000000 1.0
END
