TITL C-2782234-8014-1237 0.00254564689161089 125000 -237.383863340802 0 0 43 (C1) n - 1
REM
REM in /home/nfs/bkarasulu/CARBON/AIRSS/Generating-Clusters/REBO/Higher-Symm/SD-CG/HFTN-CG
REM
REM
REM
REM
REM
REM ./C.cell (12c818d87b63d06a65506943cc24bca4)
REM
REM compiler GCC version 9.2.1 20190827 (Red Hat 9.2.1-1)
REM options -cpp -mtune=generic -march=x86-64 -g -O0 -fpre-include=/usr/include/finclude/math-vector-fortran.h
REM seed 1351249294 188217543 1753080340 772010418 -1289692251 -741914276 -1335989580 -1662516663 -567666922 1424839111 -612715163 1479633261 2027030842 -1236725313 2073446309 -2089641705 -195682421 808531930 1739178749 -1517628384 -1381629211 -1515539147 -1174703689 596585823 -1921174387 1671999507 566290566 -287040780 1992003777 677561058 4955663 572225259 -2147386341
REM
CELL 1.54180   50.00000   50.00000   50.00000   90.00000   90.00000   90.00000
LATT -1
SFAC C  
C      1  0.5524810000000  0.5374180000000  0.4868550000000 1.0
C      1  0.4551550000000  0.4695140000000  0.4383590000000 1.0
C      1  0.4768580000000  0.5107960000000  0.4578980000000 1.0
C      1  0.5033560000000  0.4958650000000  0.5054150000000 1.0
C      1  0.4821340000000  0.4765790000000  0.5202530000000 1.0
C      1  0.5043240000000  0.4763970000000  0.4365570000000 1.0
C      1  0.5700760000000  0.4921700000000  0.4683430000000 1.0
C      1  0.5471630000000  0.4763270000000  0.4697890000000 1.0
C      1  0.4785180000000  0.4853840000000  0.4392820000000 1.0
C      1  0.4780530000000  0.4302250000000  0.4935620000000 1.0
C      1  0.5223330000000  0.5533170000000  0.5315960000000 1.0
C      1  0.5147620000000  0.5300060000000  0.5437490000000 1.0
C      1  0.5375440000000  0.5152700000000  0.4412740000000 1.0
C      1  0.4390130000000  0.5055880000000  0.5043450000000 1.0
C      1  0.5417400000000  0.4666050000000  0.4989340000000 1.0
C      1  0.5648920000000  0.4912140000000  0.5078990000000 1.0
C      1  0.5594010000000  0.4674420000000  0.5283880000000 1.0
C      1  0.5043180000000  0.5025990000000  0.4758550000000 1.0
C      1  0.4763750000000  0.5355610000000  0.5526090000000 1.0
C      1  0.5284070000000  0.4579860000000  0.5291490000000 1.0
C      1  0.5251550000000  0.5044550000000  0.5250260000000 1.0
C      1  0.5247250000000  0.4903540000000  0.4555820000000 1.0
C      1  0.4481690000000  0.5154240000000  0.4669010000000 1.0
C      1  0.4766900000000  0.5364000000000  0.5255000000000 1.0
C      1  0.5331650000000  0.5555260000000  0.5057840000000 1.0
C      1  0.5383770000000  0.5389700000000  0.4494560000000 1.0
C      1  0.4322490000000  0.4909920000000  0.4744380000000 1.0
C      1  0.4949730000000  0.5343630000000  0.4752180000000 1.0
C      1  0.4734870000000  0.5439870000000  0.4966280000000 1.0
C      1  0.4530250000000  0.4755740000000  0.5475660000000 1.0
C      1  0.4714520000000  0.4482450000000  0.5128250000000 1.0
C      1  0.5691060000000  0.5146140000000  0.4886790000000 1.0
C      1  0.5223110000000  0.4938630000000  0.5566750000000 1.0
C      1  0.4520410000000  0.4497640000000  0.5349160000000 1.0
C      1  0.4474880000000  0.5350700000000  0.4891000000000 1.0
C      1  0.4842970000000  0.4819280000000  0.5538840000000 1.0
C      1  0.5219040000000  0.5484770000000  0.4751400000000 1.0
C      1  0.4341400000000  0.4698980000000  0.4562650000000 1.0
C      1  0.5073530000000  0.4587960000000  0.5454740000000 1.0
C      1  0.4942520000000  0.5114240000000  0.5642400000000 1.0
C      1  0.5486070000000  0.5233370000000  0.5237620000000 1.0
C      1  0.4715900000000  0.5071610000000  0.5120330000000 1.0
C      1  0.4385420000000  0.4951150000000  0.5347960000000 1.0
END
