TITL C-2782227-3064-1385 0.00402983499744996 125000 -459.242060316815 0 0 80 (C1) n - 1
REM
REM in /home/nfs/bkarasulu/CARBON/AIRSS/Generating-Clusters/REBO/Higher-Symm/SD-CG/HFTN-CG
REM
REM
REM
REM
REM
REM ./C.cell (12c818d87b63d06a65506943cc24bca4)
REM
REM compiler GCC version 9.2.1 20190827 (Red Hat 9.2.1-1)
REM options -cpp -mtune=generic -march=x86-64 -g -O0 -fpre-include=/usr/include/finclude/math-vector-fortran.h
REM seed -239502289 -1984845867 1778459746 -580636866 -827690548 1542060287 -2073461059 -257372306 716806892 1675530335 -1542248691 -609452862 1830687761 1857968420 -611201277 212179571 894978182 -491129865 1461627766 -902054122 822769854 874120136 585166133 756166917 -776646797 -213292606 912523024 1496014334 -1761468488 -635544212 -1755825589 -1894591421 -120391763
REM
CELL 1.54180   50.00000   50.00000   50.00000   90.00000   90.00000   90.00000
LATT -1
SFAC C  
C      1  0.5286250000000  0.4827770000000  0.5194910000000 1.0
C      1  0.5370660000000  0.5171820000000  0.4793050000000 1.0
C      1  0.5309660000000  0.5167410000000  0.5182580000000 1.0
C      1  0.5350010000000  0.4841860000000  0.4800470000000 1.0
C      1  0.4689460000000  0.4462360000000  0.5449880000000 1.0
C      1  0.4721840000000  0.5532760000000  0.4563700000000 1.0
C      1  0.4726480000000  0.5483900000000  0.5428580000000 1.0
C      1  0.4695270000000  0.4470740000000  0.4571600000000 1.0
C      1  0.5004580000000  0.4850200000000  0.5477930000000 1.0
C      1  0.5063410000000  0.5155120000000  0.4548030000000 1.0
C      1  0.5031920000000  0.5152210000000  0.5444840000000 1.0
C      1  0.5034020000000  0.4858400000000  0.4525530000000 1.0
C      1  0.5640640000000  0.5233570000000  0.5129980000000 1.0
C      1  0.5680720000000  0.4925050000000  0.4811720000000 1.0
C      1  0.5605620000000  0.4902140000000  0.5142660000000 1.0
C      1  0.5700040000000  0.5264700000000  0.4797340000000 1.0
C      1  0.4593580000000  0.5485840000000  0.4864360000000 1.0
C      1  0.4559030000000  0.4507990000000  0.5144680000000 1.0
C      1  0.4561220000000  0.4514990000000  0.4876010000000 1.0
C      1  0.4587580000000  0.5465040000000  0.5130690000000 1.0
C      1  0.4577040000000  0.4783120000000  0.4128290000000 1.0
C      1  0.4577140000000  0.5104000000000  0.5879940000000 1.0
C      1  0.4586900000000  0.5106240000000  0.4121790000000 1.0
C      1  0.4565470000000  0.4777930000000  0.5890180000000 1.0
C      1  0.5208180000000  0.4295990000000  0.5425630000000 1.0
C      1  0.5235120000000  0.5688600000000  0.4580930000000 1.0
C      1  0.5225080000000  0.5667840000000  0.5414510000000 1.0
C      1  0.5217260000000  0.4317530000000  0.4602660000000 1.0
C      1  0.4877410000000  0.5189470000000  0.4130500000000 1.0
C      1  0.4870990000000  0.4849140000000  0.5795580000000 1.0
C      1  0.4885250000000  0.4859000000000  0.4214650000000 1.0
C      1  0.4873200000000  0.5179220000000  0.5877180000000 1.0
C      1  0.5308520000000  0.5251400000000  0.5613640000000 1.0
C      1  0.5307290000000  0.4735160000000  0.4362520000000 1.0
C      1  0.5289950000000  0.4737210000000  0.5629070000000 1.0
C      1  0.5314880000000  0.5264380000000  0.4358180000000 1.0
C      1  0.4940860000000  0.4398130000000  0.5568690000000 1.0
C      1  0.4969100000000  0.5577990000000  0.4436080000000 1.0
C      1  0.4968980000000  0.5544490000000  0.5553250000000 1.0
C      1  0.4949240000000  0.4408690000000  0.4454910000000 1.0
C      1  0.5489790000000  0.5464410000000  0.5437580000000 1.0
C      1  0.5477450000000  0.4528870000000  0.4550080000000 1.0
C      1  0.5458600000000  0.4515850000000  0.5456650000000 1.0
C      1  0.5496350000000  0.5477350000000  0.4528210000000 1.0
C      1  0.4355010000000  0.5167340000000  0.4842380000000 1.0
C      1  0.4335490000000  0.4837050000000  0.5164680000000 1.0
C      1  0.4353790000000  0.4858540000000  0.4862610000000 1.0
C      1  0.4352880000000  0.5141720000000  0.5142050000000 1.0
C      1  0.5001360000000  0.5321930000000  0.5170440000000 1.0
C      1  0.5031120000000  0.4747620000000  0.4836130000000 1.0
C      1  0.4975890000000  0.4700840000000  0.5173820000000 1.0
C      1  0.5058940000000  0.5272310000000  0.4838220000000 1.0
C      1  0.5593820000000  0.5144200000000  0.5459730000000 1.0
C      1  0.5602380000000  0.4838070000000  0.4491880000000 1.0
C      1  0.5574680000000  0.4826550000000  0.5471160000000 1.0
C      1  0.5615660000000  0.5160710000000  0.4480980000000 1.0
C      1  0.5137500000000  0.4167810000000  0.4880350000000 1.0
C      1  0.5148190000000  0.5894590000000  0.5182040000000 1.0
C      1  0.5160870000000  0.5843780000000  0.4874210000000 1.0
C      1  0.5121150000000  0.4101820000000  0.5177540000000 1.0
C      1  0.4452140000000  0.5327750000000  0.4595170000000 1.0
C      1  0.4426760000000  0.4675820000000  0.5413220000000 1.0
C      1  0.4441930000000  0.4695320000000  0.4610290000000 1.0
C      1  0.4447380000000  0.5298890000000  0.5395380000000 1.0
C      1  0.5351730000000  0.5508470000000  0.5137800000000 1.0
C      1  0.5348930000000  0.4506500000000  0.4859310000000 1.0
C      1  0.5312240000000  0.4486600000000  0.5158400000000 1.0
C      1  0.5378620000000  0.5512020000000  0.4839130000000 1.0
C      1  0.5042630000000  0.4585320000000  0.5770110000000 1.0
C      1  0.5047080000000  0.5386240000000  0.4227780000000 1.0
C      1  0.5049260000000  0.5366990000000  0.5776060000000 1.0
C      1  0.5047550000000  0.4584300000000  0.4240490000000 1.0
C      1  0.4382550000000  0.5147810000000  0.5639610000000 1.0
C      1  0.4393320000000  0.4854410000000  0.4361990000000 1.0
C      1  0.4378810000000  0.4838950000000  0.5658400000000 1.0
C      1  0.4394240000000  0.5166200000000  0.4356220000000 1.0
C      1  0.4937020000000  0.5656210000000  0.5143980000000 1.0
C      1  0.4954480000000  0.4449370000000  0.4866070000000 1.0
C      1  0.4929360000000  0.4363930000000  0.5154930000000 1.0
C      1  0.4983200000000  0.5568170000000  0.4858220000000 1.0
END
