TITL C-2782236-320-705 0.00505379516818053 125000 -533.932452828327 0 0 92 (C1) n - 1
REM
REM in /home/nfs/bkarasulu/CARBON/AIRSS/Generating-Clusters/REBO/Higher-Symm/SD-CG/HFTN-CG
REM
REM
REM
REM
REM
REM ./C.cell (12c818d87b63d06a65506943cc24bca4)
REM
REM compiler GCC version 9.2.1 20190827 (Red Hat 9.2.1-1)
REM options -cpp -mtune=generic -march=x86-64 -g -O0 -fpre-include=/usr/include/finclude/math-vector-fortran.h
REM seed 2039185999 -144321511 -91977180 -882591886 2044785949 359864749 1291434126 1898359373 -1379777875 -885367861 -1087052889 1584381702 -1103908896 -2138534114 2121702931 -1952375906 223702203 -281639700 -576834460 -1032404545 1887241214 76190063 994294858 636996961 36874334 -1023036258 -963730388 1440865414 -2041947437 555892815 1102811951 2123025997 1106054868
REM
CELL 1.54180   50.00000   50.00000   50.00000   90.00000   90.00000   90.00000
LATT -1
SFAC C  
C      1  0.5417740000000  0.4226880000000  0.4810740000000 1.0
C      1  0.5462020000000  0.5781490000000  0.4804520000000 1.0
C      1  0.5338200000000  0.4333580000000  0.4558660000000 1.0
C      1  0.5360160000000  0.5671510000000  0.4562710000000 1.0
C      1  0.4686650000000  0.4657390000000  0.4347590000000 1.0
C      1  0.4706880000000  0.5331030000000  0.4391990000000 1.0
C      1  0.5501660000000  0.5277850000000  0.5520590000000 1.0
C      1  0.5486690000000  0.4744050000000  0.5514340000000 1.0
C      1  0.4678920000000  0.4507170000000  0.4629480000000 1.0
C      1  0.4666340000000  0.5568490000000  0.4610690000000 1.0
C      1  0.5518430000000  0.5564140000000  0.5337180000000 1.0
C      1  0.5491280000000  0.4456090000000  0.5332270000000 1.0
C      1  0.5255090000000  0.4702960000000  0.4760940000000 1.0
C      1  0.5262920000000  0.5332720000000  0.4750710000000 1.0
C      1  0.4363320000000  0.5480720000000  0.4933060000000 1.0
C      1  0.4361990000000  0.4455220000000  0.4919170000000 1.0
C      1  0.5725620000000  0.4722250000000  0.4625920000000 1.0
C      1  0.5740090000000  0.5266680000000  0.4618160000000 1.0
C      1  0.4879740000000  0.4696610000000  0.5627000000000 1.0
C      1  0.4892050000000  0.5359140000000  0.5626610000000 1.0
C      1  0.4475010000000  0.4868970000000  0.4197660000000 1.0
C      1  0.4498950000000  0.5203390000000  0.4162760000000 1.0
C      1  0.4981690000000  0.4233430000000  0.4883900000000 1.0
C      1  0.4975120000000  0.5804600000000  0.4887900000000 1.0
C      1  0.4658290000000  0.4539160000000  0.5437990000000 1.0
C      1  0.4631130000000  0.5473940000000  0.5449230000000 1.0
C      1  0.4635620000000  0.4705890000000  0.5135480000000 1.0
C      1  0.4702050000000  0.5386350000000  0.5123680000000 1.0
C      1  0.4561360000000  0.5693910000000  0.5122820000000 1.0
C      1  0.4541700000000  0.4201260000000  0.5053050000000 1.0
C      1  0.5003010000000  0.4605560000000  0.4317130000000 1.0
C      1  0.5013120000000  0.5396540000000  0.4349190000000 1.0
C      1  0.5143410000000  0.4467710000000  0.4974170000000 1.0
C      1  0.5159940000000  0.5575650000000  0.4965520000000 1.0
C      1  0.5011630000000  0.4593740000000  0.5263740000000 1.0
C      1  0.5070200000000  0.5438620000000  0.5266860000000 1.0
C      1  0.4443070000000  0.5136330000000  0.4494110000000 1.0
C      1  0.4425090000000  0.4798130000000  0.4525670000000 1.0
C      1  0.4400240000000  0.4409180000000  0.5255530000000 1.0
C      1  0.4340660000000  0.5475870000000  0.5267550000000 1.0
C      1  0.5331100000000  0.4724970000000  0.5780510000000 1.0
C      1  0.5342430000000  0.5302900000000  0.5784020000000 1.0
C      1  0.5091330000000  0.5659130000000  0.4454770000000 1.0
C      1  0.5073610000000  0.4346450000000  0.4439960000000 1.0
C      1  0.4826770000000  0.5851490000000  0.5130680000000 1.0
C      1  0.4818850000000  0.4149810000000  0.5103640000000 1.0
C      1  0.5253880000000  0.5687250000000  0.5514090000000 1.0
C      1  0.5215490000000  0.4351450000000  0.5502870000000 1.0
C      1  0.4843890000000  0.4879680000000  0.5339730000000 1.0
C      1  0.4866400000000  0.5175210000000  0.5337400000000 1.0
C      1  0.4700400000000  0.4719450000000  0.4825660000000 1.0
C      1  0.4697920000000  0.5313430000000  0.4791440000000 1.0
C      1  0.4865930000000  0.4285850000000  0.4631880000000 1.0
C      1  0.4879460000000  0.5759330000000  0.4624840000000 1.0
C      1  0.5742970000000  0.4802970000000  0.4958980000000 1.0
C      1  0.5759670000000  0.5199950000000  0.4954750000000 1.0
C      1  0.4305480000000  0.5317280000000  0.4722070000000 1.0
C      1  0.4304340000000  0.4703970000000  0.4791620000000 1.0
C      1  0.5244760000000  0.4832780000000  0.4383480000000 1.0
C      1  0.5249100000000  0.5173200000000  0.4384840000000 1.0
C      1  0.5147830000000  0.5505610000000  0.5713610000000 1.0
C      1  0.5125600000000  0.4534420000000  0.5706440000000 1.0
C      1  0.5519810000000  0.5720060000000  0.5062610000000 1.0
C      1  0.5490600000000  0.4291710000000  0.5063950000000 1.0
C      1  0.5059380000000  0.5258870000000  0.4997960000000 1.0
C      1  0.5055340000000  0.4790780000000  0.5012200000000 1.0
C      1  0.5747800000000  0.5308500000000  0.5315720000000 1.0
C      1  0.5738060000000  0.4695440000000  0.5320900000000 1.0
C      1  0.4203890000000  0.5207850000000  0.5381850000000 1.0
C      1  0.4336280000000  0.4730010000000  0.5312820000000 1.0
C      1  0.4478210000000  0.4765340000000  0.5610590000000 1.0
C      1  0.4445510000000  0.5235380000000  0.5567240000000 1.0
C      1  0.5451210000000  0.4614960000000  0.4524460000000 1.0
C      1  0.5473820000000  0.5386250000000  0.4511380000000 1.0
C      1  0.5013010000000  0.5763260000000  0.5335110000000 1.0
C      1  0.4973010000000  0.4266250000000  0.5327430000000 1.0
C      1  0.4582550000000  0.5017650000000  0.5677200000000 1.0
C      1  0.5240900000000  0.5016370000000  0.5671970000000 1.0
C      1  0.5857470000000  0.4999380000000  0.5223100000000 1.0
C      1  0.4781600000000  0.5011430000000  0.4163770000000 1.0
C      1  0.4164640000000  0.4973950000000  0.5231160000000 1.0
C      1  0.4952320000000  0.5005870000000  0.4409590000000 1.0
C      1  0.5905280000000  0.4991910000000  0.4716720000000 1.0
C      1  0.4562550000000  0.5063000000000  0.4976520000000 1.0
C      1  0.5490760000000  0.5013520000000  0.5074250000000 1.0
C      1  0.4311180000000  0.4933630000000  0.4970740000000 1.0
C      1  0.5535870000000  0.4998740000000  0.4567370000000 1.0
C      1  0.4904880000000  0.5025690000000  0.4970030000000 1.0
C      1  0.5403300000000  0.5014230000000  0.5364590000000 1.0
C      1  0.4791030000000  0.5007850000000  0.4663600000000 1.0
C      1  0.4908220000000  0.5027760000000  0.5704810000000 1.0
C      1  0.5319450000000  0.5017190000000  0.4815620000000 1.0
END
