TITL C-2782226-7400-287 -0.000592360006587853 125000 -915.397552354113 0 0 162 (C1) n - 1
REM
REM in /home/nfs/bkarasulu/CARBON/AIRSS/Generating-Clusters/REBO/Higher-Symm/SD-CG/HFTN-CG
REM
REM
REM
REM
REM
REM ./C.cell (12c818d87b63d06a65506943cc24bca4)
REM
REM compiler GCC version 9.2.1 20190827 (Red Hat 9.2.1-1)
REM options -cpp -mtune=generic -march=x86-64 -g -O0 -fpre-include=/usr/include/finclude/math-vector-fortran.h
REM seed -836460186 -368804144 -946732262 110486396 1773934882 -975514533 -1704063976 -1592378367 1134071683 -65274064 790637602 -666332912 267647406 -2056608320 -605241316 -1180491045 -82205096 226732013 1067804167 -359085667 788609268 -1705494762 -406835730 -511070048 -1532189937 291714293 688850483 1942252034 1265372442 -32284368 2026063992 -1387076624 1361383279
REM
CELL 1.54180   50.00000   50.00000   50.00000   90.00000   90.00000   90.00000
LATT -1
SFAC C  
C      1  0.5121540000000  0.5113840000000  0.5887620000000 1.0
C      1  0.5093740000000  0.5956230000000  0.5236290000000 1.0
C      1  0.4923320000000  0.5648280000000  0.4115630000000 1.0
C      1  0.4979270000000  0.4360260000000  0.4258740000000 1.0
C      1  0.4981600000000  0.4163600000000  0.5360130000000 1.0
C      1  0.5209730000000  0.4822350000000  0.4018310000000 1.0
C      1  0.5187490000000  0.4019470000000  0.5048950000000 1.0
C      1  0.5260080000000  0.4645900000000  0.5938840000000 1.0
C      1  0.5289530000000  0.5733060000000  0.5636950000000 1.0
C      1  0.5215360000000  0.5797360000000  0.4519200000000 1.0
C      1  0.4110000000000  0.5380480000000  0.4861090000000 1.0
C      1  0.4119980000000  0.5013610000000  0.4487190000000 1.0
C      1  0.4130250000000  0.4634780000000  0.4838810000000 1.0
C      1  0.4103260000000  0.4717810000000  0.5392080000000 1.0
C      1  0.4100850000000  0.5219590000000  0.5385300000000 1.0
C      1  0.4961840000000  0.5684890000000  0.5637700000000 1.0
C      1  0.4898430000000  0.5743040000000  0.4631770000000 1.0
C      1  0.4896110000000  0.4799620000000  0.3972390000000 1.0
C      1  0.4917170000000  0.4028930000000  0.4868600000000 1.0
C      1  0.4941340000000  0.4675630000000  0.5942020000000 1.0
C      1  0.4520620000000  0.4211530000000  0.5430250000000 1.0
C      1  0.4357380000000  0.5401650000000  0.5818480000000 1.0
C      1  0.4486410000000  0.5844010000000  0.5030070000000 1.0
C      1  0.4483300000000  0.5508100000000  0.4155710000000 1.0
C      1  0.4477470000000  0.4296070000000  0.4384120000000 1.0
C      1  0.5278480000000  0.4579040000000  0.5610550000000 1.0
C      1  0.5305960000000  0.5397430000000  0.5585610000000 1.0
C      1  0.5254590000000  0.5642470000000  0.4806850000000 1.0
C      1  0.5243390000000  0.5052850000000  0.4255310000000 1.0
C      1  0.5241600000000  0.4258610000000  0.4836190000000 1.0
C      1  0.4660190000000  0.4510710000000  0.5472530000000 1.0
C      1  0.4637160000000  0.5284580000000  0.5697210000000 1.0
C      1  0.4727500000000  0.5605710000000  0.5054550000000 1.0
C      1  0.4624010000000  0.5213400000000  0.4226920000000 1.0
C      1  0.4721820000000  0.4452310000000  0.4566920000000 1.0
C      1  0.5137660000000  0.5274720000000  0.4570790000000 1.0
C      1  0.5168140000000  0.4784550000000  0.4713050000000 1.0
C      1  0.5204320000000  0.4678680000000  0.5138600000000 1.0
C      1  0.5249240000000  0.5006240000000  0.5364240000000 1.0
C      1  0.5243520000000  0.5386720000000  0.5112420000000 1.0
C      1  0.4354290000000  0.5117480000000  0.5673980000000 1.0
C      1  0.4401290000000  0.5540680000000  0.5076810000000 1.0
C      1  0.4360070000000  0.5318120000000  0.4393210000000 1.0
C      1  0.4393080000000  0.4552120000000  0.4550360000000 1.0
C      1  0.4390690000000  0.4469540000000  0.5281080000000 1.0
C      1  0.4511850000000  0.5645840000000  0.4633070000000 1.0
C      1  0.4526480000000  0.4843640000000  0.4112880000000 1.0
C      1  0.4546680000000  0.4305830000000  0.4931810000000 1.0
C      1  0.4564240000000  0.4688750000000  0.5814770000000 1.0
C      1  0.4524600000000  0.5589240000000  0.5463850000000 1.0
C      1  0.5206290000000  0.4159310000000  0.4516650000000 1.0
C      1  0.5123390000000  0.4358010000000  0.5784360000000 1.0
C      1  0.5216850000000  0.5499880000000  0.5882840000000 1.0
C      1  0.5176600000000  0.5951370000000  0.4829340000000 1.0
C      1  0.5092580000000  0.5145340000000  0.3974000000000 1.0
C      1  0.4756180000000  0.5094970000000  0.3984420000000 1.0
C      1  0.4916750000000  0.4191260000000  0.4619900000000 1.0
C      1  0.4794110000000  0.4439340000000  0.5758630000000 1.0
C      1  0.4886300000000  0.5431950000000  0.5834030000000 1.0
C      1  0.4864890000000  0.5880010000000  0.4920250000000 1.0
C      1  0.4076590000000  0.4510870000000  0.5154450000000 1.0
C      1  0.4057610000000  0.4980060000000  0.5599240000000 1.0
C      1  0.4076240000000  0.5474150000000  0.5158780000000 1.0
C      1  0.4063100000000  0.5317040000000  0.4535960000000 1.0
C      1  0.4076550000000  0.4674890000000  0.4514270000000 1.0
C      1  0.5102960000000  0.5297280000000  0.5376240000000 1.0
C      1  0.5057460000000  0.5398820000000  0.4858300000000 1.0
C      1  0.5039930000000  0.4988210000000  0.4490330000000 1.0
C      1  0.5038290000000  0.4514770000000  0.4884180000000 1.0
C      1  0.5076290000000  0.4748320000000  0.5452620000000 1.0
C      1  0.5288040000000  0.5678850000000  0.5202630000000 1.0
C      1  0.5078200000000  0.5461560000000  0.4355170000000 1.0
C      1  0.5171010000000  0.4553310000000  0.4463190000000 1.0
C      1  0.5175630000000  0.4363130000000  0.5252630000000 1.0
C      1  0.5276690000000  0.5009480000000  0.5677420000000 1.0
C      1  0.5690560000000  0.4808630000000  0.4323320000000 1.0
C      1  0.5622950000000  0.4274360000000  0.4953650000000 1.0
C      1  0.5736250000000  0.4708190000000  0.5651790000000 1.0
C      1  0.5758300000000  0.5506680000000  0.5441350000000 1.0
C      1  0.5720930000000  0.5578240000000  0.4607060000000 1.0
C      1  0.5861350000000  0.4982050000000  0.4541190000000 1.0
C      1  0.5841830000000  0.4487250000000  0.4847990000000 1.0
C      1  0.5899920000000  0.4683480000000  0.5382740000000 1.0
C      1  0.5920830000000  0.5246680000000  0.5355380000000 1.0
C      1  0.5901160000000  0.5415020000000  0.4815570000000 1.0
C      1  0.5281090000000  0.4240820000000  0.4241940000000 1.0
C      1  0.5175490000000  0.4090080000000  0.5599640000000 1.0
C      1  0.5336200000000  0.5243980000000  0.6076850000000 1.0
C      1  0.5363140000000  0.6054710000000  0.5094950000000 1.0
C      1  0.5178660000000  0.5447160000000  0.4030380000000 1.0
C      1  0.4376370000000  0.5216940000000  0.5182400000000 1.0
C      1  0.4407550000000  0.5261730000000  0.4726000000000 1.0
C      1  0.4391010000000  0.4873050000000  0.4643140000000 1.0
C      1  0.4397780000000  0.4713370000000  0.5043380000000 1.0
C      1  0.4397480000000  0.4896130000000  0.5415200000000 1.0
C      1  0.4753390000000  0.4347720000000  0.4101320000000 1.0
C      1  0.4720250000000  0.4060160000000  0.5297600000000 1.0
C      1  0.4846450000000  0.5146830000000  0.6004450000000 1.0
C      1  0.4804930000000  0.5947720000000  0.5246310000000 1.0
C      1  0.4662330000000  0.5726370000000  0.4176060000000 1.0
C      1  0.4228530000000  0.5604140000000  0.4636640000000 1.0
C      1  0.4275330000000  0.4807860000000  0.4266280000000 1.0
C      1  0.4269640000000  0.4344000000000  0.4924140000000 1.0
C      1  0.4281350000000  0.4726870000000  0.5687000000000 1.0
C      1  0.4260080000000  0.5512260000000  0.5446980000000 1.0
C      1  0.4689440000000  0.5029810000000  0.5476700000000 1.0
C      1  0.4692910000000  0.5288150000000  0.5172990000000 1.0
C      1  0.4675130000000  0.5136050000000  0.4554630000000 1.0
C      1  0.4705740000000  0.4794210000000  0.4591970000000 1.0
C      1  0.4689670000000  0.4721280000000  0.5206650000000 1.0
C      1  0.4668120000000  0.4573210000000  0.3979820000000 1.0
C      1  0.4675220000000  0.4057870000000  0.5014130000000 1.0
C      1  0.4719100000000  0.4900590000000  0.6022350000000 1.0
C      1  0.4714160000000  0.5828290000000  0.5481560000000 1.0
C      1  0.4650030000000  0.5837610000000  0.4438980000000 1.0
C      1  0.4812040000000  0.4861390000000  0.4299260000000 1.0
C      1  0.4738800000000  0.4521610000000  0.4959040000000 1.0
C      1  0.4840900000000  0.4818480000000  0.5646900000000 1.0
C      1  0.4840190000000  0.5459360000000  0.5408230000000 1.0
C      1  0.4768400000000  0.5429480000000  0.4691490000000 1.0
C      1  0.5543130000000  0.4868020000000  0.5344720000000 1.0
C      1  0.5550260000000  0.5265650000000  0.5200800000000 1.0
C      1  0.5437100000000  0.5297160000000  0.4733090000000 1.0
C      1  0.5492610000000  0.4883210000000  0.4657530000000 1.0
C      1  0.5516730000000  0.4653890000000  0.5008760000000 1.0
C      1  0.5301620000000  0.4566780000000  0.4143290000000 1.0
C      1  0.5344520000000  0.4010920000000  0.5321900000000 1.0
C      1  0.5438370000000  0.4921960000000  0.6028470000000 1.0
C      1  0.5450850000000  0.5910360000000  0.5395560000000 1.0
C      1  0.5359520000000  0.5607660000000  0.4275070000000 1.0
C      1  0.5530810000000  0.4540470000000  0.5438230000000 1.0
C      1  0.5567490000000  0.5246460000000  0.5541440000000 1.0
C      1  0.5546560000000  0.5579580000000  0.4899430000000 1.0
C      1  0.5510410000000  0.5091880000000  0.4383820000000 1.0
C      1  0.5462180000000  0.4471400000000  0.4726510000000 1.0
C      1  0.5756730000000  0.5190970000000  0.4678770000000 1.0
C      1  0.5782690000000  0.4698610000000  0.4666260000000 1.0
C      1  0.5812750000000  0.4552180000000  0.5155540000000 1.0
C      1  0.5825090000000  0.4986960000000  0.5381700000000 1.0
C      1  0.5850060000000  0.5380570000000  0.5083420000000 1.0
C      1  0.5588170000000  0.5424070000000  0.4388390000000 1.0
C      1  0.5507540000000  0.4559240000000  0.4414380000000 1.0
C      1  0.5507310000000  0.4286780000000  0.5237100000000 1.0
C      1  0.5603370000000  0.4971590000000  0.5739040000000 1.0
C      1  0.5625400000000  0.5681020000000  0.5215050000000 1.0
C      1  0.4297420000000  0.5016810000000  0.4938780000000 1.0
C      1  0.5426160000000  0.5055910000000  0.4958710000000 1.0
C      1  0.2916900000000  0.4987190000000  0.4925750000000 1.0
C      1  0.3449370000000  0.4998620000000  0.4930780000000 1.0
C      1  0.5732290000000  0.4910760000000  0.5000500000000 1.0
C      1  0.7279310000000  0.5261620000000  0.5074600000000 1.0
C      1  0.4844850000000  0.5008300000000  0.5171680000000 1.0
C      1  0.2654900000000  0.4981560000000  0.4923280000000 1.0
C      1  0.6245720000000  0.5027200000000  0.5025090000000 1.0
C      1  0.6764580000000  0.5144880000000  0.5049940000000 1.0
C      1  0.5100380000000  0.4967570000000  0.4999120000000 1.0
C      1  0.6505150000000  0.5086040000000  0.5037520000000 1.0
C      1  0.5986290000000  0.4968370000000  0.5012660000000 1.0
C      1  0.3979440000000  0.5009990000000  0.4935780000000 1.0
C      1  0.3715600000000  0.5004330000000  0.4933290000000 1.0
C      1  0.3183130000000  0.4992900000000  0.4928260000000 1.0
C      1  0.7024010000000  0.5203720000000  0.5062370000000 1.0
END
