TITL C-2782225-7408-451 -0.00290149914872645 125000 -511.918327285288 0 0 86 (C1) n - 1
REM
REM in /home/nfs/bkarasulu/CARBON/AIRSS/Generating-Clusters/REBO/Higher-Symm/SD-CG/HFTN-CG
REM
REM
REM
REM
REM
REM ./C.cell (12c818d87b63d06a65506943cc24bca4)
REM
REM compiler GCC version 9.2.1 20190827 (Red Hat 9.2.1-1)
REM options -cpp -mtune=generic -march=x86-64 -g -O0 -fpre-include=/usr/include/finclude/math-vector-fortran.h
REM seed -1288461856 -1570075738 -861787732 -1867584325 1693296531 1699386736 -1914740805 1321484382 2064613796 469612847 -645651685 -1642405487 978506179 -73030847 307510377 351078489 132666187 -594464907 1026490261 -1460884128 -1308152682 -1909474483 -1766934206 706674474 1991386167 -2124679711 652058412 -1376806172 1770508372 1464046537 146462788 2022023266 1652403225
REM
CELL 1.54180   50.00000   50.00000   50.00000   90.00000   90.00000   90.00000
LATT -1
SFAC C  
C      1  0.4457060000000  0.4945180000000  0.5592650000000 1.0
C      1  0.5363510000000  0.5027330000000  0.5667250000000 1.0
C      1  0.4610510000000  0.5226970000000  0.4397210000000 1.0
C      1  0.5409910000000  0.4797540000000  0.4400250000000 1.0
C      1  0.5260240000000  0.4697380000000  0.5121940000000 1.0
C      1  0.4772990000000  0.5357740000000  0.5154640000000 1.0
C      1  0.5235110000000  0.4633180000000  0.4820040000000 1.0
C      1  0.4758430000000  0.5354700000000  0.4815010000000 1.0
C      1  0.5734000000000  0.4456420000000  0.5103960000000 1.0
C      1  0.4266290000000  0.5545560000000  0.5111860000000 1.0
C      1  0.5709310000000  0.4471330000000  0.4765090000000 1.0
C      1  0.4305190000000  0.5528150000000  0.4780320000000 1.0
C      1  0.4662680000000  0.4718930000000  0.4468290000000 1.0
C      1  0.5311890000000  0.5328630000000  0.4403300000000 1.0
C      1  0.4655020000000  0.4677660000000  0.5502180000000 1.0
C      1  0.5393050000000  0.5356720000000  0.5708590000000 1.0
C      1  0.4746170000000  0.4720000000000  0.4830220000000 1.0
C      1  0.5256260000000  0.5320550000000  0.4833480000000 1.0
C      1  0.4760340000000  0.4724900000000  0.5119140000000 1.0
C      1  0.5259320000000  0.5201590000000  0.5122610000000 1.0
C      1  0.4633130000000  0.5739110000000  0.4464640000000 1.0
C      1  0.5367900000000  0.4286620000000  0.4440060000000 1.0
C      1  0.4448290000000  0.5541500000000  0.5564850000000 1.0
C      1  0.5422470000000  0.4468800000000  0.5498740000000 1.0
C      1  0.5219850000000  0.5606130000000  0.4519460000000 1.0
C      1  0.4798470000000  0.4447200000000  0.4522090000000 1.0
C      1  0.5434290000000  0.5596490000000  0.5572060000000 1.0
C      1  0.4831740000000  0.4429800000000  0.5513930000000 1.0
C      1  0.5117900000000  0.4528890000000  0.5576150000000 1.0
C      1  0.4643910000000  0.5371980000000  0.5759020000000 1.0
C      1  0.5054930000000  0.4399930000000  0.4422020000000 1.0
C      1  0.4950370000000  0.5676130000000  0.4413590000000 1.0
C      1  0.4765890000000  0.5662520000000  0.4901320000000 1.0
C      1  0.5148020000000  0.4333970000000  0.4853210000000 1.0
C      1  0.4901120000000  0.5670730000000  0.5204270000000 1.0
C      1  0.5130010000000  0.4071090000000  0.5315160000000 1.0
C      1  0.5881780000000  0.4732260000000  0.5013140000000 1.0
C      1  0.4137350000000  0.5252290000000  0.5223020000000 1.0
C      1  0.5896960000000  0.4747220000000  0.4689500000000 1.0
C      1  0.4148000000000  0.5244390000000  0.4885630000000 1.0
C      1  0.5535690000000  0.4711220000000  0.5202110000000 1.0
C      1  0.4480830000000  0.5302570000000  0.5226130000000 1.0
C      1  0.5501040000000  0.4726360000000  0.4684750000000 1.0
C      1  0.4488650000000  0.5259920000000  0.4683120000000 1.0
C      1  0.5537690000000  0.5220640000000  0.5205530000000 1.0
C      1  0.4469540000000  0.4750580000000  0.5244770000000 1.0
C      1  0.5555230000000  0.5251340000000  0.4715140000000 1.0
C      1  0.4441160000000  0.4741060000000  0.4700690000000 1.0
C      1  0.5530340000000  0.4235360000000  0.4671630000000 1.0
C      1  0.4453520000000  0.5775510000000  0.4680000000000 1.0
C      1  0.5549110000000  0.4310040000000  0.5307840000000 1.0
C      1  0.4419310000000  0.5698360000000  0.5335680000000 1.0
C      1  0.5007830000000  0.5240360000000  0.4687280000000 1.0
C      1  0.4998670000000  0.4768170000000  0.4688330000000 1.0
C      1  0.5014840000000  0.5175790000000  0.5239400000000 1.0
C      1  0.5006380000000  0.4728530000000  0.5238410000000 1.0
C      1  0.4887460000000  0.4289070000000  0.4970770000000 1.0
C      1  0.5243110000000  0.5635180000000  0.4859970000000 1.0
C      1  0.4907590000000  0.4249030000000  0.5257050000000 1.0
C      1  0.5196690000000  0.5710950000000  0.5146070000000 1.0
C      1  0.5366860000000  0.4146360000000  0.4899760000000 1.0
C      1  0.4576150000000  0.5923410000000  0.4914700000000 1.0
C      1  0.5386250000000  0.4108760000000  0.5187270000000 1.0
C      1  0.4628040000000  0.5851790000000  0.5219600000000 1.0
C      1  0.5434740000000  0.5665590000000  0.5296030000000 1.0
C      1  0.4732910000000  0.4254990000000  0.5718200000000 1.0
C      1  0.5490980000000  0.5748280000000  0.4671280000000 1.0
C      1  0.4685390000000  0.4330390000000  0.4770470000000 1.0
C      1  0.4441110000000  0.4462100000000  0.4850600000000 1.0
C      1  0.5626550000000  0.5523570000000  0.4839800000000 1.0
C      1  0.4352420000000  0.4491750000000  0.5108900000000 1.0
C      1  0.5617740000000  0.5496320000000  0.5136060000000 1.0
C      1  0.5301080000000  0.4564010000000  0.4281870000000 1.0
C      1  0.4719750000000  0.5470600000000  0.4307690000000 1.0
C      1  0.5342980000000  0.4758580000000  0.5624340000000 1.0
C      1  0.4386870000000  0.5221400000000  0.5619050000000 1.0
C      1  0.4339800000000  0.4994150000000  0.4803200000000 1.0
C      1  0.5672590000000  0.4986040000000  0.4789900000000 1.0
C      1  0.4349850000000  0.5002820000000  0.5132320000000 1.0
C      1  0.5688770000000  0.4982290000000  0.5117310000000 1.0
C      1  0.5368840000000  0.5071490000000  0.4354700000000 1.0
C      1  0.4673110000000  0.4970550000000  0.4319770000000 1.0
C      1  0.5120310000000  0.5208010000000  0.5773310000000 1.0
C      1  0.4747780000000  0.4915030000000  0.5713960000000 1.0
C      1  0.4849420000000  0.5169280000000  0.5793960000000 1.0
C      1  0.5015380000000  0.5004870000000  0.4555540000000 1.0
END
