TITL C-2782229-3092-409 -0.000211241655125534 125000 -383.782832289796 0 0 65 (C1) n - 1
REM
REM in /home/nfs/bkarasulu/CARBON/AIRSS/Generating-Clusters/REBO/Higher-Symm/SD-CG/HFTN-CG
REM
REM
REM
REM
REM
REM ./C.cell (12c818d87b63d06a65506943cc24bca4)
REM
REM compiler GCC version 9.2.1 20190827 (Red Hat 9.2.1-1)
REM options -cpp -mtune=generic -march=x86-64 -g -O0 -fpre-include=/usr/include/finclude/math-vector-fortran.h
REM seed 313524221 -1092259942 724478591 1268889319 -1487226461 1542591629 -1166539099 1642746871 -1454105508 2012650533 -269325976 -1078731851 772185758 -147347945 1497812151 -1795427930 1896131825 246150215 1170124135 1372234788 1439390725 -442856611 -1077798838 -1773401795 2066097242 827044153 423502733 430812098 270063810 -2027312226 -383200390 -1669741087 328907831
REM
CELL 1.54180   50.00000   50.00000   50.00000   90.00000   90.00000   90.00000
LATT -1
SFAC C  
C      1  0.5432970000000  0.4205850000000  0.5214610000000 1.0
C      1  0.5348260000000  0.5527290000000  0.5433100000000 1.0
C      1  0.4129980000000  0.5225320000000  0.5228700000000 1.0
C      1  0.4692050000000  0.4389180000000  0.4627880000000 1.0
C      1  0.4629800000000  0.5567580000000  0.4455040000000 1.0
C      1  0.5803900000000  0.5170630000000  0.4634110000000 1.0
C      1  0.5752960000000  0.5249550000000  0.4902170000000 1.0
C      1  0.4484460000000  0.5610060000000  0.4704900000000 1.0
C      1  0.4725960000000  0.4338130000000  0.4910920000000 1.0
C      1  0.4142880000000  0.5268500000000  0.4945920000000 1.0
C      1  0.5424660000000  0.5579780000000  0.5160170000000 1.0
C      1  0.5261380000000  0.4230080000000  0.4988270000000 1.0
C      1  0.5821790000000  0.4853410000000  0.5203620000000 1.0
C      1  0.4754300000000  0.5739050000000  0.5123150000000 1.0
C      1  0.4357360000000  0.4524380000000  0.5256130000000 1.0
C      1  0.4200930000000  0.4838690000000  0.4754040000000 1.0
C      1  0.5117110000000  0.5708350000000  0.4823230000000 1.0
C      1  0.5540210000000  0.4472120000000  0.4633810000000 1.0
C      1  0.4995570000000  0.5468200000000  0.4740200000000 1.0
C      1  0.4473500000000  0.4774710000000  0.4761610000000 1.0
C      1  0.5533510000000  0.4753930000000  0.4638400000000 1.0
C      1  0.4892080000000  0.5570480000000  0.5293950000000 1.0
C      1  0.5603360000000  0.4677220000000  0.5218370000000 1.0
C      1  0.4393190000000  0.4798320000000  0.5329510000000 1.0
C      1  0.4884060000000  0.5272280000000  0.4908160000000 1.0
C      1  0.4688480000000  0.4804720000000  0.4954690000000 1.0
C      1  0.5350600000000  0.4877910000000  0.4829350000000 1.0
C      1  0.4984180000000  0.5267930000000  0.5186450000000 1.0
C      1  0.5350540000000  0.4765680000000  0.5102160000000 1.0
C      1  0.4645810000000  0.4895050000000  0.5226760000000 1.0
C      1  0.5882400000000  0.5098670000000  0.5102410000000 1.0
C      1  0.4604490000000  0.5784190000000  0.4899090000000 1.0
C      1  0.4506550000000  0.4366050000000  0.5088520000000 1.0
C      1  0.4034520000000  0.5050580000000  0.4797150000000 1.0
C      1  0.5294200000000  0.5786560000000  0.5016650000000 1.0
C      1  0.5396390000000  0.4267150000000  0.4742490000000 1.0
C      1  0.4827850000000  0.5225190000000  0.5879060000000 1.0
C      1  0.4831780000000  0.4596410000000  0.5611150000000 1.0
C      1  0.5625970000000  0.5026570000000  0.5505760000000 1.0
C      1  0.5296990000000  0.5223000000000  0.4263520000000 1.0
C      1  0.5166960000000  0.4494400000000  0.4494500000000 1.0
C      1  0.4581210000000  0.4941710000000  0.4127610000000 1.0
C      1  0.5109280000000  0.5190490000000  0.4476390000000 1.0
C      1  0.4706620000000  0.4835600000000  0.4342910000000 1.0
C      1  0.5054830000000  0.4709380000000  0.4619430000000 1.0
C      1  0.4957020000000  0.5209140000000  0.5634760000000 1.0
C      1  0.5372010000000  0.5061730000000  0.5419010000000 1.0
C      1  0.5029960000000  0.4722880000000  0.5474740000000 1.0
C      1  0.5599250000000  0.4406460000000  0.5305640000000 1.0
C      1  0.5077430000000  0.5475670000000  0.5513690000000 1.0
C      1  0.4202950000000  0.5003940000000  0.5375220000000 1.0
C      1  0.4582330000000  0.4638390000000  0.4525080000000 1.0
C      1  0.4886170000000  0.5445680000000  0.4465220000000 1.0
C      1  0.5715370000000  0.4936480000000  0.4518680000000 1.0
C      1  0.5270810000000  0.5156640000000  0.4763880000000 1.0
C      1  0.4618540000000  0.5187750000000  0.4864010000000 1.0
C      1  0.4932720000000  0.4677440000000  0.4870480000000 1.0
C      1  0.4820000000000  0.5063290000000  0.5361330000000 1.0
C      1  0.5284240000000  0.5209060000000  0.5199600000000 1.0
C      1  0.5117170000000  0.4640390000000  0.5221120000000 1.0
C      1  0.5467370000000  0.5328480000000  0.4963080000000 1.0
C      1  0.4393420000000  0.5362070000000  0.4829610000000 1.0
C      1  0.5015860000000  0.4403360000000  0.5034250000000 1.0
C      1  0.4954020000000  0.4921400000000  0.4453600000000 1.0
C      1  0.5147060000000  0.4964940000000  0.5567760000000 1.0
END
