TITL C-2782230-7391-1254 -0.00507386835736646 125000 -343.330970519983 0 0 62 (C1) n - 1
REM
REM in /home/nfs/bkarasulu/CARBON/AIRSS/Generating-Clusters/REBO/Higher-Symm/SD-CG/HFTN-CG
REM
REM
REM
REM
REM
REM ./C.cell (12c818d87b63d06a65506943cc24bca4)
REM
REM compiler GCC version 9.2.1 20190827 (Red Hat 9.2.1-1)
REM options -cpp -mtune=generic -march=x86-64 -g -O0 -fpre-include=/usr/include/finclude/math-vector-fortran.h
REM seed -1050513017 1745026127 -230630498 1812828419 -215386563 -1637190027 1596727479 -2133220680 1542657838 -1861110670 1076240020 -1193208785 1343099300 598932251 1350105505 2136988955 471193368 -307958646 416735042 -1241712438 -1742620471 1334953599 -409549029 -467738232 968386352 -987751298 -182019483 700916324 -1185081024 312911039 -1496969428 1393130783 1643134610
REM
CELL 1.54180   50.00000   50.00000   50.00000   90.00000   90.00000   90.00000
LATT -1
SFAC C  
C      1  0.5236650000000  0.4676730000000  0.4414500000000 1.0
C      1  0.5342240000000  0.4964880000000  0.4444460000000 1.0
C      1  0.5221420000000  0.5241060000000  0.4446810000000 1.0
C      1  0.4935820000000  0.5336650000000  0.4438160000000 1.0
C      1  0.4658660000000  0.5205440000000  0.4406930000000 1.0
C      1  0.4634810000000  0.4865360000000  0.4386710000000 1.0
C      1  0.4900310000000  0.4622640000000  0.4390150000000 1.0
C      1  0.4395780000000  0.5097960000000  0.5384480000000 1.0
C      1  0.4551250000000  0.4569840000000  0.5392710000000 1.0
C      1  0.5070510000000  0.4371310000000  0.5402680000000 1.0
C      1  0.5540180000000  0.4662490000000  0.5405690000000 1.0
C      1  0.5597980000000  0.5199810000000  0.5403460000000 1.0
C      1  0.5228770000000  0.5573740000000  0.5395520000000 1.0
C      1  0.4707450000000  0.5534490000000  0.5385700000000 1.0
C      1  0.4796410000000  0.4665710000000  0.5100550000000 1.0
C      1  0.5109910000000  0.4642480000000  0.5122620000000 1.0
C      1  0.5328230000000  0.4868760000000  0.5149640000000 1.0
C      1  0.5289050000000  0.5189730000000  0.5163020000000 1.0
C      1  0.5006150000000  0.5359890000000  0.5152830000000 1.0
C      1  0.4699500000000  0.5237120000000  0.5126920000000 1.0
C      1  0.4611650000000  0.4925590000000  0.5102730000000 1.0
C      1  0.4680460000000  0.5223880000000  0.5523260000000 1.0
C      1  0.4633700000000  0.4882900000000  0.5498790000000 1.0
C      1  0.4871270000000  0.4632890000000  0.5491820000000 1.0
C      1  0.5214960000000  0.4662070000000  0.5507330000000 1.0
C      1  0.5405490000000  0.4949360000000  0.5531420000000 1.0
C      1  0.5299130000000  0.5277270000000  0.5548710000000 1.0
C      1  0.4976680000000  0.5399260000000  0.5545280000000 1.0
C      1  0.5252830000000  0.5280950000000  0.4850750000000 1.0
C      1  0.4934450000000  0.5373220000000  0.4835640000000 1.0
C      1  0.4670990000000  0.5183840000000  0.4805510000000 1.0
C      1  0.4654570000000  0.4862740000000  0.4785710000000 1.0
C      1  0.4893780000000  0.4643510000000  0.4789120000000 1.0
C      1  0.5214500000000  0.4689890000000  0.4813100000000 1.0
C      1  0.5377090000000  0.4972720000000  0.4842060000000 1.0
C      1  0.5612040000000  0.4654380000000  0.4792410000000 1.0
C      1  0.5646000000000  0.5261860000000  0.4789670000000 1.0
C      1  0.5198030000000  0.5669170000000  0.4786080000000 1.0
C      1  0.4599340000000  0.5581770000000  0.4783550000000 1.0
C      1  0.4297320000000  0.5048460000000  0.4774070000000 1.0
C      1  0.4527130000000  0.4485290000000  0.4769080000000 1.0
C      1  0.5107630000000  0.4306030000000  0.4781790000000 1.0
C      1  0.4900670000000  0.5617240000000  0.4628500000000 1.0
C      1  0.4439790000000  0.5322600000000  0.4630320000000 1.0
C      1  0.4405320000000  0.4765310000000  0.4616770000000 1.0
C      1  0.4818100000000  0.4386940000000  0.4620410000000 1.0
C      1  0.5370370000000  0.4469730000000  0.4639120000000 1.0
C      1  0.5623480000000  0.4957830000000  0.4637220000000 1.0
C      1  0.5413110000000  0.5454240000000  0.4631670000000 1.0
C      1  0.5185730000000  0.5633760000000  0.5080430000000 1.0
C      1  0.4622350000000  0.5552940000000  0.5078310000000 1.0
C      1  0.4309550000000  0.5048820000000  0.5081750000000 1.0
C      1  0.4524560000000  0.4483370000000  0.5083790000000 1.0
C      1  0.5112620000000  0.4317290000000  0.5085980000000 1.0
C      1  0.5590650000000  0.4676940000000  0.5085680000000 1.0
C      1  0.5610910000000  0.5255740000000  0.5084050000000 1.0
C      1  0.4967020000000  0.4982160000000  0.5272650000000 1.0
C      1  0.5012360000000  0.5011730000000  0.4697260000000 1.0
C      1  0.5055950000000  0.5023890000000  0.5795820000000 1.0
C      1  0.4987090000000  0.4997560000000  0.4985610000000 1.0
C      1  0.5010920000000  0.5002560000000  0.5538100000000 1.0
C      1  0.4943640000000  0.4937470000000  0.4456140000000 1.0
END
