TITL C-2782238-9940-1290 -0.00115471970667458 125000 -884.72100414133 0 0 149 (C1) n - 1
REM
REM in /home/nfs/bkarasulu/CARBON/AIRSS/Generating-Clusters/REBO/Higher-Symm/SD-CG/HFTN-CG
REM
REM
REM
REM
REM
REM ./C.cell (12c818d87b63d06a65506943cc24bca4)
REM
REM compiler GCC version 9.2.1 20190827 (Red Hat 9.2.1-1)
REM options -cpp -mtune=generic -march=x86-64 -g -O0 -fpre-include=/usr/include/finclude/math-vector-fortran.h
REM seed -861396373 -309336751 -445263686 -158758055 -465013038 311329510 -213963908 1301307091 -2009243161 -229658835 948358791 -1474062926 -1361954528 2078538874 -1154520560 842142743 614573969 1785362281 -1589700397 1712499095 -1180378284 -1615829561 -1608895589 1374745793 717773218 78682237 -2079542075 -1716001683 314526111 -1748343293 -1631968216 -1206939003 -1815168391
REM
CELL 1.54180   50.00000   50.00000   50.00000   90.00000   90.00000   90.00000
LATT -1
SFAC C  
C      1  0.4355350000000  0.4515980000000  0.5127760000000 1.0
C      1  0.4368630000000  0.5200030000000  0.4534550000000 1.0
C      1  0.4469440000000  0.5314140000000  0.5323780000000 1.0
C      1  0.5490150000000  0.4466290000000  0.4516090000000 1.0
C      1  0.5526550000000  0.5655600000000  0.4777450000000 1.0
C      1  0.5475530000000  0.4863830000000  0.5716040000000 1.0
C      1  0.4996320000000  0.5915230000000  0.5301690000000 1.0
C      1  0.5038960000000  0.4314070000000  0.5629790000000 1.0
C      1  0.5071170000000  0.4770450000000  0.3981860000000 1.0
C      1  0.5096150000000  0.4500000000000  0.4574190000000 1.0
C      1  0.5111170000000  0.5551230000000  0.4758740000000 1.0
C      1  0.5067110000000  0.4872790000000  0.5601180000000 1.0
C      1  0.4794400000000  0.5317600000000  0.5554710000000 1.0
C      1  0.4755190000000  0.4394880000000  0.4867500000000 1.0
C      1  0.4797070000000  0.5443040000000  0.4365480000000 1.0
C      1  0.4352740000000  0.5370120000000  0.3908680000000 1.0
C      1  0.4525960000000  0.5408810000000  0.6066830000000 1.0
C      1  0.4371770000000  0.3835530000000  0.5141360000000 1.0
C      1  0.4522330000000  0.5799640000000  0.5198290000000 1.0
C      1  0.4561730000000  0.4429030000000  0.5547410000000 1.0
C      1  0.4580820000000  0.4779970000000  0.3952700000000 1.0
C      1  0.4602920000000  0.4824190000000  0.5582280000000 1.0
C      1  0.4737190000000  0.4646390000000  0.4393090000000 1.0
C      1  0.4647760000000  0.5683260000000  0.4827250000000 1.0
C      1  0.5376030000000  0.5535350000000  0.5892610000000 1.0
C      1  0.5423250000000  0.4005900000000  0.5047080000000 1.0
C      1  0.5470300000000  0.5442800000000  0.4094810000000 1.0
C      1  0.4349880000000  0.4622280000000  0.4465270000000 1.0
C      1  0.4355140000000  0.5377790000000  0.4827730000000 1.0
C      1  0.4293090000000  0.5204040000000  0.5566420000000 1.0
C      1  0.4165430000000  0.5353450000000  0.4104560000000 1.0
C      1  0.4396290000000  0.5200270000000  0.6176100000000 1.0
C      1  0.4154290000000  0.3999380000000  0.5137680000000 1.0
C      1  0.4635200000000  0.3895980000000  0.5174310000000 1.0
C      1  0.4619990000000  0.5318190000000  0.3880550000000 1.0
C      1  0.4631860000000  0.5579530000000  0.5888580000000 1.0
C      1  0.4254220000000  0.4970590000000  0.6179400000000 1.0
C      1  0.4121040000000  0.4270670000000  0.5125960000000 1.0
C      1  0.4132120000000  0.5325740000000  0.4381450000000 1.0
C      1  0.4584130000000  0.5137360000000  0.5669340000000 1.0
C      1  0.4596990000000  0.4426050000000  0.4594500000000 1.0
C      1  0.4647650000000  0.5666690000000  0.4489260000000 1.0
C      1  0.5739140000000  0.4679500000000  0.5260280000000 1.0
C      1  0.5666910000000  0.4944780000000  0.4611060000000 1.0
C      1  0.5634750000000  0.5338670000000  0.5200810000000 1.0
C      1  0.5195340000000  0.5712890000000  0.5125150000000 1.0
C      1  0.5285820000000  0.4541840000000  0.5574020000000 1.0
C      1  0.5268090000000  0.4729080000000  0.4257600000000 1.0
C      1  0.5661300000000  0.4252190000000  0.5033710000000 1.0
C      1  0.5728240000000  0.5324260000000  0.4282700000000 1.0
C      1  0.5641000000000  0.5432780000000  0.5695250000000 1.0
C      1  0.4778270000000  0.4122490000000  0.5255440000000 1.0
C      1  0.4782750000000  0.5180560000000  0.4070390000000 1.0
C      1  0.4702570000000  0.5696060000000  0.5642090000000 1.0
C      1  0.5535270000000  0.5515570000000  0.4480680000000 1.0
C      1  0.5498790000000  0.5165750000000  0.5820800000000 1.0
C      1  0.5505190000000  0.4231270000000  0.4735320000000 1.0
C      1  0.5771350000000  0.5846170000000  0.5168000000000 1.0
C      1  0.5782760000000  0.4476520000000  0.5726020000000 1.0
C      1  0.5822180000000  0.4630790000000  0.4182420000000 1.0
C      1  0.5551350000000  0.5895140000000  0.5326150000000 1.0
C      1  0.5590050000000  0.4283680000000  0.5680470000000 1.0
C      1  0.5636580000000  0.4755180000000  0.4018670000000 1.0
C      1  0.5022620000000  0.4881940000000  0.5942230000000 1.0
C      1  0.5059830000000  0.4241580000000  0.4380930000000 1.0
C      1  0.5098700000000  0.5871360000000  0.4637950000000 1.0
C      1  0.5272710000000  0.4045470000000  0.5306250000000 1.0
C      1  0.5296980000000  0.5205730000000  0.4001050000000 1.0
C      1  0.5199730000000  0.5714420000000  0.5710040000000 1.0
C      1  0.4622840000000  0.4398080000000  0.5244860000000 1.0
C      1  0.4589650000000  0.5107410000000  0.4341770000000 1.0
C      1  0.4540590000000  0.5624410000000  0.5412190000000 1.0
C      1  0.5758200000000  0.4741320000000  0.5674590000000 1.0
C      1  0.5779040000000  0.4565300000000  0.4452220000000 1.0
C      1  0.5792670000000  0.5691490000000  0.4945770000000 1.0
C      1  0.5772890000000  0.5368010000000  0.4902800000000 1.0
C      1  0.5850540000000  0.4945880000000  0.5441630000000 1.0
C      1  0.5797390000000  0.4674280000000  0.4744140000000 1.0
C      1  0.4800910000000  0.5922540000000  0.4652990000000 1.0
C      1  0.4702910000000  0.4905340000000  0.5888340000000 1.0
C      1  0.4775370000000  0.4331250000000  0.4315400000000 1.0
C      1  0.4836750000000  0.4612500000000  0.5116210000000 1.0
C      1  0.4895190000000  0.5133620000000  0.4471960000000 1.0
C      1  0.4798240000000  0.5368850000000  0.5247030000000 1.0
C      1  0.5107410000000  0.5114350000000  0.6133320000000 1.0
C      1  0.5101040000000  0.3990380000000  0.4505610000000 1.0
C      1  0.5209130000000  0.5914930000000  0.4378880000000 1.0
C      1  0.4733710000000  0.5978050000000  0.5154650000000 1.0
C      1  0.4773600000000  0.4413560000000  0.5729170000000 1.0
C      1  0.4808890000000  0.4628570000000  0.3912980000000 1.0
C      1  0.5332860000000  0.4904660000000  0.5418520000000 1.0
C      1  0.5324550000000  0.4729590000000  0.4651850000000 1.0
C      1  0.5373570000000  0.5383600000000  0.4897940000000 1.0
C      1  0.4363560000000  0.4986990000000  0.4780820000000 1.0
C      1  0.4382770000000  0.5167270000000  0.5071100000000 1.0
C      1  0.4363000000000  0.4826680000000  0.5044600000000 1.0
C      1  0.4137590000000  0.4779060000000  0.6022850000000 1.0
C      1  0.4033830000000  0.4549080000000  0.5016890000000 1.0
C      1  0.3971590000000  0.5495210000000  0.4543550000000 1.0
C      1  0.4139370000000  0.4775750000000  0.5737400000000 1.0
C      1  0.3949200000000  0.4653540000000  0.4776360000000 1.0
C      1  0.4095990000000  0.5672440000000  0.4750340000000 1.0
C      1  0.5155610000000  0.5026220000000  0.4664110000000 1.0
C      1  0.5097500000000  0.5329190000000  0.5089780000000 1.0
C      1  0.5087840000000  0.4831490000000  0.5193430000000 1.0
C      1  0.5245670000000  0.5369050000000  0.4521240000000 1.0
C      1  0.5196890000000  0.5149530000000  0.5702690000000 1.0
C      1  0.5253200000000  0.4402240000000  0.4864040000000 1.0
C      1  0.5269470000000  0.4680260000000  0.5885250000000 1.0
C      1  0.5311920000000  0.4393630000000  0.4256400000000 1.0
C      1  0.5314250000000  0.5876930000000  0.4864070000000 1.0
C      1  0.4836440000000  0.4770600000000  0.5415480000000 1.0
C      1  0.4963670000000  0.4803220000000  0.4503010000000 1.0
C      1  0.4854810000000  0.5518410000000  0.4953420000000 1.0
C      1  0.4091330000000  0.5033330000000  0.5620390000000 1.0
C      1  0.4100870000000  0.4659350000000  0.4551590000000 1.0
C      1  0.4357370000000  0.5598020000000  0.4567840000000 1.0
C      1  0.4964360000000  0.5800340000000  0.5585430000000 1.0
C      1  0.5024350000000  0.4123810000000  0.5397420000000 1.0
C      1  0.5047120000000  0.5080340000000  0.3999890000000 1.0
C      1  0.4349900000000  0.4634330000000  0.5608210000000 1.0
C      1  0.4517000000000  0.4820610000000  0.4252830000000 1.0
C      1  0.4357250000000  0.5695060000000  0.4954280000000 1.0
C      1  0.5294530000000  0.6024000000000  0.5172850000000 1.0
C      1  0.5305740000000  0.4342230000000  0.5841090000000 1.0
C      1  0.5356950000000  0.4582550000000  0.3974000000000 1.0
C      1  0.5496060000000  0.4905390000000  0.4359050000000 1.0
C      1  0.5386700000000  0.5515210000000  0.5256600000000 1.0
C      1  0.5520160000000  0.4542650000000  0.5386890000000 1.0
C      1  0.4981760000000  0.4219760000000  0.4833290000000 1.0
C      1  0.5079300000000  0.5425180000000  0.4271050000000 1.0
C      1  0.5024800000000  0.5355740000000  0.5689270000000 1.0
C      1  0.5247710000000  0.4012060000000  0.4784280000000 1.0
C      1  0.5317330000000  0.5662510000000  0.4260070000000 1.0
C      1  0.5300070000000  0.5290120000000  0.6061530000000 1.0
C      1  0.5826140000000  0.5284520000000  0.5477920000000 1.0
C      1  0.5780120000000  0.4556740000000  0.5001650000000 1.0
C      1  0.5811310000000  0.5241750000000  0.4590000000000 1.0
C      1  0.5383040000000  0.4688140000000  0.4958070000000 1.0
C      1  0.5539540000000  0.5123240000000  0.4846860000000 1.0
C      1  0.5579110000000  0.5042960000000  0.5294620000000 1.0
C      1  0.4779620000000  0.4368440000000  0.4001910000000 1.0
C      1  0.4738720000000  0.6100350000000  0.4909240000000 1.0
C      1  0.4756670000000  0.4584430000000  0.5942720000000 1.0
C      1  0.5590160000000  0.5068710000000  0.4104060000000 1.0
C      1  0.5464680000000  0.5661080000000  0.5528160000000 1.0
C      1  0.5549490000000  0.4217460000000  0.5355750000000 1.0
C      1  0.5484390000000  0.4903770000000  0.5049220000000 1.0
C      1  0.5117240000000  0.5043120000000  0.4974120000000 1.0
END
