TITL C-2782240-8521-206 -0.000194115299595842 125000 -1015.18573613092 0 0 175 (C1) n - 1
REM
REM in /home/nfs/bkarasulu/CARBON/AIRSS/Generating-Clusters/REBO/Higher-Symm/SD-CG/HFTN-CG
REM
REM
REM
REM
REM
REM ./C.cell (12c818d87b63d06a65506943cc24bca4)
REM
REM compiler GCC version 9.2.1 20190827 (Red Hat 9.2.1-1)
REM options -cpp -mtune=generic -march=x86-64 -g -O0 -fpre-include=/usr/include/finclude/math-vector-fortran.h
REM seed 1686725539 -121881735 981693964 323120356 750001094 -2048370104 1500064807 1520429924 792242097 -1745128411 958938619 1114883148 753889830 528147161 873164792 -1558003569 162066289 -143708925 897481388 292937479 2058501855 405061481 2111267854 1839289551 564030642 -1996732119 -1308278552 -214285359 -2118052503 -1765742350 -461302899 -2079945108 243338086
REM
CELL 1.54180   50.00000   50.00000   50.00000   90.00000   90.00000   90.00000
LATT -1
SFAC C  
C      1  0.5509040000000  0.5311960000000  0.5522570000000 1.0
C      1  0.5484080000000  0.5690390000000  0.4555660000000 1.0
C      1  0.5528420000000  0.4604790000000  0.4452070000000 1.0
C      1  0.5574570000000  0.4416570000000  0.5342580000000 1.0
C      1  0.4413790000000  0.5364000000000  0.5568100000000 1.0
C      1  0.4540760000000  0.5581920000000  0.4627550000000 1.0
C      1  0.4436700000000  0.4645530000000  0.4393830000000 1.0
C      1  0.4451570000000  0.4470810000000  0.5307880000000 1.0
C      1  0.5124980000000  0.5502710000000  0.4470960000000 1.0
C      1  0.5142960000000  0.4376480000000  0.4694270000000 1.0
C      1  0.5182860000000  0.4595500000000  0.5608400000000 1.0
C      1  0.5117960000000  0.5559470000000  0.5358460000000 1.0
C      1  0.4815990000000  0.5380740000000  0.4404420000000 1.0
C      1  0.4838600000000  0.4444790000000  0.4600410000000 1.0
C      1  0.4874330000000  0.4660300000000  0.5542740000000 1.0
C      1  0.4806310000000  0.5595070000000  0.5415890000000 1.0
C      1  0.4226630000000  0.4961230000000  0.4733590000000 1.0
C      1  0.4226560000000  0.4815730000000  0.5017170000000 1.0
C      1  0.4219650000000  0.5070900000000  0.5226630000000 1.0
C      1  0.4235720000000  0.5219940000000  0.4920140000000 1.0
C      1  0.5803580000000  0.4911250000000  0.4797770000000 1.0
C      1  0.5848650000000  0.4701600000000  0.5039570000000 1.0
C      1  0.5890470000000  0.4980190000000  0.5180820000000 1.0
C      1  0.5770850000000  0.5197410000000  0.4970660000000 1.0
C      1  0.5405700000000  0.5025440000000  0.4079590000000 1.0
C      1  0.5463310000000  0.3976360000000  0.4995790000000 1.0
C      1  0.5517200000000  0.4965350000000  0.5955360000000 1.0
C      1  0.5347740000000  0.6012850000000  0.5094640000000 1.0
C      1  0.4482660000000  0.5038390000000  0.3970030000000 1.0
C      1  0.4489880000000  0.4018280000000  0.4953820000000 1.0
C      1  0.4531440000000  0.4965370000000  0.5973500000000 1.0
C      1  0.4548990000000  0.6017210000000  0.5060640000000 1.0
C      1  0.4721100000000  0.5974380000000  0.5327760000000 1.0
C      1  0.4708420000000  0.5285320000000  0.3939600000000 1.0
C      1  0.4721670000000  0.3991090000000  0.4705600000000 1.0
C      1  0.4759170000000  0.4712980000000  0.5964920000000 1.0
C      1  0.5225870000000  0.6047020000000  0.5393580000000 1.0
C      1  0.5208100000000  0.5290690000000  0.4027140000000 1.0
C      1  0.5230510000000  0.3966270000000  0.4750060000000 1.0
C      1  0.5306720000000  0.4701550000000  0.6000040000000 1.0
C      1  0.5085370000000  0.6023280000000  0.4877950000000 1.0
C      1  0.5119780000000  0.4891900000000  0.4059270000000 1.0
C      1  0.5141330000000  0.4004490000000  0.5082350000000 1.0
C      1  0.5194900000000  0.5027490000000  0.5989980000000 1.0
C      1  0.4789710000000  0.6027670000000  0.4855420000000 1.0
C      1  0.4805700000000  0.4954500000000  0.3956910000000 1.0
C      1  0.4807280000000  0.4009040000000  0.5038460000000 1.0
C      1  0.4859450000000  0.5043480000000  0.5974930000000 1.0
C      1  0.5938600000000  0.4431080000000  0.4972060000000 1.0
C      1  0.5947380000000  0.4963600000000  0.5455660000000 1.0
C      1  0.5864900000000  0.5459600000000  0.5096030000000 1.0
C      1  0.5878470000000  0.4999140000000  0.4516670000000 1.0
C      1  0.4092400000000  0.4549500000000  0.4963890000000 1.0
C      1  0.4085100000000  0.5001060000000  0.5483390000000 1.0
C      1  0.4033470000000  0.5412290000000  0.5114700000000 1.0
C      1  0.4084710000000  0.5024510000000  0.4482760000000 1.0
C      1  0.5490100000000  0.4415760000000  0.4925050000000 1.0
C      1  0.5491050000000  0.4847000000000  0.5528650000000 1.0
C      1  0.5472640000000  0.5535190000000  0.5082290000000 1.0
C      1  0.5435690000000  0.5087030000000  0.4473110000000 1.0
C      1  0.4506530000000  0.4474060000000  0.4865730000000 1.0
C      1  0.4511710000000  0.4937130000000  0.5522530000000 1.0
C      1  0.4404580000000  0.5547000000000  0.5074100000000 1.0
C      1  0.4526990000000  0.5103130000000  0.4430220000000 1.0
C      1  0.5253110000000  0.4831840000000  0.4824790000000 1.0
C      1  0.5155270000000  0.4762130000000  0.5205850000000 1.0
C      1  0.5096100000000  0.5180840000000  0.5194200000000 1.0
C      1  0.5192620000000  0.5259670000000  0.4778400000000 1.0
C      1  0.4726810000000  0.4895850000000  0.4733030000000 1.0
C      1  0.4855200000000  0.4797500000000  0.5160010000000 1.0
C      1  0.4769200000000  0.5202950000000  0.5201740000000 1.0
C      1  0.4855870000000  0.5309890000000  0.4797730000000 1.0
C      1  0.4406470000000  0.4371920000000  0.4329080000000 1.0
C      1  0.4410080000000  0.4378540000000  0.5577360000000 1.0
C      1  0.4370880000000  0.5626600000000  0.5666170000000 1.0
C      1  0.4448770000000  0.5637440000000  0.4367930000000 1.0
C      1  0.5566210000000  0.4332120000000  0.4376520000000 1.0
C      1  0.5625200000000  0.4342970000000  0.5616490000000 1.0
C      1  0.5548130000000  0.5575370000000  0.5630140000000 1.0
C      1  0.5557700000000  0.5690910000000  0.4295580000000 1.0
C      1  0.4065080000000  0.4774940000000  0.4322890000000 1.0
C      1  0.4071610000000  0.4388350000000  0.5214060000000 1.0
C      1  0.4048050000000  0.5237560000000  0.5666970000000 1.0
C      1  0.4187460000000  0.5600190000000  0.4809830000000 1.0
C      1  0.5890000000000  0.4745090000000  0.4356280000000 1.0
C      1  0.5947880000000  0.4293770000000  0.5239020000000 1.0
C      1  0.5930860000000  0.5220990000000  0.5615100000000 1.0
C      1  0.5622540000000  0.5640940000000  0.4840690000000 1.0
C      1  0.4814390000000  0.5357850000000  0.5853050000000 1.0
C      1  0.4887130000000  0.5851350000000  0.4577780000000 1.0
C      1  0.4802170000000  0.4659980000000  0.4106440000000 1.0
C      1  0.4853790000000  0.4167520000000  0.5310390000000 1.0
C      1  0.5132530000000  0.5303080000000  0.5844040000000 1.0
C      1  0.5205260000000  0.5972120000000  0.4566690000000 1.0
C      1  0.5103470000000  0.4630680000000  0.4250310000000 1.0
C      1  0.5166660000000  0.4150140000000  0.5387210000000 1.0
C      1  0.5655790000000  0.4195860000000  0.5125670000000 1.0
C      1  0.5648490000000  0.5090360000000  0.5688020000000 1.0
C      1  0.5459660000000  0.5935580000000  0.4791450000000 1.0
C      1  0.5592710000000  0.4857720000000  0.4276630000000 1.0
C      1  0.4346920000000  0.4268890000000  0.5086730000000 1.0
C      1  0.4345590000000  0.5119000000000  0.5760680000000 1.0
C      1  0.4451490000000  0.5797310000000  0.4864970000000 1.0
C      1  0.4354050000000  0.4895530000000  0.4219020000000 1.0
C      1  0.5553240000000  0.5297520000000  0.4224930000000 1.0
C      1  0.5582330000000  0.4155570000000  0.4734860000000 1.0
C      1  0.5643450000000  0.4703300000000  0.5786230000000 1.0
C      1  0.5511300000000  0.5788500000000  0.5295510000000 1.0
C      1  0.4390840000000  0.5290290000000  0.4180550000000 1.0
C      1  0.4389500000000  0.4211740000000  0.4694900000000 1.0
C      1  0.4412400000000  0.4726440000000  0.5769050000000 1.0
C      1  0.4359000000000  0.5815230000000  0.5270080000000 1.0
C      1  0.5974420000000  0.4463880000000  0.5464240000000 1.0
C      1  0.5930010000000  0.5497410000000  0.5549130000000 1.0
C      1  0.5795890000000  0.5455730000000  0.4642740000000 1.0
C      1  0.5911890000000  0.4496180000000  0.4491810000000 1.0
C      1  0.4052100000000  0.4514490000000  0.5462240000000 1.0
C      1  0.4004160000000  0.5501760000000  0.5572540000000 1.0
C      1  0.4117440000000  0.5490430000000  0.4576650000000 1.0
C      1  0.4050370000000  0.4534780000000  0.4469120000000 1.0
C      1  0.5089760000000  0.5601550000000  0.5696090000000 1.0
C      1  0.5166320000000  0.5771530000000  0.4294460000000 1.0
C      1  0.5130210000000  0.4311970000000  0.4361880000000 1.0
C      1  0.5210750000000  0.4274330000000  0.5699380000000 1.0
C      1  0.4760310000000  0.5674140000000  0.5740650000000 1.0
C      1  0.4833650000000  0.5701190000000  0.4288160000000 1.0
C      1  0.4805230000000  0.4367010000000  0.4278310000000 1.0
C      1  0.4886490000000  0.4327510000000  0.5609500000000 1.0
C      1  0.5261840000000  0.4468780000000  0.5309810000000 1.0
C      1  0.5189440000000  0.5258930000000  0.5515510000000 1.0
C      1  0.5235880000000  0.5575910000000  0.4762980000000 1.0
C      1  0.5226060000000  0.4651830000000  0.4548630000000 1.0
C      1  0.4762990000000  0.4490310000000  0.5265770000000 1.0
C      1  0.4727870000000  0.5293480000000  0.5531100000000 1.0
C      1  0.4812640000000  0.5630630000000  0.4826480000000 1.0
C      1  0.4759140000000  0.4732010000000  0.4441050000000 1.0
C      1  0.4509400000000  0.4795590000000  0.5215950000000 1.0
C      1  0.4448170000000  0.5308820000000  0.5246560000000 1.0
C      1  0.4522220000000  0.5255050000000  0.4724210000000 1.0
C      1  0.4455650000000  0.4728500000000  0.4701380000000 1.0
C      1  0.5586890000000  0.4731770000000  0.5255320000000 1.0
C      1  0.5429350000000  0.5253550000000  0.5197190000000 1.0
C      1  0.5487430000000  0.5151530000000  0.4784020000000 1.0
C      1  0.5554370000000  0.4682300000000  0.4771400000000 1.0
C      1  0.5796800000000  0.5604550000000  0.5318330000000 1.0
C      1  0.5792620000000  0.5263330000000  0.4448840000000 1.0
C      1  0.5848760000000  0.4337240000000  0.4719850000000 1.0
C      1  0.5894680000000  0.4708220000000  0.5586440000000 1.0
C      1  0.4095680000000  0.5600520000000  0.5319070000000 1.0
C      1  0.4148130000000  0.5282930000000  0.4388140000000 1.0
C      1  0.4141770000000  0.4420420000000  0.4711100000000 1.0
C      1  0.4146180000000  0.4744680000000  0.5593910000000 1.0
C      1  0.5451620000000  0.4441960000000  0.5859220000000 1.0
C      1  0.5330260000000  0.5810520000000  0.5583080000000 1.0
C      1  0.5361030000000  0.5557370000000  0.4112410000000 1.0
C      1  0.5369820000000  0.4120280000000  0.4490760000000 1.0
C      1  0.4627690000000  0.4463690000000  0.5784040000000 1.0
C      1  0.4539540000000  0.5855400000000  0.5556240000000 1.0
C      1  0.4598200000000  0.5538120000000  0.4110050000000 1.0
C      1  0.4598910000000  0.4157800000000  0.4449410000000 1.0
C      1  0.4835110000000  0.4971540000000  0.5565410000000 1.0
C      1  0.4848300000000  0.5734750000000  0.5121240000000 1.0
C      1  0.4857440000000  0.5053330000000  0.4370590000000 1.0
C      1  0.4833070000000  0.4440210000000  0.4934920000000 1.0
C      1  0.5172280000000  0.4923400000000  0.5570140000000 1.0
C      1  0.5166240000000  0.5660610000000  0.5058170000000 1.0
C      1  0.5162230000000  0.5197520000000  0.4345340000000 1.0
C      1  0.5165340000000  0.4393740000000  0.4999240000000 1.0
C      1  0.4989730000000  0.5309510000000  0.3855570000000 1.0
C      1  0.4978510000000  0.3859530000000  0.4646850000000 1.0
C      1  0.5024870000000  0.4642630000000  0.6071360000000 1.0
C      1  0.4965120000000  0.6137690000000  0.5420730000000 1.0
C      1  0.4594100000000  0.5043020000000  0.4989490000000 1.0
C      1  0.5472800000000  0.4947840000000  0.5057700000000 1.0
C      1  0.4985950000000  0.5006070000000  0.4921920000000 1.0
END
