TITL C-2782237-5345-1135 0.00176128312321456 125000 -377.745947416539 0 0 66 (C1) n - 1
REM
REM in /home/nfs/bkarasulu/CARBON/AIRSS/Generating-Clusters/REBO/Higher-Symm/SD-CG/HFTN-CG
REM
REM
REM
REM
REM
REM ./C.cell (12c818d87b63d06a65506943cc24bca4)
REM
REM compiler GCC version 9.2.1 20190827 (Red Hat 9.2.1-1)
REM options -cpp -mtune=generic -march=x86-64 -g -O0 -fpre-include=/usr/include/finclude/math-vector-fortran.h
REM seed 1125298898 -168615472 1299380605 -1600656554 1553543612 171338495 515622553 259252322 -833258688 1834013536 1816601440 156711005 211106993 -1925920543 -283356817 -1221438121 503022518 508844027 511971893 428146 1307015099 1259334099 -991406880 1791496552 -1991119330 -1920227967 -887405473 321136552 289913811 -166760480 1831080558 1414903189 -770258643
REM
CELL 1.54180   50.00000   50.00000   50.00000   90.00000   90.00000   90.00000
LATT -1
SFAC C  
C      1  0.4151360000000  0.5225090000000  0.5395540000000 1.0
C      1  0.5566460000000  0.4704880000000  0.4971940000000 1.0
C      1  0.4351380000000  0.4791780000000  0.4924260000000 1.0
C      1  0.5250460000000  0.5390580000000  0.5463610000000 1.0
C      1  0.4662380000000  0.4275090000000  0.5122880000000 1.0
C      1  0.5074750000000  0.5105730000000  0.4306530000000 1.0
C      1  0.4400200000000  0.5218190000000  0.5163220000000 1.0
C      1  0.4639220000000  0.4749230000000  0.5433400000000 1.0
C      1  0.4943340000000  0.5036870000000  0.5159440000000 1.0
C      1  0.4679730000000  0.4574370000000  0.4862710000000 1.0
C      1  0.5347390000000  0.4671930000000  0.4419950000000 1.0
C      1  0.5452300000000  0.4545990000000  0.5539110000000 1.0
C      1  0.4925960000000  0.5264680000000  0.4551740000000 1.0
C      1  0.5255620000000  0.5184020000000  0.5657850000000 1.0
C      1  0.4949230000000  0.5322110000000  0.4985130000000 1.0
C      1  0.5641720000000  0.4707760000000  0.5429450000000 1.0
C      1  0.4407530000000  0.4487870000000  0.5047440000000 1.0
C      1  0.4825110000000  0.5580780000000  0.5272960000000 1.0
C      1  0.4894940000000  0.4385590000000  0.4587790000000 1.0
C      1  0.4913300000000  0.4334780000000  0.4924260000000 1.0
C      1  0.5511000000000  0.5285520000000  0.4494030000000 1.0
C      1  0.5650740000000  0.5021130000000  0.4953940000000 1.0
C      1  0.5209840000000  0.4679060000000  0.5687860000000 1.0
C      1  0.5084040000000  0.5624090000000  0.5412840000000 1.0
C      1  0.5547710000000  0.4577780000000  0.4669190000000 1.0
C      1  0.5354740000000  0.5008750000000  0.4385740000000 1.0
C      1  0.4448100000000  0.5113980000000  0.4857720000000 1.0
C      1  0.4895210000000  0.4808780000000  0.4504970000000 1.0
C      1  0.4451830000000  0.4950670000000  0.4572820000000 1.0
C      1  0.5513650000000  0.5455870000000  0.4710400000000 1.0
C      1  0.5078370000000  0.4563540000000  0.4418650000000 1.0
C      1  0.4624470000000  0.5377500000000  0.5363650000000 1.0
C      1  0.4521460000000  0.4963470000000  0.5661340000000 1.0
C      1  0.4774940000000  0.5143350000000  0.4787490000000 1.0
C      1  0.4376890000000  0.4664220000000  0.4617210000000 1.0
C      1  0.5631900000000  0.5346940000000  0.4956690000000 1.0
C      1  0.5096750000000  0.4795950000000  0.4742530000000 1.0
C      1  0.4884220000000  0.5630800000000  0.4946830000000 1.0
C      1  0.4768570000000  0.5624130000000  0.4626960000000 1.0
C      1  0.4943440000000  0.4727380000000  0.5407640000000 1.0
C      1  0.5170280000000  0.4390050000000  0.5089770000000 1.0
C      1  0.4685590000000  0.4973830000000  0.4419860000000 1.0
C      1  0.5066260000000  0.5541950000000  0.4602680000000 1.0
C      1  0.4763360000000  0.5242450000000  0.4260830000000 1.0
C      1  0.4834440000000  0.4988020000000  0.5687800000000 1.0
C      1  0.4595370000000  0.4468890000000  0.4554010000000 1.0
C      1  0.4532790000000  0.4911780000000  0.5188940000000 1.0
C      1  0.5288340000000  0.5625230000000  0.4747640000000 1.0
C      1  0.5567610000000  0.4919330000000  0.4638840000000 1.0
C      1  0.4630190000000  0.5508750000000  0.4418290000000 1.0
C      1  0.4746500000000  0.4856050000000  0.4946970000000 1.0
C      1  0.4520670000000  0.4473130000000  0.5360440000000 1.0
C      1  0.5412390000000  0.5336900000000  0.5220030000000 1.0
C      1  0.5245580000000  0.5222990000000  0.4975320000000 1.0
C      1  0.5230840000000  0.4532190000000  0.4785050000000 1.0
C      1  0.5287160000000  0.5015280000000  0.4787930000000 1.0
C      1  0.5113400000000  0.4944910000000  0.5729050000000 1.0
C      1  0.5181200000000  0.5780490000000  0.4975800000000 1.0
C      1  0.5213690000000  0.4890450000000  0.5277000000000 1.0
C      1  0.5733100000000  0.5246320000000  0.5266860000000 1.0
C      1  0.4793280000000  0.5117570000000  0.5414870000000 1.0
C      1  0.5360920000000  0.4641060000000  0.5143310000000 1.0
C      1  0.4405650000000  0.5204590000000  0.5559990000000 1.0
C      1  0.5143980000000  0.4460500000000  0.5422220000000 1.0
C      1  0.5547030000000  0.4965320000000  0.5275210000000 1.0
C      1  0.5230080000000  0.5821710000000  0.5253590000000 1.0
END
