TITL C-2782234-8014-678 -0.000273348964425007 125000 -194.767022229433 0 0 35 (C1) n - 1
REM
REM in /home/nfs/bkarasulu/CARBON/AIRSS/Generating-Clusters/REBO/Higher-Symm/SD-CG/HFTN-CG
REM
REM
REM
REM
REM
REM ./C.cell (12c818d87b63d06a65506943cc24bca4)
REM
REM compiler GCC version 9.2.1 20190827 (Red Hat 9.2.1-1)
REM options -cpp -mtune=generic -march=x86-64 -g -O0 -fpre-include=/usr/include/finclude/math-vector-fortran.h
REM seed 2132375173 -2038208941 1230032693 649432135 -612385243 377498688 -2057930288 1571368882 -1178512465 154243458 -1046280698 -1679075400 -923067666 1051004865 1821038908 574457856 1343251922 -982186474 946925166 774947946 -400363844 -239144933 1842108865 1680651399 -840061805 -278030428 -907546850 1773386836 979570890 872842682 1698431728 931207903 1304298682
REM
CELL 1.54180   50.00000   50.00000   50.00000   90.00000   90.00000   90.00000
LATT -1
SFAC C  
C      1  0.5227750000000  0.4979500000000  0.4808170000000 1.0
C      1  0.5272560000000  0.5143620000000  0.5460610000000 1.0
C      1  0.4873720000000  0.4926280000000  0.5202020000000 1.0
C      1  0.5433340000000  0.5203420000000  0.4818570000000 1.0
C      1  0.5322250000000  0.5462560000000  0.4788710000000 1.0
C      1  0.4690800000000  0.5476130000000  0.5144120000000 1.0
C      1  0.4772960000000  0.4461480000000  0.4819880000000 1.0
C      1  0.4425060000000  0.5009850000000  0.4902490000000 1.0
C      1  0.5052010000000  0.5057080000000  0.5613400000000 1.0
C      1  0.5027110000000  0.4411990000000  0.5312890000000 1.0
C      1  0.5120670000000  0.4922270000000  0.5087580000000 1.0
C      1  0.4522890000000  0.4728200000000  0.4849500000000 1.0
C      1  0.4533730000000  0.5298470000000  0.5304690000000 1.0
C      1  0.5371900000000  0.4706550000000  0.4693080000000 1.0
C      1  0.5345480000000  0.4494710000000  0.5341720000000 1.0
C      1  0.4964580000000  0.5511280000000  0.5187440000000 1.0
C      1  0.5619470000000  0.4846320000000  0.5075410000000 1.0
C      1  0.5245550000000  0.5572080000000  0.5041920000000 1.0
C      1  0.5378800000000  0.4828380000000  0.5273180000000 1.0
C      1  0.4397460000000  0.5085340000000  0.5194590000000 1.0
C      1  0.5161840000000  0.5493560000000  0.4556050000000 1.0
C      1  0.5655520000000  0.5113370000000  0.4973780000000 1.0
C      1  0.4894780000000  0.5065440000000  0.4456770000000 1.0
C      1  0.4827380000000  0.4979800000000  0.5469660000000 1.0
C      1  0.5002810000000  0.5311860000000  0.4428550000000 1.0
C      1  0.5110860000000  0.4699900000000  0.5444030000000 1.0
C      1  0.5586300000000  0.4652890000000  0.4857990000000 1.0
C      1  0.5080580000000  0.4822200000000  0.4560700000000 1.0
C      1  0.4498840000000  0.5280490000000  0.4735960000000 1.0
C      1  0.5240400000000  0.5376960000000  0.5305070000000 1.0
C      1  0.4784850000000  0.4725620000000  0.4631670000000 1.0
C      1  0.4824050000000  0.4363870000000  0.5135040000000 1.0
C      1  0.4529890000000  0.4475140000000  0.5057320000000 1.0
C      1  0.4613540000000  0.5017770000000  0.4591850000000 1.0
C      1  0.4590280000000  0.5495660000000  0.4875590000000 1.0
END
