TITL C-2782229-3092-358 2.22672539609961e-05 125000 -837.620607925871 0 0 144 (C1) n - 1
REM
REM in /home/nfs/bkarasulu/CARBON/AIRSS/Generating-Clusters/REBO/Higher-Symm/SD-CG/HFTN-CG
REM
REM
REM
REM
REM
REM ./C.cell (12c818d87b63d06a65506943cc24bca4)
REM
REM compiler GCC version 9.2.1 20190827 (Red Hat 9.2.1-1)
REM options -cpp -mtune=generic -march=x86-64 -g -O0 -fpre-include=/usr/include/finclude/math-vector-fortran.h
REM seed -498552868 -452558973 1128841400 1171027415 -1050595864 -1399845215 756324286 -1219353942 1154523890 479170427 899431235 1010374963 640285297 1022304292 -1086048721 230305438 370213189 -1991687090 -48936153 -1402438939 -1358143693 -1261935173 990645678 899964038 -1010477833 823946965 793755320 -225569233 -1992118284 -370464424 -492941990 -288704814 911255168
REM
CELL 1.54180   50.00000   50.00000   50.00000   90.00000   90.00000   90.00000
LATT -1
SFAC C  
C      1  0.5482850000000  0.4626240000000  0.4401330000000 1.0
C      1  0.5480070000000  0.5300200000000  0.4421470000000 1.0
C      1  0.4862540000000  0.5584930000000  0.4451490000000 1.0
C      1  0.4386900000000  0.5120460000000  0.4426280000000 1.0
C      1  0.4850740000000  0.4436740000000  0.4414110000000 1.0
C      1  0.4994610000000  0.4385740000000  0.5201370000000 1.0
C      1  0.5609160000000  0.4794960000000  0.5124910000000 1.0
C      1  0.5391600000000  0.5405200000000  0.5191440000000 1.0
C      1  0.4750680000000  0.5466810000000  0.5214460000000 1.0
C      1  0.4439440000000  0.4899820000000  0.5154430000000 1.0
C      1  0.5096410000000  0.5283980000000  0.5133470000000 1.0
C      1  0.4711860000000  0.5182990000000  0.5093640000000 1.0
C      1  0.4707590000000  0.4761580000000  0.5106700000000 1.0
C      1  0.5165000000000  0.4677190000000  0.5181070000000 1.0
C      1  0.5450640000000  0.5017350000000  0.5137340000000 1.0
C      1  0.5812220000000  0.5035470000000  0.4432540000000 1.0
C      1  0.5223180000000  0.5784230000000  0.4462370000000 1.0
C      1  0.4310350000000  0.5520380000000  0.4493380000000 1.0
C      1  0.4421100000000  0.4532450000000  0.4457800000000 1.0
C      1  0.5325210000000  0.4231820000000  0.4476330000000 1.0
C      1  0.5410930000000  0.4149880000000  0.5194500000000 1.0
C      1  0.5894870000000  0.5119870000000  0.5143170000000 1.0
C      1  0.5194590000000  0.5884820000000  0.5170920000000 1.0
C      1  0.4152280000000  0.5427750000000  0.5179820000000 1.0
C      1  0.4341840000000  0.4382940000000  0.5141880000000 1.0
C      1  0.4693920000000  0.4028520000000  0.4906050000000 1.0
C      1  0.5840750000000  0.4371810000000  0.4867650000000 1.0
C      1  0.5888760000000  0.5578270000000  0.4847010000000 1.0
C      1  0.4752380000000  0.6025060000000  0.4920330000000 1.0
C      1  0.3908000000000  0.5038260000000  0.4865970000000 1.0
C      1  0.5376800000000  0.4898330000000  0.5605050000000 1.0
C      1  0.5279450000000  0.5422190000000  0.5574210000000 1.0
C      1  0.4723750000000  0.5306240000000  0.5579410000000 1.0
C      1  0.4593090000000  0.4797660000000  0.5506540000000 1.0
C      1  0.4948790000000  0.4485540000000  0.5667500000000 1.0
C      1  0.5376650000000  0.4267770000000  0.4944200000000 1.0
C      1  0.5763510000000  0.5085490000000  0.4898360000000 1.0
C      1  0.5170710000000  0.5747230000000  0.4929430000000 1.0
C      1  0.4299960000000  0.5415170000000  0.4944090000000 1.0
C      1  0.4437590000000  0.4519130000000  0.4918120000000 1.0
C      1  0.4520810000000  0.4015400000000  0.5427530000000 1.0
C      1  0.5330420000000  0.4370220000000  0.5638940000000 1.0
C      1  0.5937870000000  0.5525880000000  0.5408370000000 1.0
C      1  0.4836230000000  0.6006270000000  0.5467550000000 1.0
C      1  0.3935690000000  0.5065770000000  0.5429940000000 1.0
C      1  0.5800630000000  0.4376210000000  0.5140900000000 1.0
C      1  0.5832170000000  0.5661930000000  0.5166520000000 1.0
C      1  0.4656150000000  0.5968470000000  0.5237320000000 1.0
C      1  0.3935100000000  0.4914520000000  0.5175850000000 1.0
C      1  0.4730250000000  0.3977220000000  0.5223290000000 1.0
C      1  0.4771560000000  0.5808740000000  0.5679490000000 1.0
C      1  0.4092500000000  0.4918960000000  0.5638260000000 1.0
C      1  0.4650780000000  0.4080560000000  0.5691060000000 1.0
C      1  0.5536890000000  0.4496570000000  0.5835210000000 1.0
C      1  0.5752010000000  0.5566780000000  0.5642540000000 1.0
C      1  0.6013400000000  0.5257440000000  0.5347180000000 1.0
C      1  0.5108310000000  0.6026150000000  0.5387390000000 1.0
C      1  0.3995100000000  0.5341050000000  0.5385210000000 1.0
C      1  0.4315720000000  0.4189540000000  0.5332270000000 1.0
C      1  0.5376980000000  0.4159020000000  0.5462460000000 1.0
C      1  0.4826560000000  0.4617820000000  0.5384600000000 1.0
C      1  0.5206820000000  0.4638190000000  0.5503430000000 1.0
C      1  0.5373170000000  0.5142570000000  0.5415870000000 1.0
C      1  0.5007140000000  0.5422110000000  0.5429730000000 1.0
C      1  0.4598870000000  0.5093580000000  0.5393480000000 1.0
C      1  0.4510280000000  0.5817740000000  0.4806060000000 1.0
C      1  0.4099060000000  0.4794720000000  0.4722060000000 1.0
C      1  0.4998450000000  0.4055890000000  0.4767170000000 1.0
C      1  0.5945960000000  0.4656770000000  0.4719060000000 1.0
C      1  0.5603130000000  0.5729920000000  0.4745860000000 1.0
C      1  0.4515820000000  0.5168610000000  0.4869220000000 1.0
C      1  0.4757390000000  0.4584350000000  0.4852770000000 1.0
C      1  0.5339170000000  0.4575450000000  0.4930110000000 1.0
C      1  0.5433100000000  0.5171300000000  0.4856780000000 1.0
C      1  0.4989640000000  0.5460760000000  0.4895730000000 1.0
C      1  0.4080910000000  0.5091570000000  0.4572290000000 1.0
C      1  0.4741090000000  0.4166330000000  0.4590270000000 1.0
C      1  0.5740660000000  0.4459770000000  0.4550470000000 1.0
C      1  0.5728890000000  0.5493510000000  0.4552070000000 1.0
C      1  0.4775100000000  0.5873590000000  0.4610920000000 1.0
C      1  0.5300670000000  0.4817690000000  0.4696280000000 1.0
C      1  0.5190960000000  0.5199860000000  0.4673890000000 1.0
C      1  0.4854370000000  0.5255030000000  0.4674760000000 1.0
C      1  0.4639600000000  0.5000310000000  0.4600930000000 1.0
C      1  0.4986840000000  0.4687240000000  0.4690590000000 1.0
C      1  0.4305930000000  0.5625170000000  0.4756050000000 1.0
C      1  0.4270620000000  0.4567560000000  0.4695490000000 1.0
C      1  0.5276580000000  0.4116720000000  0.4727050000000 1.0
C      1  0.5907250000000  0.4959550000000  0.4688430000000 1.0
C      1  0.5337090000000  0.5828180000000  0.4716460000000 1.0
C      1  0.5691220000000  0.4592640000000  0.5303560000000 1.0
C      1  0.5548630000000  0.5695780000000  0.5226090000000 1.0
C      1  0.4530100000000  0.5708530000000  0.5282550000000 1.0
C      1  0.4162020000000  0.4735050000000  0.5200950000000 1.0
C      1  0.4962530000000  0.4117050000000  0.5337760000000 1.0
C      1  0.4660280000000  0.4714420000000  0.4465850000000 1.0
C      1  0.5168310000000  0.4504510000000  0.4463410000000 1.0
C      1  0.5502980000000  0.4961300000000  0.4462310000000 1.0
C      1  0.5181510000000  0.5464290000000  0.4461990000000 1.0
C      1  0.4601330000000  0.5377450000000  0.4481480000000 1.0
C      1  0.4793580000000  0.5484330000000  0.4148910000000 1.0
C      1  0.4405480000000  0.5036830000000  0.4132370000000 1.0
C      1  0.4783110000000  0.4479860000000  0.4108530000000 1.0
C      1  0.5325770000000  0.4639770000000  0.4118730000000 1.0
C      1  0.5349960000000  0.5302150000000  0.4126820000000 1.0
C      1  0.5346050000000  0.4922300000000  0.5913110000000 1.0
C      1  0.5378650000000  0.5374860000000  0.5870490000000 1.0
C      1  0.4913600000000  0.5391940000000  0.5848410000000 1.0
C      1  0.4530790000000  0.4739350000000  0.5806170000000 1.0
C      1  0.4696890000000  0.4519570000000  0.5874430000000 1.0
C      1  0.5584040000000  0.4240000000000  0.4393690000000 1.0
C      1  0.5873960000000  0.5291140000000  0.4359700000000 1.0
C      1  0.5010960000000  0.5951870000000  0.4412670000000 1.0
C      1  0.4083610000000  0.5377970000000  0.4428750000000 1.0
C      1  0.4493240000000  0.4259270000000  0.4410480000000 1.0
C      1  0.4807830000000  0.5301630000000  0.3986840000000 1.0
C      1  0.4575010000000  0.4977540000000  0.3962500000000 1.0
C      1  0.4783410000000  0.4664020000000  0.3943120000000 1.0
C      1  0.5171620000000  0.4755860000000  0.3968790000000 1.0
C      1  0.5198230000000  0.5196820000000  0.3967080000000 1.0
C      1  0.4277750000000  0.4732230000000  0.5479030000000 1.0
C      1  0.4923200000000  0.4170260000000  0.5614920000000 1.0
C      1  0.5604500000000  0.4648050000000  0.5563450000000 1.0
C      1  0.5494310000000  0.5639140000000  0.5509410000000 1.0
C      1  0.4596370000000  0.5607190000000  0.5555410000000 1.0
C      1  0.5647660000000  0.5442690000000  0.5887770000000 1.0
C      1  0.4923570000000  0.5668260000000  0.5877540000000 1.0
C      1  0.4274820000000  0.4851490000000  0.5870570000000 1.0
C      1  0.4567450000000  0.4260890000000  0.5901160000000 1.0
C      1  0.5445720000000  0.4692460000000  0.6029630000000 1.0
C      1  0.4237720000000  0.5021290000000  0.4933350000000 1.0
C      1  0.4863940000000  0.4317460000000  0.4939070000000 1.0
C      1  0.5637490000000  0.4708820000000  0.4839880000000 1.0
C      1  0.5587480000000  0.5442420000000  0.4922490000000 1.0
C      1  0.4778790000000  0.5691450000000  0.4972890000000 1.0
C      1  0.4926730000000  0.4998590000000  0.3589600000000 1.0
C      1  0.4930260000000  0.4991650000000  0.3896760000000 1.0
C      1  0.5096720000000  0.5180250000000  0.6276690000000 1.0
C      1  0.4977550000000  0.4963520000000  0.5173060000000 1.0
C      1  0.4952590000000  0.4974590000000  0.4242500000000 1.0
C      1  0.5138890000000  0.5179920000000  0.5993670000000 1.0
C      1  0.4984670000000  0.5008920000000  0.5740800000000 1.0
C      1  0.5050830000000  0.4953270000000  0.4501130000000 1.0
C      1  0.4964130000000  0.4974200000000  0.5502280000000 1.0
END
