TITL C-2782225-7408-654 0.00262456014297328 125000 -1123.93421002142 0 0 190 (C1) n - 1
REM
REM in /home/nfs/bkarasulu/CARBON/AIRSS/Generating-Clusters/REBO/Higher-Symm/SD-CG/HFTN-CG
REM
REM
REM
REM
REM
REM ./C.cell (12c818d87b63d06a65506943cc24bca4)
REM
REM compiler GCC version 9.2.1 20190827 (Red Hat 9.2.1-1)
REM options -cpp -mtune=generic -march=x86-64 -g -O0 -fpre-include=/usr/include/finclude/math-vector-fortran.h
REM seed 134825053 -1910501198 744988573 -526975741 -1289529881 847917200 1635429941 263239568 -1315561523 -566673737 4322839 2099689937 1016463545 -214992961 2030404042 -1428250623 -532678498 -855494812 1666843609 720755997 1181619970 390099951 1425510168 -1937499084 1788698014 668126372 1033506135 432301129 -68859228 -1602895102 1135576419 1462380592 314469270
REM
CELL 1.54180   50.00000   50.00000   50.00000   90.00000   90.00000   90.00000
LATT -1
SFAC C  
C      1  0.4983250000000  0.6063060000000  0.5170600000000 1.0
C      1  0.5007780000000  0.3968680000000  0.5177000000000 1.0
C      1  0.5059820000000  0.3955950000000  0.4841560000000 1.0
C      1  0.4926060000000  0.6052470000000  0.4843090000000 1.0
C      1  0.6043280000000  0.5029330000000  0.5193500000000 1.0
C      1  0.3966820000000  0.4989370000000  0.5141700000000 1.0
C      1  0.3878010000000  0.5065890000000  0.4822290000000 1.0
C      1  0.6094400000000  0.4957300000000  0.4865640000000 1.0
C      1  0.5558500000000  0.5781660000000  0.4638380000000 1.0
C      1  0.4425040000000  0.4226970000000  0.4629360000000 1.0
C      1  0.5594860000000  0.4222340000000  0.5397370000000 1.0
C      1  0.4409660000000  0.5768710000000  0.5398970000000 1.0
C      1  0.5756470000000  0.5567670000000  0.4649520000000 1.0
C      1  0.4214700000000  0.4444380000000  0.4623100000000 1.0
C      1  0.4208130000000  0.5572250000000  0.5401810000000 1.0
C      1  0.5791280000000  0.4423800000000  0.5398910000000 1.0
C      1  0.5367150000000  0.5904660000000  0.4411060000000 1.0
C      1  0.4626720000000  0.4086300000000  0.4425740000000 1.0
C      1  0.5375280000000  0.4079530000000  0.5579360000000 1.0
C      1  0.4631360000000  0.5916950000000  0.5584120000000 1.0
C      1  0.5889570000000  0.5375660000000  0.4440290000000 1.0
C      1  0.4083470000000  0.4636520000000  0.4414430000000 1.0
C      1  0.4088090000000  0.5347620000000  0.5597400000000 1.0
C      1  0.5919910000000  0.4634270000000  0.5604000000000 1.0
C      1  0.4796850000000  0.4167650000000  0.4198550000000 1.0
C      1  0.5208720000000  0.5811190000000  0.4188170000000 1.0
C      1  0.4807420000000  0.5836310000000  0.5791090000000 1.0
C      1  0.5220920000000  0.4150170000000  0.5800110000000 1.0
C      1  0.4199020000000  0.4788060000000  0.4192060000000 1.0
C      1  0.5791880000000  0.5235140000000  0.4209920000000 1.0
C      1  0.5779150000000  0.4771560000000  0.5817300000000 1.0
C      1  0.4248280000000  0.5197620000000  0.5786960000000 1.0
C      1  0.4908380000000  0.4208240000000  0.5862380000000 1.0
C      1  0.5137060000000  0.5771090000000  0.5845440000000 1.0
C      1  0.4920310000000  0.5808260000000  0.4211430000000 1.0
C      1  0.5124890000000  0.4240910000000  0.4266040000000 1.0
C      1  0.4272550000000  0.4886130000000  0.5817550000000 1.0
C      1  0.5764770000000  0.5076570000000  0.5855390000000 1.0
C      1  0.5800320000000  0.4948120000000  0.4216890000000 1.0
C      1  0.4238240000000  0.5119300000000  0.4264620000000 1.0
C      1  0.5964180000000  0.5397770000000  0.5533360000000 1.0
C      1  0.4019660000000  0.4618090000000  0.5502690000000 1.0
C      1  0.6024190000000  0.4566700000000  0.4501110000000 1.0
C      1  0.3930320000000  0.5461940000000  0.4514340000000 1.0
C      1  0.5403430000000  0.6024100000000  0.5504620000000 1.0
C      1  0.4604560000000  0.3997510000000  0.5534550000000 1.0
C      1  0.4545800000000  0.5994400000000  0.4510660000000 1.0
C      1  0.5477990000000  0.3970830000000  0.4530910000000 1.0
C      1  0.5693910000000  0.4904100000000  0.5416700000000 1.0
C      1  0.4325940000000  0.5108980000000  0.5384780000000 1.0
C      1  0.5677360000000  0.5066600000000  0.4577090000000 1.0
C      1  0.4303140000000  0.4944150000000  0.4541360000000 1.0
C      1  0.4936140000000  0.5722580000000  0.5414480000000 1.0
C      1  0.5089430000000  0.4297940000000  0.5404810000000 1.0
C      1  0.5077800000000  0.5668980000000  0.4549740000000 1.0
C      1  0.4940170000000  0.4303170000000  0.4541770000000 1.0
C      1  0.5139130000000  0.5719230000000  0.4864570000000 1.0
C      1  0.4859120000000  0.4300000000000  0.4845970000000 1.0
C      1  0.5037030000000  0.4277070000000  0.5078300000000 1.0
C      1  0.4964700000000  0.5744680000000  0.5094720000000 1.0
C      1  0.5732750000000  0.5104820000000  0.4893060000000 1.0
C      1  0.4243320000000  0.4920420000000  0.4862300000000 1.0
C      1  0.4255540000000  0.5150990000000  0.5072900000000 1.0
C      1  0.5754270000000  0.4890320000000  0.5105500000000 1.0
C      1  0.4082260000000  0.4695470000000  0.5193400000000 1.0
C      1  0.5869850000000  0.5320810000000  0.5226370000000 1.0
C      1  0.4021580000000  0.5376640000000  0.4829210000000 1.0
C      1  0.5948390000000  0.4654130000000  0.4821460000000 1.0
C      1  0.4690990000000  0.4086710000000  0.5223320000000 1.0
C      1  0.5301920000000  0.5948370000000  0.5203550000000 1.0
C      1  0.5380320000000  0.4073850000000  0.4831910000000 1.0
C      1  0.4623700000000  0.5898490000000  0.4820250000000 1.0
C      1  0.4634930000000  0.5048960000000  0.5787930000000 1.0
C      1  0.5391530000000  0.4941000000000  0.5815060000000 1.0
C      1  0.4591910000000  0.4966800000000  0.4157230000000 1.0
C      1  0.5392620000000  0.5018960000000  0.4178430000000 1.0
C      1  0.4986660000000  0.4597160000000  0.5824070000000 1.0
C      1  0.5037170000000  0.5386490000000  0.5836200000000 1.0
C      1  0.4991970000000  0.4596650000000  0.4143370000000 1.0
C      1  0.4994100000000  0.5390090000000  0.4136920000000 1.0
C      1  0.5232050000000  0.6002120000000  0.4701390000000 1.0
C      1  0.4743960000000  0.4007560000000  0.4721440000000 1.0
C      1  0.5299050000000  0.3971620000000  0.5309570000000 1.0
C      1  0.4697400000000  0.6024770000000  0.5307810000000 1.0
C      1  0.5992220000000  0.5254390000000  0.4731660000000 1.0
C      1  0.3986900000000  0.4763130000000  0.4702820000000 1.0
C      1  0.3966600000000  0.5269820000000  0.5321080000000 1.0
C      1  0.6038820000000  0.4723870000000  0.5330100000000 1.0
C      1  0.4782710000000  0.5367870000000  0.3969300000000 1.0
C      1  0.5211170000000  0.4617050000000  0.3986080000000 1.0
C      1  0.4788150000000  0.4641880000000  0.6000460000000 1.0
C      1  0.5232830000000  0.5345950000000  0.6016880000000 1.0
C      1  0.5400720000000  0.4813110000000  0.4003630000000 1.0
C      1  0.4591740000000  0.5171980000000  0.3980440000000 1.0
C      1  0.4633160000000  0.4864430000000  0.5985640000000 1.0
C      1  0.5399380000000  0.5130860000000  0.6007000000000 1.0
C      1  0.5430830000000  0.4353430000000  0.4644780000000 1.0
C      1  0.4571950000000  0.5617170000000  0.4631470000000 1.0
C      1  0.5382260000000  0.5659770000000  0.5346850000000 1.0
C      1  0.4612610000000  0.4368340000000  0.5401370000000 1.0
C      1  0.4301470000000  0.5407820000000  0.4647460000000 1.0
C      1  0.5658910000000  0.4609820000000  0.4646460000000 1.0
C      1  0.5587890000000  0.5396100000000  0.5410140000000 1.0
C      1  0.4379950000000  0.4608690000000  0.5336330000000 1.0
C      1  0.5245230000000  0.4527890000000  0.5117490000000 1.0
C      1  0.4794700000000  0.5477530000000  0.5134950000000 1.0
C      1  0.5258490000000  0.5439750000000  0.4822530000000 1.0
C      1  0.4698420000000  0.4555420000000  0.4870330000000 1.0
C      1  0.4556170000000  0.5277010000000  0.5104670000000 1.0
C      1  0.5486860000000  0.4727210000000  0.5124550000000 1.0
C      1  0.5444310000000  0.5209300000000  0.4868100000000 1.0
C      1  0.4514920000000  0.4788500000000  0.4840820000000 1.0
C      1  0.5194310000000  0.4508670000000  0.4793580000000 1.0
C      1  0.4774110000000  0.5448120000000  0.4817280000000 1.0
C      1  0.5283530000000  0.5434700000000  0.5155120000000 1.0
C      1  0.4746440000000  0.4546740000000  0.5189970000000 1.0
C      1  0.4528400000000  0.5250200000000  0.4781530000000 1.0
C      1  0.5426730000000  0.4715270000000  0.4814460000000 1.0
C      1  0.5482050000000  0.5184920000000  0.5192150000000 1.0
C      1  0.4553050000000  0.4795420000000  0.5153780000000 1.0
C      1  0.4692830000000  0.5034810000000  0.5249000000000 1.0
C      1  0.5323160000000  0.4950320000000  0.5277470000000 1.0
C      1  0.4667900000000  0.5000210000000  0.4692930000000 1.0
C      1  0.5315090000000  0.4976240000000  0.4720370000000 1.0
C      1  0.5005150000000  0.4663280000000  0.5265970000000 1.0
C      1  0.5026500000000  0.5317360000000  0.5260640000000 1.0
C      1  0.4957000000000  0.4662790000000  0.4709900000000 1.0
C      1  0.5009340000000  0.5308050000000  0.4703960000000 1.0
C      1  0.4180940000000  0.4899880000000  0.5522400000000 1.0
C      1  0.5845140000000  0.5103490000000  0.5560510000000 1.0
C      1  0.4014010000000  0.5131600000000  0.4517210000000 1.0
C      1  0.5933110000000  0.4863590000000  0.4484040000000 1.0
C      1  0.4903560000000  0.4133200000000  0.5557500000000 1.0
C      1  0.5127300000000  0.5883750000000  0.5557320000000 1.0
C      1  0.5142840000000  0.4025340000000  0.4518440000000 1.0
C      1  0.4847830000000  0.5913450000000  0.4491800000000 1.0
C      1  0.4530080000000  0.4101960000000  0.4953860000000 1.0
C      1  0.5468720000000  0.5931440000000  0.4934650000000 1.0
C      1  0.4486700000000  0.5900760000000  0.5090750000000 1.0
C      1  0.5518330000000  0.4078670000000  0.5095310000000 1.0
C      1  0.4097130000000  0.4538560000000  0.4930160000000 1.0
C      1  0.5868180000000  0.5474370000000  0.4959780000000 1.0
C      1  0.5932890000000  0.4510260000000  0.5097030000000 1.0
C      1  0.4050920000000  0.5501700000000  0.5103830000000 1.0
C      1  0.4506720000000  0.5296990000000  0.5499030000000 1.0
C      1  0.5520550000000  0.4703260000000  0.5520960000000 1.0
C      1  0.4493610000000  0.4713060000000  0.4450190000000 1.0
C      1  0.5496920000000  0.5262630000000  0.4476350000000 1.0
C      1  0.5284090000000  0.4467870000000  0.5537670000000 1.0
C      1  0.4743740000000  0.5536630000000  0.5534160000000 1.0
C      1  0.4691340000000  0.4491490000000  0.4406530000000 1.0
C      1  0.5278470000000  0.5496630000000  0.4423680000000 1.0
C      1  0.5215820000000  0.4976170000000  0.5573260000000 1.0
C      1  0.4817280000000  0.5017920000000  0.5547970000000 1.0
C      1  0.5206690000000  0.4994400000000  0.4417580000000 1.0
C      1  0.4773210000000  0.4992770000000  0.4396710000000 1.0
C      1  0.5044440000000  0.5246390000000  0.5571620000000 1.0
C      1  0.4995900000000  0.4748560000000  0.5566390000000 1.0
C      1  0.4982590000000  0.5231520000000  0.4393650000000 1.0
C      1  0.4988540000000  0.4757100000000  0.4401170000000 1.0
C      1  0.4353630000000  0.5817650000000  0.4363220000000 1.0
C      1  0.5641240000000  0.4147110000000  0.4375260000000 1.0
C      1  0.4374680000000  0.4171040000000  0.5653520000000 1.0
C      1  0.5635560000000  0.5871250000000  0.5612900000000 1.0
C      1  0.5825860000000  0.4383120000000  0.4363630000000 1.0
C      1  0.4115970000000  0.5630600000000  0.4372640000000 1.0
C      1  0.4148230000000  0.4369140000000  0.5614090000000 1.0
C      1  0.5801100000000  0.5622830000000  0.5660380000000 1.0
C      1  0.4535440000000  0.5346870000000  0.5833870000000 1.0
C      1  0.5486570000000  0.4639840000000  0.5854400000000 1.0
C      1  0.4488150000000  0.4664390000000  0.4109280000000 1.0
C      1  0.5496210000000  0.5321230000000  0.4137920000000 1.0
C      1  0.5250200000000  0.4452260000000  0.5885320000000 1.0
C      1  0.4772430000000  0.5533250000000  0.5879570000000 1.0
C      1  0.4715930000000  0.4451880000000  0.4069040000000 1.0
C      1  0.5277470000000  0.5524450000000  0.4081560000000 1.0
C      1  0.5425830000000  0.4394580000000  0.4305480000000 1.0
C      1  0.4637880000000  0.5637150000000  0.4296170000000 1.0
C      1  0.5402280000000  0.5625380000000  0.5686760000000 1.0
C      1  0.4639410000000  0.4367700000000  0.5741140000000 1.0
C      1  0.4372530000000  0.5422960000000  0.4312330000000 1.0
C      1  0.5638170000000  0.4662720000000  0.4308200000000 1.0
C      1  0.5604190000000  0.5357600000000  0.5748930000000 1.0
C      1  0.4398580000000  0.4602370000000  0.5676860000000 1.0
C      1  0.5748840000000  0.5775960000000  0.4988740000000 1.0
C      1  0.4265820000000  0.4261320000000  0.4971570000000 1.0
C      1  0.5816320000000  0.4206450000000  0.5065730000000 1.0
C      1  0.4178570000000  0.5799500000000  0.5075270000000 1.0
C      1  0.4990860000000  0.4987410000000  0.4811430000000 1.0
C      1  0.5008980000000  0.4991650000000  0.5151150000000 1.0
END
