TITL C-2782228-2999-8 -0.00659630418162444 125000 -562.719130389749 0 0 98 (C1) n - 1
REM
REM in /home/nfs/bkarasulu/CARBON/AIRSS/Generating-Clusters/REBO/Higher-Symm/SD-CG/HFTN-CG
REM
REM
REM
REM
REM
REM ./C.cell (12c818d87b63d06a65506943cc24bca4)
REM
REM compiler GCC version 9.2.1 20190827 (Red Hat 9.2.1-1)
REM options -cpp -mtune=generic -march=x86-64 -g -O0 -fpre-include=/usr/include/finclude/math-vector-fortran.h
REM seed 927935261 -248674897 -1717922280 475054726 -924077371 1846018782 1068473928 1571502824 -1068122349 -806427424 1268693486 -256993582 1036949718 -1212673254 -1513304956 -1239910333 -1822470013 -1788691859 -801299395 -1474658283 162521203 360537436 -308763740 1015129038 854344559 -2099406186 805857786 593693249 58217839 -718118390 1892076880 -784024085 861494096
REM
CELL 1.54180   50.00000   50.00000   50.00000   90.00000   90.00000   90.00000
LATT -1
SFAC C  
C      1  0.5399830000000  0.5690460000000  0.5014880000000 1.0
C      1  0.4610030000000  0.4359910000000  0.5021160000000 1.0
C      1  0.5376340000000  0.4366540000000  0.5025560000000 1.0
C      1  0.4604980000000  0.5690720000000  0.5018200000000 1.0
C      1  0.4849260000000  0.4410550000000  0.5614140000000 1.0
C      1  0.5156160000000  0.5497690000000  0.5614550000000 1.0
C      1  0.4862420000000  0.5483040000000  0.5606310000000 1.0
C      1  0.5124500000000  0.4445530000000  0.5609080000000 1.0
C      1  0.4868680000000  0.5760390000000  0.5200610000000 1.0
C      1  0.5121410000000  0.4387090000000  0.5213850000000 1.0
C      1  0.4861960000000  0.4380320000000  0.5215860000000 1.0
C      1  0.5138440000000  0.5763140000000  0.5200230000000 1.0
C      1  0.4262720000000  0.5508250000000  0.4925340000000 1.0
C      1  0.5806970000000  0.4582430000000  0.4921180000000 1.0
C      1  0.4188360000000  0.4582340000000  0.4914230000000 1.0
C      1  0.5745210000000  0.5510240000000  0.4924440000000 1.0
C      1  0.5126930000000  0.5167720000000  0.4846980000000 1.0
C      1  0.4871330000000  0.4746900000000  0.4909290000000 1.0
C      1  0.5129940000000  0.4751910000000  0.4908150000000 1.0
C      1  0.4867850000000  0.5163280000000  0.4849170000000 1.0
C      1  0.5519690000000  0.4833520000000  0.4898020000000 1.0
C      1  0.4413540000000  0.5146170000000  0.4871170000000 1.0
C      1  0.5600110000000  0.5147790000000  0.4865360000000 1.0
C      1  0.4481670000000  0.4827100000000  0.4900260000000 1.0
C      1  0.4696950000000  0.4791900000000  0.5160100000000 1.0
C      1  0.5331800000000  0.5151390000000  0.5048550000000 1.0
C      1  0.4681060000000  0.5123180000000  0.5078290000000 1.0
C      1  0.5305140000000  0.4799560000000  0.5147220000000 1.0
C      1  0.5790400000000  0.4879890000000  0.5092530000000 1.0
C      1  0.4162250000000  0.5216140000000  0.5068930000000 1.0
C      1  0.5842790000000  0.5216740000000  0.5069170000000 1.0
C      1  0.4208530000000  0.4878770000000  0.5086620000000 1.0
C      1  0.4354550000000  0.4812200000000  0.5385580000000 1.0
C      1  0.5638960000000  0.5158890000000  0.5335240000000 1.0
C      1  0.4365740000000  0.5151170000000  0.5333650000000 1.0
C      1  0.5625840000000  0.4820330000000  0.5385230000000 1.0
C      1  0.5164710000000  0.5187770000000  0.5995270000000 1.0
C      1  0.4819760000000  0.4850930000000  0.6059890000000 1.0
C      1  0.5138350000000  0.4879300000000  0.6064160000000 1.0
C      1  0.4859490000000  0.5147910000000  0.5971130000000 1.0
C      1  0.5366380000000  0.4400140000000  0.4694840000000 1.0
C      1  0.4639850000000  0.5613200000000  0.4703490000000 1.0
C      1  0.5355150000000  0.5610030000000  0.4701610000000 1.0
C      1  0.4630300000000  0.4396560000000  0.4691280000000 1.0
C      1  0.4394650000000  0.4880130000000  0.4574860000000 1.0
C      1  0.5649780000000  0.5171840000000  0.4529830000000 1.0
C      1  0.4349650000000  0.5172700000000  0.4538040000000 1.0
C      1  0.5606810000000  0.4878870000000  0.4571480000000 1.0
C      1  0.5413370000000  0.4782150000000  0.5648100000000 1.0
C      1  0.4608000000000  0.5079580000000  0.5535630000000 1.0
C      1  0.5413660000000  0.5100900000000  0.5571270000000 1.0
C      1  0.4573070000000  0.4765560000000  0.5630950000000 1.0
C      1  0.4379230000000  0.4533620000000  0.5191680000000 1.0
C      1  0.5560740000000  0.5462010000000  0.5208800000000 1.0
C      1  0.4447710000000  0.5456940000000  0.5209110000000 1.0
C      1  0.5605860000000  0.4540660000000  0.5192370000000 1.0
C      1  0.5630110000000  0.4557480000000  0.4631450000000 1.0
C      1  0.4370300000000  0.5486030000000  0.4612910000000 1.0
C      1  0.5625650000000  0.5483130000000  0.4613750000000 1.0
C      1  0.4369330000000  0.4557820000000  0.4627240000000 1.0
C      1  0.5172820000000  0.4841190000000  0.4295130000000 1.0
C      1  0.4826220000000  0.5181240000000  0.4255780000000 1.0
C      1  0.5169510000000  0.5180690000000  0.4253740000000 1.0
C      1  0.4830480000000  0.4842380000000  0.4298930000000 1.0
C      1  0.5291790000000  0.5297100000000  0.5768160000000 1.0
C      1  0.4623430000000  0.4702310000000  0.5923280000000 1.0
C      1  0.5328420000000  0.4713350000000  0.5932010000000 1.0
C      1  0.4740420000000  0.5265240000000  0.5743040000000 1.0
C      1  0.4841020000000  0.4769980000000  0.5441680000000 1.0
C      1  0.5202500000000  0.5141530000000  0.5323510000000 1.0
C      1  0.4886800000000  0.5091720000000  0.5342340000000 1.0
C      1  0.5165420000000  0.4819610000000  0.5433000000000 1.0
C      1  0.5475270000000  0.4681530000000  0.4344580000000 1.0
C      1  0.4533450000000  0.5348590000000  0.4334020000000 1.0
C      1  0.5461240000000  0.5350340000000  0.4332710000000 1.0
C      1  0.4525800000000  0.4685390000000  0.4343290000000 1.0
C      1  0.4753100000000  0.5571910000000  0.4279820000000 1.0
C      1  0.5284150000000  0.4469800000000  0.4200890000000 1.0
C      1  0.4715950000000  0.4473690000000  0.4197970000000 1.0
C      1  0.5239280000000  0.5571700000000  0.4275410000000 1.0
C      1  0.5143940000000  0.5440530000000  0.4555640000000 1.0
C      1  0.4845600000000  0.4486560000000  0.4477350000000 1.0
C      1  0.5152220000000  0.4488550000000  0.4479110000000 1.0
C      1  0.4849060000000  0.5438380000000  0.4559790000000 1.0
C      1  0.4622500000000  0.4436830000000  0.5410450000000 1.0
C      1  0.5296690000000  0.5587270000000  0.5383810000000 1.0
C      1  0.4716450000000  0.5576530000000  0.5381320000000 1.0
C      1  0.5352970000000  0.4467600000000  0.5409160000000 1.0
C      1  0.4775710000000  0.4780530000000  0.4633870000000 1.0
C      1  0.5248570000000  0.5115820000000  0.4570830000000 1.0
C      1  0.4742700000000  0.5113500000000  0.4574770000000 1.0
C      1  0.5224400000000  0.4784470000000  0.4631820000000 1.0
C      1  0.5250100000000  0.4121020000000  0.4834520000000 1.0
C      1  0.4754730000000  0.5907020000000  0.4803710000000 1.0
C      1  0.5244370000000  0.5905250000000  0.4802900000000 1.0
C      1  0.4748910000000  0.4118940000000  0.4832370000000 1.0
C      1  0.4999940000000  0.6008910000000  0.4784450000000 1.0
C      1  0.4999790000000  0.4024470000000  0.4825840000000 1.0
END
