TITL C-2782237-5345-232 0.00722821526134748 125000 -953.901907055191 0 0 157 (C1) n - 1
REM
REM in /home/nfs/bkarasulu/CARBON/AIRSS/Generating-Clusters/REBO/Higher-Symm/SD-CG/HFTN-CG
REM
REM
REM
REM
REM
REM ./C.cell (12c818d87b63d06a65506943cc24bca4)
REM
REM compiler GCC version 9.2.1 20190827 (Red Hat 9.2.1-1)
REM options -cpp -mtune=generic -march=x86-64 -g -O0 -fpre-include=/usr/include/finclude/math-vector-fortran.h
REM seed -1778805179 1986662235 1498519614 1805925646 925749564 -1451214299 -1974476097 659139353 -1974658115 -1813173838 2134827754 -115804605 1010662143 -295225420 938594729 -1104003363 1514849599 2063878457 -684765262 1845347134 -776446357 849551353 -15702220 -1819174609 -1989690374 -52614756 272387989 -1725023683 1237612665 -1699087821 140210497 -578927277 -2057342724
REM
CELL 1.54180   50.00000   50.00000   50.00000   90.00000   90.00000   90.00000
LATT -1
SFAC C  
C      1  0.5645030000000  0.4636250000000  0.5303970000000 1.0
C      1  0.5505500000000  0.4626840000000  0.4482780000000 1.0
C      1  0.4673190000000  0.4631240000000  0.4391060000000 1.0
C      1  0.4276840000000  0.4634900000000  0.5126260000000 1.0
C      1  0.4891340000000  0.4643650000000  0.5713850000000 1.0
C      1  0.4831420000000  0.4629480000000  0.4889840000000 1.0
C      1  0.4772310000000  0.4762480000000  0.5171700000000 1.0
C      1  0.5030650000000  0.4592900000000  0.5233800000000 1.0
C      1  0.5211700000000  0.4585210000000  0.5001010000000 1.0
C      1  0.5094830000000  0.4756620000000  0.4752280000000 1.0
C      1  0.5115470000000  0.4570480000000  0.4065080000000 1.0
C      1  0.4134220000000  0.4588140000000  0.4586710000000 1.0
C      1  0.4327700000000  0.4586470000000  0.5696770000000 1.0
C      1  0.5461480000000  0.4566750000000  0.5820650000000 1.0
C      1  0.5949670000000  0.4572590000000  0.4806080000000 1.0
C      1  0.4998970000000  0.4282350000000  0.5331990000000 1.0
C      1  0.5271900000000  0.4278100000000  0.4934760000000 1.0
C      1  0.5030710000000  0.4162940000000  0.4750670000000 1.0
C      1  0.4784990000000  0.4291250000000  0.4892090000000 1.0
C      1  0.4754820000000  0.4153000000000  0.5164700000000 1.0
C      1  0.4835540000000  0.5627950000000  0.4191470000000 1.0
C      1  0.4162200000000  0.5582120000000  0.4881480000000 1.0
C      1  0.4660060000000  0.5577580000000  0.5765170000000 1.0
C      1  0.5635910000000  0.5610630000000  0.5540770000000 1.0
C      1  0.5680620000000  0.5616260000000  0.4593430000000 1.0
C      1  0.5551070000000  0.5849590000000  0.4694510000000 1.0
C      1  0.4855060000000  0.5864850000000  0.4351240000000 1.0
C      1  0.4285140000000  0.5834710000000  0.4889930000000 1.0
C      1  0.4747390000000  0.5794240000000  0.5607840000000 1.0
C      1  0.5502140000000  0.5848360000000  0.5461230000000 1.0
C      1  0.5529190000000  0.4575810000000  0.5004130000000 1.0
C      1  0.5187870000000  0.4578020000000  0.4502490000000 1.0
C      1  0.4584520000000  0.4574710000000  0.4695330000000 1.0
C      1  0.4537150000000  0.4598670000000  0.5315600000000 1.0
C      1  0.5167250000000  0.4587310000000  0.5523150000000 1.0
C      1  0.4648230000000  0.5181000000000  0.4739940000000 1.0
C      1  0.4664610000000  0.5063440000000  0.5228440000000 1.0
C      1  0.5036280000000  0.5064500000000  0.5367840000000 1.0
C      1  0.5411270000000  0.5070460000000  0.5050400000000 1.0
C      1  0.5166940000000  0.5077390000000  0.4665240000000 1.0
C      1  0.5638210000000  0.5033120000000  0.5375740000000 1.0
C      1  0.5562410000000  0.5019410000000  0.4527430000000 1.0
C      1  0.4738360000000  0.5021750000000  0.4344020000000 1.0
C      1  0.4262360000000  0.5029150000000  0.5075030000000 1.0
C      1  0.4846480000000  0.5040630000000  0.5716740000000 1.0
C      1  0.4843350000000  0.3699250000000  0.4930830000000 1.0
C      1  0.4802130000000  0.3828470000000  0.5186940000000 1.0
C      1  0.5079220000000  0.3958030000000  0.5279970000000 1.0
C      1  0.5232710000000  0.3968590000000  0.5031400000000 1.0
C      1  0.5064860000000  0.3835250000000  0.4803130000000 1.0
C      1  0.4533460000000  0.4955300000000  0.4609170000000 1.0
C      1  0.4400230000000  0.4965520000000  0.5382960000000 1.0
C      1  0.5173330000000  0.4968810000000  0.5632410000000 1.0
C      1  0.5692110000000  0.4936420000000  0.5047430000000 1.0
C      1  0.5260960000000  0.4949090000000  0.4380520000000 1.0
C      1  0.5362930000000  0.5287800000000  0.5311110000000 1.0
C      1  0.5400950000000  0.5268760000000  0.4794210000000 1.0
C      1  0.4924390000000  0.5287030000000  0.4627150000000 1.0
C      1  0.4577040000000  0.5255470000000  0.4989650000000 1.0
C      1  0.4827250000000  0.5299660000000  0.5413310000000 1.0
C      1  0.5783020000000  0.4472100000000  0.4604160000000 1.0
C      1  0.4884330000000  0.4467890000000  0.4179440000000 1.0
C      1  0.4150240000000  0.4481770000000  0.4848160000000 1.0
C      1  0.4587530000000  0.4488670000000  0.5750750000000 1.0
C      1  0.5605310000000  0.4472930000000  0.5598540000000 1.0
C      1  0.5121780000000  0.5443990000000  0.5455130000000 1.0
C      1  0.5487950000000  0.5459470000000  0.5064960000000 1.0
C      1  0.5296770000000  0.5486110000000  0.4591530000000 1.0
C      1  0.4691760000000  0.5522460000000  0.4544980000000 1.0
C      1  0.4577650000000  0.5452670000000  0.5249350000000 1.0
C      1  0.4378390000000  0.5049770000000  0.5892160000000 1.0
C      1  0.5674360000000  0.5011740000000  0.5778320000000 1.0
C      1  0.5954020000000  0.5026630000000  0.4606320000000 1.0
C      1  0.4927400000000  0.5025570000000  0.3992040000000 1.0
C      1  0.3969400000000  0.5074740000000  0.4665960000000 1.0
C      1  0.5145630000000  0.6073460000000  0.4846640000000 1.0
C      1  0.4841860000000  0.6005510000000  0.4828800000000 1.0
C      1  0.4718800000000  0.6039370000000  0.5112750000000 1.0
C      1  0.4975680000000  0.5999730000000  0.5290970000000 1.0
C      1  0.5225190000000  0.6066370000000  0.5118770000000 1.0
C      1  0.5426060000000  0.4962070000000  0.4082980000000 1.0
C      1  0.4272880000000  0.4945660000000  0.4287750000000 1.0
C      1  0.4078530000000  0.4969950000000  0.5487770000000 1.0
C      1  0.5205090000000  0.4962530000000  0.5973250000000 1.0
C      1  0.6025530000000  0.4965300000000  0.5107930000000 1.0
C      1  0.5957410000000  0.4698960000000  0.5270730000000 1.0
C      1  0.5566680000000  0.4691590000000  0.4174900000000 1.0
C      1  0.4412330000000  0.4700010000000  0.4216710000000 1.0
C      1  0.4032870000000  0.4700790000000  0.5327750000000 1.0
C      1  0.5028690000000  0.4704490000000  0.5996680000000 1.0
C      1  0.4400140000000  0.5926660000000  0.4638800000000 1.0
C      1  0.4593420000000  0.5859210000000  0.5380480000000 1.0
C      1  0.5289400000000  0.5916110000000  0.5646870000000 1.0
C      1  0.5638170000000  0.5912800000000  0.4964280000000 1.0
C      1  0.5131730000000  0.5947190000000  0.4393100000000 1.0
C      1  0.4169280000000  0.4470720000000  0.5474120000000 1.0
C      1  0.5195130000000  0.4466210000000  0.5903550000000 1.0
C      1  0.5939600000000  0.4465590000000  0.5080940000000 1.0
C      1  0.5374080000000  0.4457980000000  0.4145030000000 1.0
C      1  0.4309830000000  0.4464610000000  0.4379450000000 1.0
C      1  0.4967300000000  0.4804540000000  0.4376280000000 1.0
C      1  0.4384330000000  0.4803400000000  0.4850760000000 1.0
C      1  0.4655140000000  0.4823310000000  0.5547250000000 1.0
C      1  0.5421210000000  0.4810980000000  0.5492840000000 1.0
C      1  0.5611330000000  0.4797120000000  0.4759540000000 1.0
C      1  0.4386070000000  0.5441510000000  0.5682190000000 1.0
C      1  0.5478550000000  0.5464360000000  0.5775100000000 1.0
C      1  0.5882230000000  0.5482410000000  0.4803240000000 1.0
C      1  0.5105840000000  0.5470630000000  0.4158320000000 1.0
C      1  0.4229320000000  0.5415220000000  0.4629540000000 1.0
C      1  0.4325800000000  0.5433900000000  0.5408950000000 1.0
C      1  0.5201490000000  0.5435080000000  0.5748170000000 1.0
C      1  0.5789110000000  0.5439230000000  0.5064290000000 1.0
C      1  0.5329440000000  0.5431250000000  0.4318470000000 1.0
C      1  0.4442070000000  0.5411810000000  0.4452220000000 1.0
C      1  0.5369620000000  0.4256280000000  0.4354600000000 1.0
C      1  0.4499240000000  0.4263570000000  0.4460610000000 1.0
C      1  0.4300920000000  0.4277580000000  0.5304120000000 1.0
C      1  0.5055710000000  0.4268000000000  0.5734200000000 1.0
C      1  0.5738380000000  0.4263840000000  0.5138190000000 1.0
C      1  0.5692970000000  0.5279640000000  0.5598080000000 1.0
C      1  0.5768610000000  0.5288070000000  0.4558470000000 1.0
C      1  0.4827460000000  0.5288310000000  0.4152540000000 1.0
C      1  0.4109090000000  0.5245810000000  0.4899000000000 1.0
C      1  0.4624160000000  0.5244180000000  0.5826180000000 1.0
C      1  0.4086160000000  0.4872280000000  0.4507560000000 1.0
C      1  0.4253370000000  0.4863110000000  0.5740480000000 1.0
C      1  0.5490100000000  0.4845800000000  0.5885120000000 1.0
C      1  0.6012540000000  0.4852930000000  0.4804890000000 1.0
C      1  0.5132830000000  0.4850310000000  0.4004070000000 1.0
C      1  0.5571930000000  0.4261490000000  0.4868630000000 1.0
C      1  0.5064550000000  0.4266340000000  0.4474040000000 1.0
C      1  0.4490010000000  0.4258060000000  0.4776510000000 1.0
C      1  0.4604630000000  0.4288150000000  0.5395040000000 1.0
C      1  0.5283350000000  0.4264150000000  0.5493670000000 1.0
C      1  0.5579900000000  0.4239480000000  0.4545530000000 1.0
C      1  0.4759330000000  0.4243520000000  0.4349520000000 1.0
C      1  0.4273160000000  0.4249960000000  0.5020610000000 1.0
C      1  0.4782460000000  0.4262500000000  0.5666860000000 1.0
C      1  0.5585610000000  0.4248160000000  0.5376540000000 1.0
C      1  0.5055500000000  0.5241560000000  0.5896490000000 1.0
C      1  0.5881880000000  0.5230230000000  0.5235440000000 1.0
C      1  0.5516200000000  0.5226110000000  0.4259220000000 1.0
C      1  0.4453730000000  0.5177640000000  0.4289970000000 1.0
C      1  0.4133110000000  0.5247070000000  0.5306140000000 1.0
C      1  0.5267380000000  0.5669070000000  0.5024510000000 1.0
C      1  0.5147790000000  0.5648480000000  0.4768030000000 1.0
C      1  0.4837940000000  0.5677810000000  0.4781870000000 1.0
C      1  0.4845400000000  0.5537070000000  0.5078890000000 1.0
C      1  0.5061940000000  0.5687940000000  0.5259810000000 1.0
C      1  0.4673190000000  0.5962570000000  0.4557700000000 1.0
C      1  0.4413560000000  0.5920660000000  0.5124240000000 1.0
C      1  0.5014630000000  0.5910350000000  0.5588840000000 1.0
C      1  0.5479150000000  0.5962490000000  0.5194610000000 1.0
C      1  0.5301150000000  0.5986380000000  0.4620710000000 1.0
C      1  0.4973510000000  0.5281650000000  0.4948290000000 1.0
C      1  0.5104540000000  0.5075560000000  0.5095540000000 1.0
END
