TITL C-2782230-7391-146 0.000438983443617937 125000 -938.907509478093 0 0 160 (C1) n - 1
REM
REM in /home/nfs/bkarasulu/CARBON/AIRSS/Generating-Clusters/REBO/Higher-Symm/SD-CG/HFTN-CG
REM
REM
REM
REM
REM
REM ./C.cell (12c818d87b63d06a65506943cc24bca4)
REM
REM compiler GCC version 9.2.1 20190827 (Red Hat 9.2.1-1)
REM options -cpp -mtune=generic -march=x86-64 -g -O0 -fpre-include=/usr/include/finclude/math-vector-fortran.h
REM seed 1942905770 1507082039 -1652262593 -829618821 -1655499181 -954704581 1996471274 1966718279 497528230 -915138988 -2039862954 1465476218 156293367 -170992228 -1702521029 530158083 982229695 1790384696 1985780925 -896220687 337875353 714565051 354339541 536666065 959372512 2027751458 -1964337377 -278085372 228258254 -496082080 -225816769 -2094734285 -1262573037
REM
CELL 1.54180   50.00000   50.00000   50.00000   90.00000   90.00000   90.00000
LATT -1
SFAC C  
C      1  0.5079870000000  0.3997300000000  0.5151450000000 1.0
C      1  0.4863000000000  0.5982840000000  0.5127940000000 1.0
C      1  0.5077970000000  0.4009890000000  0.4877020000000 1.0
C      1  0.4883930000000  0.5971760000000  0.4859210000000 1.0
C      1  0.4932120000000  0.4868430000000  0.4830210000000 1.0
C      1  0.5053940000000  0.5142550000000  0.4845170000000 1.0
C      1  0.4905070000000  0.4822620000000  0.5129040000000 1.0
C      1  0.5005560000000  0.5105490000000  0.5140630000000 1.0
C      1  0.5900900000000  0.4830470000000  0.5207170000000 1.0
C      1  0.4190570000000  0.5171420000000  0.5145990000000 1.0
C      1  0.5892450000000  0.4849930000000  0.4905650000000 1.0
C      1  0.4184000000000  0.5188660000000  0.4866980000000 1.0
C      1  0.4655280000000  0.4062120000000  0.4561530000000 1.0
C      1  0.5299350000000  0.5947210000000  0.4530030000000 1.0
C      1  0.4647450000000  0.4002000000000  0.5450630000000 1.0
C      1  0.5288120000000  0.5946670000000  0.5425140000000 1.0
C      1  0.5508200000000  0.5474910000000  0.5798300000000 1.0
C      1  0.4560400000000  0.4527800000000  0.5829820000000 1.0
C      1  0.5494540000000  0.5447090000000  0.4198390000000 1.0
C      1  0.4511280000000  0.4568940000000  0.4213610000000 1.0
C      1  0.4738320000000  0.4217320000000  0.4843870000000 1.0
C      1  0.5253910000000  0.5822910000000  0.4839450000000 1.0
C      1  0.4709350000000  0.4145860000000  0.5154070000000 1.0
C      1  0.5217720000000  0.5770270000000  0.5153280000000 1.0
C      1  0.5672440000000  0.5664610000000  0.5457370000000 1.0
C      1  0.4349760000000  0.4377740000000  0.5441390000000 1.0
C      1  0.5654170000000  0.5635480000000  0.4553590000000 1.0
C      1  0.4328960000000  0.4409360000000  0.4536560000000 1.0
C      1  0.4960230000000  0.5411380000000  0.5542590000000 1.0
C      1  0.5036180000000  0.4587240000000  0.5567560000000 1.0
C      1  0.4999910000000  0.5409360000000  0.4429480000000 1.0
C      1  0.5017910000000  0.4585870000000  0.4404000000000 1.0
C      1  0.4518040000000  0.5779550000000  0.4370290000000 1.0
C      1  0.5471910000000  0.4203340000000  0.4398490000000 1.0
C      1  0.4495200000000  0.5766330000000  0.5622110000000 1.0
C      1  0.5483500000000  0.4209670000000  0.5713010000000 1.0
C      1  0.4663050000000  0.5743710000000  0.5259980000000 1.0
C      1  0.5264450000000  0.4228630000000  0.5264440000000 1.0
C      1  0.4687490000000  0.5733090000000  0.4727410000000 1.0
C      1  0.5272700000000  0.4242490000000  0.4741890000000 1.0
C      1  0.5434330000000  0.4451070000000  0.4242700000000 1.0
C      1  0.4546590000000  0.5515750000000  0.4227590000000 1.0
C      1  0.5424350000000  0.4478030000000  0.5820960000000 1.0
C      1  0.4548010000000  0.5508450000000  0.5772700000000 1.0
C      1  0.5563500000000  0.5400040000000  0.4773700000000 1.0
C      1  0.4459210000000  0.4633180000000  0.4742190000000 1.0
C      1  0.5565090000000  0.5423160000000  0.5264700000000 1.0
C      1  0.4461300000000  0.4614790000000  0.5237830000000 1.0
C      1  0.4489990000000  0.3984590000000  0.4852680000000 1.0
C      1  0.5467720000000  0.6085100000000  0.4791660000000 1.0
C      1  0.4447940000000  0.3925400000000  0.5185770000000 1.0
C      1  0.5434650000000  0.6033430000000  0.5127160000000 1.0
C      1  0.4153360000000  0.4655360000000  0.5132690000000 1.0
C      1  0.5891040000000  0.5411370000000  0.5143860000000 1.0
C      1  0.4149000000000  0.4663040000000  0.4876010000000 1.0
C      1  0.5888060000000  0.5405070000000  0.4886300000000 1.0
C      1  0.4633390000000  0.5011610000000  0.4086050000000 1.0
C      1  0.5390090000000  0.5002740000000  0.4046090000000 1.0
C      1  0.4671280000000  0.4991420000000  0.5929490000000 1.0
C      1  0.5427260000000  0.5059700000000  0.6010210000000 1.0
C      1  0.5737160000000  0.4194360000000  0.4809340000000 1.0
C      1  0.4243490000000  0.5796390000000  0.4856160000000 1.0
C      1  0.5723600000000  0.4174770000000  0.5122710000000 1.0
C      1  0.4218450000000  0.5781020000000  0.5168530000000 1.0
C      1  0.4314530000000  0.5545600000000  0.4744800000000 1.0
C      1  0.5653520000000  0.4451010000000  0.4720320000000 1.0
C      1  0.4308740000000  0.5533160000000  0.5268370000000 1.0
C      1  0.5652310000000  0.4425410000000  0.5240630000000 1.0
C      1  0.4987440000000  0.5945920000000  0.4572980000000 1.0
C      1  0.4973620000000  0.4031840000000  0.4585170000000 1.0
C      1  0.4971460000000  0.5949410000000  0.5408460000000 1.0
C      1  0.4930210000000  0.3874210000000  0.5345020000000 1.0
C      1  0.4597380000000  0.4866460000000  0.5516250000000 1.0
C      1  0.5352310000000  0.5084250000000  0.5490780000000 1.0
C      1  0.4564220000000  0.4893130000000  0.4461250000000 1.0
C      1  0.5466050000000  0.5080510000000  0.4556560000000 1.0
C      1  0.5893230000000  0.5086710000000  0.5367700000000 1.0
C      1  0.4285610000000  0.4941500000000  0.5378840000000 1.0
C      1  0.5789130000000  0.5083380000000  0.4677160000000 1.0
C      1  0.4271530000000  0.4965220000000  0.4636200000000 1.0
C      1  0.5405110000000  0.5724730000000  0.4337800000000 1.0
C      1  0.4574980000000  0.4276470000000  0.4340890000000 1.0
C      1  0.5397240000000  0.5743040000000  0.5641810000000 1.0
C      1  0.4600370000000  0.4258120000000  0.5639620000000 1.0
C      1  0.5230250000000  0.4793480000000  0.4275320000000 1.0
C      1  0.4798750000000  0.5186840000000  0.4330510000000 1.0
C      1  0.5205400000000  0.4834030000000  0.5659230000000 1.0
C      1  0.4768900000000  0.5192120000000  0.5667310000000 1.0
C      1  0.4818240000000  0.5702750000000  0.5536760000000 1.0
C      1  0.5204430000000  0.4289910000000  0.5546560000000 1.0
C      1  0.4839740000000  0.5697220000000  0.4449370000000 1.0
C      1  0.5142420000000  0.4276230000000  0.4452960000000 1.0
C      1  0.5125150000000  0.5597730000000  0.4189890000000 1.0
C      1  0.4863420000000  0.4373830000000  0.4187410000000 1.0
C      1  0.5120900000000  0.5598930000000  0.5772800000000 1.0
C      1  0.4918250000000  0.4308450000000  0.5725050000000 1.0
C      1  0.5616120000000  0.4980060000000  0.5797700000000 1.0
C      1  0.4387840000000  0.5037850000000  0.5808320000000 1.0
C      1  0.5644770000000  0.4957970000000  0.4218350000000 1.0
C      1  0.4344990000000  0.5067280000000  0.4178590000000 1.0
C      1  0.5624910000000  0.5246930000000  0.5616340000000 1.0
C      1  0.4351740000000  0.4727270000000  0.5706830000000 1.0
C      1  0.5668190000000  0.5257110000000  0.4344320000000 1.0
C      1  0.4289420000000  0.4765200000000  0.4294940000000 1.0
C      1  0.5586810000000  0.5103570000000  0.4933340000000 1.0
C      1  0.4528780000000  0.4942370000000  0.4852410000000 1.0
C      1  0.5628190000000  0.5121570000000  0.5211210000000 1.0
C      1  0.4518620000000  0.4934480000000  0.5134880000000 1.0
C      1  0.5141800000000  0.5271610000000  0.5345470000000 1.0
C      1  0.4821080000000  0.4685630000000  0.5390590000000 1.0
C      1  0.5207700000000  0.5289850000000  0.4628780000000 1.0
C      1  0.4815570000000  0.4718530000000  0.4583620000000 1.0
C      1  0.5018360000000  0.4675320000000  0.6032700000000 1.0
C      1  0.5086530000000  0.5419380000000  0.6053690000000 1.0
C      1  0.4966150000000  0.4626960000000  0.3971770000000 1.0
C      1  0.5062370000000  0.5405010000000  0.3916090000000 1.0
C      1  0.5342990000000  0.5308190000000  0.4020690000000 1.0
C      1  0.4685990000000  0.4711290000000  0.4069790000000 1.0
C      1  0.5388730000000  0.5346900000000  0.6026220000000 1.0
C      1  0.4740870000000  0.4696710000000  0.5978740000000 1.0
C      1  0.5809410000000  0.4687060000000  0.4656600000000 1.0
C      1  0.4194450000000  0.5346830000000  0.4563200000000 1.0
C      1  0.5772740000000  0.4632920000000  0.5380440000000 1.0
C      1  0.4207210000000  0.5323930000000  0.5450450000000 1.0
C      1  0.4488400000000  0.5990170000000  0.4822110000000 1.0
C      1  0.5482280000000  0.4012420000000  0.4851020000000 1.0
C      1  0.4464100000000  0.5979640000000  0.5131400000000 1.0
C      1  0.5476380000000  0.3988630000000  0.5160140000000 1.0
C      1  0.5191470000000  0.4422910000000  0.4085620000000 1.0
C      1  0.4800630000000  0.5512220000000  0.4099040000000 1.0
C      1  0.5150850000000  0.4454980000000  0.5925620000000 1.0
C      1  0.4804720000000  0.5520570000000  0.5892480000000 1.0
C      1  0.5614950000000  0.4705740000000  0.4377950000000 1.0
C      1  0.4328730000000  0.5320840000000  0.4301490000000 1.0
C      1  0.5584650000000  0.4711170000000  0.5652690000000 1.0
C      1  0.4352760000000  0.5294090000000  0.5701240000000 1.0
C      1  0.4322350000000  0.4272870000000  0.4836940000000 1.0
C      1  0.5652550000000  0.5808480000000  0.4846490000000 1.0
C      1  0.4320340000000  0.4229650000000  0.5136530000000 1.0
C      1  0.5659490000000  0.5791690000000  0.5151620000000 1.0
C      1  0.5283970000000  0.5506680000000  0.4862550000000 1.0
C      1  0.4736870000000  0.4521590000000  0.4834760000000 1.0
C      1  0.5288610000000  0.5471390000000  0.5182660000000 1.0
C      1  0.4727140000000  0.4466940000000  0.5153460000000 1.0
C      1  0.4596150000000  0.5439800000000  0.5154430000000 1.0
C      1  0.5361240000000  0.4525410000000  0.5144290000000 1.0
C      1  0.4600320000000  0.5440560000000  0.4837230000000 1.0
C      1  0.5358430000000  0.4533870000000  0.4833600000000 1.0
C      1  0.4627570000000  0.5168740000000  0.5357500000000 1.0
C      1  0.5388980000000  0.4762330000000  0.5376100000000 1.0
C      1  0.4647440000000  0.5176910000000  0.4636280000000 1.0
C      1  0.5359100000000  0.4759330000000  0.4590170000000 1.0
C      1  0.4115390000000  0.4676290000000  0.4544430000000 1.0
C      1  0.5887720000000  0.5386600000000  0.4546510000000 1.0
C      1  0.4142100000000  0.4647140000000  0.5473030000000 1.0
C      1  0.5894860000000  0.5408280000000  0.5484990000000 1.0
C      1  0.5157980000000  0.4932030000000  0.5953350000000 1.0
C      1  0.4946080000000  0.5153350000000  0.5956810000000 1.0
C      1  0.5097460000000  0.4905090000000  0.3982980000000 1.0
C      1  0.4912670000000  0.5140040000000  0.4010820000000 1.0
END
