TITL C-2782230-7391-1349 -0.00097670337231989 125000 -249.198858919741 0 0 44 (D3) n - 1
REM
REM in /home/nfs/bkarasulu/CARBON/AIRSS/Generating-Clusters/REBO/Higher-Symm/SD-CG/HFTN-CG
REM
REM
REM
REM
REM
REM ./C.cell (12c818d87b63d06a65506943cc24bca4)
REM
REM compiler GCC version 9.2.1 20190827 (Red Hat 9.2.1-1)
REM options -cpp -mtune=generic -march=x86-64 -g -O0 -fpre-include=/usr/include/finclude/math-vector-fortran.h
REM seed -889995661 -1643061854 228578264 -419491971 417125217 -974632873 -1463369739 -1267464333 -765037566 612535109 -2046183936 -515899709 -860084595 -1527234377 -1531100965 -896646106 15398857 -1227586508 -62857916 -437849970 1979318354 1878420146 -1289068996 -240780168 -1663491827 1601566718 1252387600 -2081436002 421363682 -1276279283 -93507706 406607149 -1737492315
REM
CELL 1.54180   50.00000   50.00000   50.00000   90.00000   90.00000   90.00000
LATT -1
SFAC C  
C      1  0.5328560000000  0.5536210000000  0.5370220000000 1.0
C      1  0.4504700000000  0.5536230000000  0.5103270000000 1.0
C      1  0.5147820000000  0.5536260000000  0.4523260000000 1.0
C      1  0.4658860000000  0.4437960000000  0.5370200000000 1.0
C      1  0.5482690000000  0.4437970000000  0.5103140000000 1.0
C      1  0.4839500000000  0.4438010000000  0.4523210000000 1.0
C      1  0.4861020000000  0.5244780000000  0.5491710000000 1.0
C      1  0.4633250000000  0.5244840000000  0.4637600000000 1.0
C      1  0.5486810000000  0.5244820000000  0.4867400000000 1.0
C      1  0.5126420000000  0.4729370000000  0.5491660000000 1.0
C      1  0.5354090000000  0.4729420000000  0.4637530000000 1.0
C      1  0.4500560000000  0.4729420000000  0.4867420000000 1.0
C      1  0.4689250000000  0.4735700000000  0.4592950000000 1.0
C      1  0.5497440000000  0.4735670000000  0.4938180000000 1.0
C      1  0.4794360000000  0.4735640000000  0.5465480000000 1.0
C      1  0.5298080000000  0.5238570000000  0.4592940000000 1.0
C      1  0.4489930000000  0.5238550000000  0.4938270000000 1.0
C      1  0.5193070000000  0.5238510000000  0.5465490000000 1.0
C      1  0.4823490000000  0.4985940000000  0.4543120000000 1.0
C      1  0.5473490000000  0.4985890000000  0.5079370000000 1.0
C      1  0.4684090000000  0.4985890000000  0.5374170000000 1.0
C      1  0.5163840000000  0.4988340000000  0.4543100000000 1.0
C      1  0.4513900000000  0.4988310000000  0.5079420000000 1.0
C      1  0.5303330000000  0.4988280000000  0.5374130000000 1.0
C      1  0.4808600000000  0.5557860000000  0.5248930000000 1.0
C      1  0.4869730000000  0.5557890000000  0.4713620000000 1.0
C      1  0.5302760000000  0.5557870000000  0.5034210000000 1.0
C      1  0.5178810000000  0.4416320000000  0.5248840000000 1.0
C      1  0.5117620000000  0.4416360000000  0.4713530000000 1.0
C      1  0.4684630000000  0.4416340000000  0.5034180000000 1.0
C      1  0.4585270000000  0.5305440000000  0.5320730000000 1.0
C      1  0.4919200000000  0.5305480000000  0.4484280000000 1.0
C      1  0.5476620000000  0.5305430000000  0.5191700000000 1.0
C      1  0.5402150000000  0.4668740000000  0.5320640000000 1.0
C      1  0.5068120000000  0.4668790000000  0.4484240000000 1.0
C      1  0.4510790000000  0.4668760000000  0.5191720000000 1.0
C      1  0.4964450000000  0.4436060000000  0.5488760000000 1.0
C      1  0.4584030000000  0.4436110000000  0.4728580000000 1.0
C      1  0.5432570000000  0.4436100000000  0.4779210000000 1.0
C      1  0.5022990000000  0.5538100000000  0.5488820000000 1.0
C      1  0.5403320000000  0.5538140000000  0.4728600000000 1.0
C      1  0.4554780000000  0.5538150000000  0.4779330000000 1.0
C      1  0.4993680000000  0.4382140000000  0.4998850000000 1.0
C      1  0.4993700000000  0.5592070000000  0.4998920000000 1.0
END
