TITL C-2782226-7400-1274 -0.00247518840976147 125000 -601.111488364116 0 0 102 (C1) n - 1
REM
REM in /home/nfs/bkarasulu/CARBON/AIRSS/Generating-Clusters/REBO/Higher-Symm/SD-CG/HFTN-CG
REM
REM
REM
REM
REM
REM ./C.cell (12c818d87b63d06a65506943cc24bca4)
REM
REM compiler GCC version 9.2.1 20190827 (Red Hat 9.2.1-1)
REM options -cpp -mtune=generic -march=x86-64 -g -O0 -fpre-include=/usr/include/finclude/math-vector-fortran.h
REM seed 763782308 624790017 -50504649 1142913395 2002418394 1803680492 -1775430226 -1700435145 511941140 1874053699 1332218643 -1112520879 1769727435 2069629568 903095764 -799490810 -200327541 83461549 994590664 -1202926381 2006475035 -1169357527 244239035 -1518559601 1095911545 675513074 142960850 -637104952 1477298498 -811540210 470246407 611846953 2128261143
REM
CELL 1.54180   50.00000   50.00000   50.00000   90.00000   90.00000   90.00000
LATT -1
SFAC C  
C      1  0.4574940000000  0.5694240000000  0.4853920000000 1.0
C      1  0.4807780000000  0.4545960000000  0.5588150000000 1.0
C      1  0.5698450000000  0.4778830000000  0.4608350000000 1.0
C      1  0.4585010000000  0.4295780000000  0.5126200000000 1.0
C      1  0.5382730000000  0.4355000000000  0.4855590000000 1.0
C      1  0.5362800000000  0.5661680000000  0.5154590000000 1.0
C      1  0.4828470000000  0.5467530000000  0.4396420000000 1.0
C      1  0.5181850000000  0.5423030000000  0.5626450000000 1.0
C      1  0.5207180000000  0.4580540000000  0.4370070000000 1.0
C      1  0.5672230000000  0.5242070000000  0.5421780000000 1.0
C      1  0.4388550000000  0.5218840000000  0.4610350000000 1.0
C      1  0.4363130000000  0.4786290000000  0.5335680000000 1.0
C      1  0.4605640000000  0.4796290000000  0.5551630000000 1.0
C      1  0.4824350000000  0.5682950000000  0.4634870000000 1.0
C      1  0.5608200000000  0.4596950000000  0.4864070000000 1.0
C      1  0.4634920000000  0.5200560000000  0.4408030000000 1.0
C      1  0.5471730000000  0.4790840000000  0.4390280000000 1.0
C      1  0.5435370000000  0.5217540000000  0.5632550000000 1.0
C      1  0.4822650000000  0.4322520000000  0.5351830000000 1.0
C      1  0.5150010000000  0.5659720000000  0.5394030000000 1.0
C      1  0.5176340000000  0.4348120000000  0.4607600000000 1.0
C      1  0.5591920000000  0.5424260000000  0.5161550000000 1.0
C      1  0.4371010000000  0.4539520000000  0.5109570000000 1.0
C      1  0.4364490000000  0.5438610000000  0.4868730000000 1.0
C      1  0.4775030000000  0.4022230000000  0.4509350000000 1.0
C      1  0.4588220000000  0.4729280000000  0.4096430000000 1.0
C      1  0.3936920000000  0.4719860000000  0.4787240000000 1.0
C      1  0.4733300000000  0.5968160000000  0.5481880000000 1.0
C      1  0.5214230000000  0.6027000000000  0.4591730000000 1.0
C      1  0.5224100000000  0.3994770000000  0.5417670000000 1.0
C      1  0.4560090000000  0.5213690000000  0.5893260000000 1.0
C      1  0.5359140000000  0.5139470000000  0.3969020000000 1.0
C      1  0.5447600000000  0.4735610000000  0.5881450000000 1.0
C      1  0.4044180000000  0.5409240000000  0.5323870000000 1.0
C      1  0.5916750000000  0.5413700000000  0.4716720000000 1.0
C      1  0.5907850000000  0.4612860000000  0.5326310000000 1.0
C      1  0.4765770000000  0.4547130000000  0.4064360000000 1.0
C      1  0.4567660000000  0.4004490000000  0.4695340000000 1.0
C      1  0.3934300000000  0.4926660000000  0.4643610000000 1.0
C      1  0.4753530000000  0.5410370000000  0.5930460000000 1.0
C      1  0.5253150000000  0.4536200000000  0.5887020000000 1.0
C      1  0.5183390000000  0.5318830000000  0.3982390000000 1.0
C      1  0.4531670000000  0.5977580000000  0.5289180000000 1.0
C      1  0.5429510000000  0.4000450000000  0.5229270000000 1.0
C      1  0.5412000000000  0.6024100000000  0.4788190000000 1.0
C      1  0.4037750000000  0.5198920000000  0.5469830000000 1.0
C      1  0.5968130000000  0.4831760000000  0.5488450000000 1.0
C      1  0.5989000000000  0.5196110000000  0.4557760000000 1.0
C      1  0.5025540000000  0.4534520000000  0.4854510000000 1.0
C      1  0.4818850000000  0.4940560000000  0.4536710000000 1.0
C      1  0.4564550000000  0.4793080000000  0.4990510000000 1.0
C      1  0.5009120000000  0.5475720000000  0.5137000000000 1.0
C      1  0.5019560000000  0.5423640000000  0.4741800000000 1.0
C      1  0.5012280000000  0.4586510000000  0.5249510000000 1.0
C      1  0.4790590000000  0.5062620000000  0.5428970000000 1.0
C      1  0.5216750000000  0.4953250000000  0.4549130000000 1.0
C      1  0.5187990000000  0.5062300000000  0.5454370000000 1.0
C      1  0.4572080000000  0.5190510000000  0.4963390000000 1.0
C      1  0.5452340000000  0.5197390000000  0.4946890000000 1.0
C      1  0.5452290000000  0.4821000000000  0.5070890000000 1.0
C      1  0.5006440000000  0.4707110000000  0.4599440000000 1.0
C      1  0.4761990000000  0.4555060000000  0.5033600000000 1.0
C      1  0.4575060000000  0.4964970000000  0.4723800000000 1.0
C      1  0.4974780000000  0.5303720000000  0.5391650000000 1.0
C      1  0.4996170000000  0.4808460000000  0.5468500000000 1.0
C      1  0.5020300000000  0.5206420000000  0.4512850000000 1.0
C      1  0.4756740000000  0.5438350000000  0.4942020000000 1.0
C      1  0.5270610000000  0.4576090000000  0.5075840000000 1.0
C      1  0.5267840000000  0.5439520000000  0.4928960000000 1.0
C      1  0.4567820000000  0.5023250000000  0.5225960000000 1.0
C      1  0.5437570000000  0.5069510000000  0.5262060000000 1.0
C      1  0.5454690000000  0.4949820000000  0.4755730000000 1.0
C      1  0.5830630000000  0.4693110000000  0.5073850000000 1.0
C      1  0.4972660000000  0.5943650000000  0.4698900000000 1.0
C      1  0.4674220000000  0.4979980000000  0.5801420000000 1.0
C      1  0.5827990000000  0.5331820000000  0.4964870000000 1.0
C      1  0.4095180000000  0.5368650000000  0.5026430000000 1.0
C      1  0.4093110000000  0.4694610000000  0.5055910000000 1.0
C      1  0.4984280000000  0.4067090000000  0.5299200000000 1.0
C      1  0.5014240000000  0.4086860000000  0.4633420000000 1.0
C      1  0.4979020000000  0.5915240000000  0.5365260000000 1.0
C      1  0.4692610000000  0.5004730000000  0.4154670000000 1.0
C      1  0.5339260000000  0.4982620000000  0.5823290000000 1.0
C      1  0.5338880000000  0.4860890000000  0.4109380000000 1.0
C      1  0.5937220000000  0.4956690000000  0.4689710000000 1.0
C      1  0.5002690000000  0.4638010000000  0.5827700000000 1.0
C      1  0.4634360000000  0.5931030000000  0.5035850000000 1.0
C      1  0.5918770000000  0.5070130000000  0.5353620000000 1.0
C      1  0.4084190000000  0.4934520000000  0.5329180000000 1.0
C      1  0.4097190000000  0.5184900000000  0.4713440000000 1.0
C      1  0.4914130000000  0.5293200000000  0.4137450000000 1.0
C      1  0.5053970000000  0.4636190000000  0.4099270000000 1.0
C      1  0.5003560000000  0.5315020000000  0.5859590000000 1.0
C      1  0.4659380000000  0.4057470000000  0.4951730000000 1.0
C      1  0.5304650000000  0.5936900000000  0.5028870000000 1.0
C      1  0.5329370000000  0.4079030000000  0.4982520000000 1.0
C      1  0.5017370000000  0.4971860000000  0.4091380000000 1.0
C      1  0.4046620000000  0.5031270000000  0.5012780000000 1.0
C      1  0.5005230000000  0.4976520000000  0.5854580000000 1.0
C      1  0.4968470000000  0.5988500000000  0.5034210000000 1.0
C      1  0.4995760000000  0.4015400000000  0.4964440000000 1.0
C      1  0.5914160000000  0.5013130000000  0.5021360000000 1.0
END
