TITL C-2782239-8622-535 -0.0501476697611571 125000 -902.340328866448 0 0 158 (C1) n - 1
REM
REM in /home/nfs/bkarasulu/CARBON/AIRSS/Generating-Clusters/REBO/Higher-Symm/SD-CG/HFTN-CG
REM
REM
REM
REM
REM
REM ./C.cell (12c818d87b63d06a65506943cc24bca4)
REM
REM compiler GCC version 9.2.1 20190827 (Red Hat 9.2.1-1)
REM options -cpp -mtune=generic -march=x86-64 -g -O0 -fpre-include=/usr/include/finclude/math-vector-fortran.h
REM seed -387268535 -1769853754 -855068336 443664308 580378195 1272598702 -519862586 1442664586 -1949417838 -523573072 1949005563 -229656566 -1323215371 -1181793442 -1587531511 890069945 1787658874 -1118038579 -1743250619 -929843359 -1060305449 -1211666135 -526400625 1407191923 -1422342449 1245519929 -525002526 -474325071 -1006448117 1275086324 -1420024711 -1910520654 1358781560
REM
CELL 1.54180   50.00000   50.00000   50.00000   90.00000   90.00000   90.00000
LATT -1
SFAC C  
C      1  0.5216120000000  0.5901180000000  0.4801660000000 1.0
C      1  0.5333030000000  0.5655470000000  0.4885770000000 1.0
C      1  0.4878630000000  0.4100040000000  0.4568790000000 1.0
C      1  0.4936390000000  0.5989730000000  0.5469760000000 1.0
C      1  0.4538440000000  0.4278550000000  0.5258330000000 1.0
C      1  0.4899250000000  0.5157670000000  0.4661740000000 1.0
C      1  0.5095600000000  0.5090010000000  0.5733220000000 1.0
C      1  0.5619880000000  0.4859090000000  0.5810850000000 1.0
C      1  0.5839930000000  0.4968650000000  0.4336380000000 1.0
C      1  0.5371320000000  0.5659280000000  0.4403650000000 1.0
C      1  0.5556080000000  0.4398530000000  0.5190460000000 1.0
C      1  0.5155770000000  0.4002700000000  0.4960660000000 1.0
C      1  0.5877310000000  0.4696800000000  0.4657350000000 1.0
C      1  0.5110940000000  0.4344010000000  0.5597560000000 1.0
C      1  0.4751310000000  0.4129180000000  0.5376380000000 1.0
C      1  0.4845980000000  0.5167900000000  0.4112870000000 1.0
C      1  0.5481320000000  0.5159340000000  0.4905180000000 1.0
C      1  0.5926860000000  0.5049310000000  0.5420860000000 1.0
C      1  0.6028240000000  0.4548900000000  0.5171520000000 1.0
C      1  0.4514740000000  0.4504160000000  0.4224800000000 1.0
C      1  0.5695040000000  0.4904730000000  0.5217600000000 1.0
C      1  0.5088670000000  0.5099140000000  0.4941420000000 1.0
C      1  0.4469350000000  0.5632710000000  0.5776110000000 1.0
C      1  0.4732190000000  0.5702700000000  0.4720190000000 1.0
C      1  0.5370270000000  0.4689770000000  0.5688630000000 1.0
C      1  0.4836460000000  0.4798630000000  0.5316090000000 1.0
C      1  0.5103350000000  0.4364450000000  0.5120160000000 1.0
C      1  0.4383090000000  0.5068960000000  0.4248640000000 1.0
C      1  0.5796850000000  0.4909500000000  0.4912680000000 1.0
C      1  0.5270840000000  0.4299870000000  0.4852670000000 1.0
C      1  0.4078910000000  0.4930470000000  0.4691800000000 1.0
C      1  0.5512930000000  0.5418190000000  0.5772600000000 1.0
C      1  0.4397190000000  0.5238310000000  0.5595780000000 1.0
C      1  0.4879280000000  0.5819240000000  0.4478230000000 1.0
C      1  0.4753870000000  0.4802790000000  0.3984830000000 1.0
C      1  0.4859690000000  0.5253290000000  0.5110930000000 1.0
C      1  0.5072480000000  0.4696110000000  0.5794060000000 1.0
C      1  0.4136880000000  0.5353950000000  0.5436690000000 1.0
C      1  0.4977830000000  0.5520570000000  0.6032310000000 1.0
C      1  0.5581920000000  0.4152950000000  0.4881060000000 1.0
C      1  0.5039960000000  0.4789590000000  0.4695810000000 1.0
C      1  0.5254280000000  0.5369040000000  0.4808440000000 1.0
C      1  0.4461150000000  0.5066620000000  0.5809520000000 1.0
C      1  0.4451370000000  0.4782450000000  0.5003170000000 1.0
C      1  0.4520340000000  0.5194370000000  0.4675960000000 1.0
C      1  0.5630790000000  0.4456220000000  0.5473910000000 1.0
C      1  0.5577040000000  0.5169010000000  0.4368590000000 1.0
C      1  0.5721320000000  0.4725790000000  0.5509020000000 1.0
C      1  0.5379460000000  0.5144720000000  0.4125840000000 1.0
C      1  0.4587130000000  0.5522140000000  0.4263940000000 1.0
C      1  0.5601650000000  0.5697580000000  0.5056500000000 1.0
C      1  0.5191390000000  0.4578250000000  0.4010210000000 1.0
C      1  0.5168250000000  0.4583460000000  0.5365150000000 1.0
C      1  0.5661300000000  0.5854190000000  0.4774930000000 1.0
C      1  0.4574120000000  0.5269860000000  0.4136350000000 1.0
C      1  0.5014520000000  0.4317400000000  0.4132860000000 1.0
C      1  0.4456730000000  0.5614820000000  0.4991930000000 1.0
C      1  0.4398490000000  0.4183610000000  0.4833460000000 1.0
C      1  0.5399250000000  0.5807600000000  0.5295370000000 1.0
C      1  0.3963670000000  0.4778980000000  0.5175870000000 1.0
C      1  0.5123130000000  0.5941320000000  0.4538990000000 1.0
C      1  0.5160510000000  0.5323740000000  0.5259700000000 1.0
C      1  0.5707020000000  0.5195400000000  0.5637610000000 1.0
C      1  0.4217450000000  0.4354930000000  0.4971820000000 1.0
C      1  0.4751530000000  0.5902770000000  0.4962010000000 1.0
C      1  0.5260960000000  0.4589350000000  0.4732720000000 1.0
C      1  0.5020270000000  0.4879480000000  0.6062580000000 1.0
C      1  0.4843870000000  0.5651240000000  0.4255680000000 1.0
C      1  0.4346150000000  0.4794880000000  0.5781070000000 1.0
C      1  0.5394290000000  0.4627550000000  0.5038440000000 1.0
C      1  0.5190870000000  0.4838930000000  0.5136480000000 1.0
C      1  0.4816310000000  0.4578760000000  0.4559920000000 1.0
C      1  0.4663730000000  0.5054440000000  0.5239540000000 1.0
C      1  0.4381970000000  0.4404730000000  0.5486980000000 1.0
C      1  0.5758300000000  0.4750170000000  0.4192010000000 1.0
C      1  0.4548880000000  0.4866840000000  0.4625060000000 1.0
C      1  0.4540860000000  0.4533860000000  0.4705330000000 1.0
C      1  0.5012490000000  0.4760190000000  0.3906260000000 1.0
C      1  0.4356530000000  0.5055790000000  0.5128580000000 1.0
C      1  0.4707740000000  0.4729900000000  0.5618830000000 1.0
C      1  0.4576950000000  0.5612380000000  0.5284830000000 1.0
C      1  0.5717530000000  0.5462470000000  0.4436890000000 1.0
C      1  0.4693960000000  0.4057860000000  0.4792160000000 1.0
C      1  0.4885780000000  0.5340010000000  0.5674400000000 1.0
C      1  0.4035190000000  0.5331740000000  0.5113150000000 1.0
C      1  0.5614450000000  0.5753880000000  0.4527230000000 1.0
C      1  0.4594120000000  0.4475370000000  0.5023840000000 1.0
C      1  0.4334550000000  0.5621420000000  0.5520940000000 1.0
C      1  0.5729460000000  0.5308160000000  0.5319180000000 1.0
C      1  0.5440700000000  0.5407950000000  0.5433950000000 1.0
C      1  0.5643090000000  0.4549780000000  0.4830880000000 1.0
C      1  0.5066220000000  0.5482250000000  0.4222750000000 1.0
C      1  0.4821550000000  0.4247740000000  0.5632610000000 1.0
C      1  0.4700050000000  0.5401580000000  0.4878170000000 1.0
C      1  0.4739090000000  0.5668080000000  0.5896860000000 1.0
C      1  0.5494610000000  0.4681040000000  0.4546590000000 1.0
C      1  0.5173420000000  0.4827800000000  0.4322240000000 1.0
C      1  0.5217080000000  0.5388540000000  0.4494720000000 1.0
C      1  0.5211160000000  0.5055910000000  0.4565390000000 1.0
C      1  0.5498660000000  0.4270100000000  0.5642260000000 1.0
C      1  0.4596410000000  0.4813310000000  0.4289240000000 1.0
C      1  0.5290040000000  0.4086500000000  0.5464750000000 1.0
C      1  0.4838460000000  0.5770050000000  0.5238460000000 1.0
C      1  0.4472990000000  0.6012920000000  0.4545560000000 1.0
C      1  0.4878790000000  0.4987610000000  0.4365630000000 1.0
C      1  0.4634720000000  0.5363470000000  0.5490460000000 1.0
C      1  0.4736450000000  0.4268630000000  0.4311210000000 1.0
C      1  0.5828200000000  0.4352810000000  0.5009900000000 1.0
C      1  0.4176770000000  0.4738390000000  0.5505450000000 1.0
C      1  0.5907990000000  0.5195790000000  0.4849330000000 1.0
C      1  0.4768470000000  0.4810260000000  0.4878730000000 1.0
C      1  0.5043350000000  0.5597630000000  0.5647990000000 1.0
C      1  0.5129070000000  0.5255330000000  0.4042070000000 1.0
C      1  0.5266810000000  0.5614960000000  0.5892510000000 1.0
C      1  0.5588440000000  0.4970830000000  0.4645340000000 1.0
C      1  0.5781100000000  0.5429810000000  0.5063900000000 1.0
C      1  0.5065090000000  0.4872190000000  0.5513400000000 1.0
C      1  0.4779330000000  0.4669320000000  0.5937590000000 1.0
C      1  0.5937590000000  0.5217030000000  0.4521980000000 1.0
C      1  0.4138530000000  0.4500710000000  0.5268990000000 1.0
C      1  0.4497580000000  0.5515160000000  0.4556120000000 1.0
C      1  0.4895530000000  0.5878620000000  0.5730750000000 1.0
C      1  0.5162360000000  0.4085270000000  0.4536780000000 1.0
C      1  0.4607940000000  0.4447790000000  0.5738320000000 1.0
C      1  0.4984590000000  0.5217570000000  0.6041260000000 1.0
C      1  0.5295440000000  0.4305710000000  0.4318720000000 1.0
C      1  0.4155250000000  0.4684670000000  0.4914530000000 1.0
C      1  0.6058540000000  0.4761050000000  0.5297510000000 1.0
C      1  0.5151810000000  0.6016010000000  0.5260290000000 1.0
C      1  0.4178890000000  0.5087830000000  0.4451970000000 1.0
C      1  0.5019560000000  0.4079610000000  0.5254170000000 1.0
C      1  0.5664620000000  0.5401510000000  0.4747310000000 1.0
C      1  0.4126110000000  0.5025230000000  0.5347700000000 1.0
C      1  0.4297370000000  0.4448900000000  0.4082780000000 1.0
C      1  0.5612850000000  0.4301500000000  0.4399470000000 1.0
C      1  0.5331710000000  0.4981330000000  0.5953200000000 1.0
C      1  0.4188830000000  0.5625470000000  0.4596910000000 1.0
C      1  0.4725870000000  0.5112350000000  0.5878620000000 1.0
C      1  0.4152610000000  0.5609130000000  0.4993930000000 1.0
C      1  0.4288570000000  0.5247110000000  0.4902120000000 1.0
C      1  0.5118500000000  0.5628610000000  0.5350610000000 1.0
C      1  0.5484540000000  0.4090940000000  0.4590450000000 1.0
C      1  0.5047230000000  0.6013760000000  0.4999790000000 1.0
C      1  0.4149460000000  0.5331700000000  0.4626920000000 1.0
C      1  0.5445470000000  0.4663180000000  0.4214090000000 1.0
C      1  0.5064290000000  0.4540990000000  0.4384490000000 1.0
C      1  0.5426480000000  0.5700370000000  0.5602190000000 1.0
C      1  0.5826890000000  0.4473280000000  0.4471400000000 1.0
C      1  0.5439420000000  0.4999440000000  0.5552490000000 1.0
C      1  0.5393440000000  0.5073040000000  0.5222560000000 1.0
C      1  0.5408010000000  0.4100160000000  0.5168830000000 1.0
C      1  0.4450230000000  0.6011900000000  0.5031680000000 1.0
C      1  0.4876960000000  0.4588550000000  0.5095360000000 1.0
C      1  0.5315940000000  0.4403390000000  0.5860710000000 1.0
C      1  0.3963600000000  0.5030990000000  0.4970280000000 1.0
C      1  0.4478740000000  0.4267290000000  0.4533590000000 1.0
C      1  0.4476760000000  0.4873560000000  0.5460730000000 1.0
C      1  0.4362490000000  0.5848600000000  0.4753130000000 1.0
END
