TITL C-2782230-7391-515 -0.00164290805598106 125000 -301.625128635167 0 0 53 (C1) n - 1
REM
REM in /home/nfs/bkarasulu/CARBON/AIRSS/Generating-Clusters/REBO/Higher-Symm/SD-CG/HFTN-CG
REM
REM
REM
REM
REM
REM ./C.cell (12c818d87b63d06a65506943cc24bca4)
REM
REM compiler GCC version 9.2.1 20190827 (Red Hat 9.2.1-1)
REM options -cpp -mtune=generic -march=x86-64 -g -O0 -fpre-include=/usr/include/finclude/math-vector-fortran.h
REM seed -1797029233 1025386269 60088135 1498767611 443151472 2128918601 1646989269 -1102495718 967766252 -1289591577 -1380645713 -1574508189 1569516270 -1476039875 -936882862 -51223160 -565760849 -1903695751 -788762323 -1506031450 -182861419 1160403068 -66970873 -1912483952 892723049 -46815791 -1870760823 -594856798 -1819861636 1639712991 62834961 36181257 390375502
REM
CELL 1.54180   50.00000   50.00000   50.00000   90.00000   90.00000   90.00000
LATT -1
SFAC C  
C      1  0.4896650000000  0.4701120000000  0.4449300000000 1.0
C      1  0.5348870000000  0.5123530000000  0.4478140000000 1.0
C      1  0.4744070000000  0.5264870000000  0.4520790000000 1.0
C      1  0.5095100000000  0.4700980000000  0.5535610000000 1.0
C      1  0.4641580000000  0.5121750000000  0.5507300000000 1.0
C      1  0.5246460000000  0.5265950000000  0.5464260000000 1.0
C      1  0.5737920000000  0.5029650000000  0.5278080000000 1.0
C      1  0.4602640000000  0.5591850000000  0.5241190000000 1.0
C      1  0.4737440000000  0.4389700000000  0.5258030000000 1.0
C      1  0.4252830000000  0.5027450000000  0.4706950000000 1.0
C      1  0.5390980000000  0.5591070000000  0.4744890000000 1.0
C      1  0.5255380000000  0.4390840000000  0.4726330000000 1.0
C      1  0.4628950000000  0.4335800000000  0.4940000000000 1.0
C      1  0.5775440000000  0.4976530000000  0.4955990000000 1.0
C      1  0.4625930000000  0.5711840000000  0.4940450000000 1.0
C      1  0.5363790000000  0.4337170000000  0.5044430000000 1.0
C      1  0.4215570000000  0.4973950000000  0.5029030000000 1.0
C      1  0.5369340000000  0.5707500000000  0.5047600000000 1.0
C      1  0.5423420000000  0.4569090000000  0.5220210000000 1.0
C      1  0.5137210000000  0.5653470000000  0.5229500000000 1.0
C      1  0.4394650000000  0.4837100000000  0.5229380000000 1.0
C      1  0.4568580000000  0.4567680000000  0.4764420000000 1.0
C      1  0.4850070000000  0.5656760000000  0.4749880000000 1.0
C      1  0.5596750000000  0.4839300000000  0.4755570000000 1.0
C      1  0.4110940000000  0.4752320000000  0.4808130000000 1.0
C      1  0.5581040000000  0.4323240000000  0.4797440000000 1.0
C      1  0.5274270000000  0.5893760000000  0.4794030000000 1.0
C      1  0.5880680000000  0.4755030000000  0.5176750000000 1.0
C      1  0.4411940000000  0.4321130000000  0.5187140000000 1.0
C      1  0.4736620000000  0.5887270000000  0.5195720000000 1.0
C      1  0.5456220000000  0.5037400000000  0.5375950000000 1.0
C      1  0.4764260000000  0.5353660000000  0.5321960000000 1.0
C      1  0.4791340000000  0.4655600000000  0.5445510000000 1.0
C      1  0.4534520000000  0.5036060000000  0.4609080000000 1.0
C      1  0.5225720000000  0.5355310000000  0.4663530000000 1.0
C      1  0.5200590000000  0.4656870000000  0.4539290000000 1.0
C      1  0.5329880000000  0.4746120000000  0.5405060000000 1.0
C      1  0.5055550000000  0.5435680000000  0.5373980000000 1.0
C      1  0.4581280000000  0.4868540000000  0.5426490000000 1.0
C      1  0.4661630000000  0.4745160000000  0.4579760000000 1.0
C      1  0.4933930000000  0.5436810000000  0.4609230000000 1.0
C      1  0.5409970000000  0.4870420000000  0.4558560000000 1.0
C      1  0.5221460000000  0.5091760000000  0.4855540000000 1.0
C      1  0.4750260000000  0.5035190000000  0.4847890000000 1.0
C      1  0.5032730000000  0.4612630000000  0.4849060000000 1.0
C      1  0.4768590000000  0.5090430000000  0.5129720000000 1.0
C      1  0.5240190000000  0.5036100000000  0.5137270000000 1.0
C      1  0.4959550000000  0.4612250000000  0.5135800000000 1.0
C      1  0.4999830000000  0.5845040000000  0.4984500000000 1.0
C      1  0.5660430000000  0.4595220000000  0.4977610000000 1.0
C      1  0.4331630000000  0.4592980000000  0.5007170000000 1.0
C      1  0.5003320000000  0.4920760000000  0.4765220000000 1.0
C      1  0.4987650000000  0.4920360000000  0.5219790000000 1.0
END
