TITL C-2782237-5345-826 -0.000460531512588319 125000 -912.666992948704 0 0 163 (C1) n - 1
REM
REM in /home/nfs/bkarasulu/CARBON/AIRSS/Generating-Clusters/REBO/Higher-Symm/SD-CG/HFTN-CG
REM
REM
REM
REM
REM
REM ./C.cell (12c818d87b63d06a65506943cc24bca4)
REM
REM compiler GCC version 9.2.1 20190827 (Red Hat 9.2.1-1)
REM options -cpp -mtune=generic -march=x86-64 -g -O0 -fpre-include=/usr/include/finclude/math-vector-fortran.h
REM seed 531800202 1018456815 -1077569163 -673149569 -247930439 -1725471079 350438688 771497708 -1194434377 1676108383 1210988906 -846011721 686665154 -1829603939 -521967105 -1187148942 1553654894 1336733970 -699855034 -1691034595 504087812 -1473177741 -1617078942 -991195080 -1549241708 1062108571 2966210 875213000 202044078 1294244786 -1244054316 -635802341 959131285
REM
CELL 1.54180   50.00000   50.00000   50.00000   90.00000   90.00000   90.00000
LATT -1
SFAC C  
C      1  0.5106030000000  0.5142190000000  0.5667060000000 1.0
C      1  0.5786180000000  0.5119960000000  0.5116130000000 1.0
C      1  0.5120300000000  0.5835380000000  0.5130690000000 1.0
C      1  0.4883150000000  0.5124250000000  0.4303810000000 1.0
C      1  0.5105270000000  0.4866830000000  0.4285890000000 1.0
C      1  0.4886650000000  0.4899810000000  0.5703370000000 1.0
C      1  0.4260240000000  0.5132180000000  0.4891210000000 1.0
C      1  0.5824600000000  0.4882370000000  0.4899910000000 1.0
C      1  0.4218860000000  0.4893220000000  0.5102850000000 1.0
C      1  0.4891410000000  0.5820280000000  0.4877760000000 1.0
C      1  0.5155100000000  0.4259210000000  0.4882300000000 1.0
C      1  0.4924070000000  0.4199950000000  0.5099340000000 1.0
C      1  0.4242090000000  0.4919870000000  0.4240830000000 1.0
C      1  0.4220240000000  0.4264630000000  0.4957090000000 1.0
C      1  0.4886370000000  0.4258110000000  0.4249120000000 1.0
C      1  0.5749300000000  0.4882740000000  0.5657380000000 1.0
C      1  0.4230820000000  0.5066670000000  0.5763600000000 1.0
C      1  0.5760590000000  0.5075010000000  0.4286450000000 1.0
C      1  0.5771660000000  0.4211190000000  0.5066660000000 1.0
C      1  0.4200660000000  0.5750460000000  0.5131920000000 1.0
C      1  0.5796600000000  0.5720130000000  0.4874620000000 1.0
C      1  0.5102960000000  0.4275370000000  0.5755850000000 1.0
C      1  0.4914620000000  0.5732790000000  0.5790130000000 1.0
C      1  0.5094750000000  0.5719230000000  0.4221520000000 1.0
C      1  0.4812780000000  0.4602560000000  0.4914320000000 1.0
C      1  0.4891230000000  0.4831800000000  0.4619870000000 1.0
C      1  0.4630140000000  0.4871870000000  0.4894320000000 1.0
C      1  0.5107400000000  0.4599940000000  0.5084560000000 1.0
C      1  0.4856830000000  0.5500370000000  0.5110270000000 1.0
C      1  0.5143280000000  0.5498320000000  0.4922930000000 1.0
C      1  0.5081040000000  0.4871090000000  0.5351090000000 1.0
C      1  0.4842750000000  0.5113800000000  0.5368410000000 1.0
C      1  0.5117930000000  0.5085580000000  0.4622860000000 1.0
C      1  0.5317730000000  0.4916850000000  0.5114260000000 1.0
C      1  0.4583090000000  0.5030370000000  0.5193340000000 1.0
C      1  0.5358350000000  0.5024970000000  0.4808350000000 1.0
C      1  0.4349600000000  0.5215850000000  0.4208660000000 1.0
C      1  0.4275240000000  0.4338680000000  0.5249840000000 1.0
C      1  0.5172770000000  0.4212760000000  0.4358310000000 1.0
C      1  0.5637990000000  0.5176730000000  0.5789530000000 1.0
C      1  0.4336590000000  0.4772210000000  0.5778610000000 1.0
C      1  0.5679470000000  0.4779840000000  0.4269420000000 1.0
C      1  0.5848250000000  0.4323410000000  0.4779970000000 1.0
C      1  0.4236640000000  0.5693500000000  0.4830720000000 1.0
C      1  0.5775840000000  0.5687690000000  0.5182250000000 1.0
C      1  0.4825560000000  0.4148200000000  0.5652420000000 1.0
C      1  0.5187930000000  0.5847140000000  0.5668820000000 1.0
C      1  0.4829210000000  0.5839920000000  0.4347230000000 1.0
C      1  0.4369650000000  0.5420190000000  0.4985760000000 1.0
C      1  0.4945160000000  0.4339210000000  0.5395340000000 1.0
C      1  0.5404040000000  0.4929460000000  0.4391670000000 1.0
C      1  0.5625200000000  0.5409150000000  0.5056690000000 1.0
C      1  0.4393430000000  0.4604630000000  0.5073170000000 1.0
C      1  0.5689650000000  0.4577640000000  0.4929100000000 1.0
C      1  0.5001420000000  0.4314990000000  0.4627640000000 1.0
C      1  0.4985820000000  0.5678430000000  0.4603420000000 1.0
C      1  0.5018370000000  0.5714600000000  0.5404920000000 1.0
C      1  0.4583700000000  0.4946740000000  0.5622670000000 1.0
C      1  0.5400840000000  0.5063770000000  0.5584620000000 1.0
C      1  0.4589430000000  0.5050610000000  0.4386040000000 1.0
C      1  0.5284990000000  0.4501040000000  0.4220370000000 1.0
C      1  0.4302980000000  0.5289760000000  0.4527520000000 1.0
C      1  0.4545380000000  0.4185830000000  0.5369780000000 1.0
C      1  0.4736180000000  0.4460170000000  0.5712340000000 1.0
C      1  0.5233550000000  0.5519260000000  0.5678400000000 1.0
C      1  0.4761580000000  0.5518210000000  0.4314150000000 1.0
C      1  0.5725860000000  0.5270000000000  0.5479900000000 1.0
C      1  0.4182250000000  0.4620200000000  0.5524670000000 1.0
C      1  0.5822290000000  0.4626790000000  0.4525440000000 1.0
C      1  0.5522490000000  0.4279040000000  0.4726250000000 1.0
C      1  0.4501710000000  0.5866610000000  0.4721540000000 1.0
C      1  0.5521020000000  0.5865820000000  0.5301460000000 1.0
C      1  0.5258150000000  0.4347820000000  0.5260410000000 1.0
C      1  0.5266440000000  0.5227710000000  0.4346870000000 1.0
C      1  0.4322610000000  0.5240220000000  0.5269950000000 1.0
C      1  0.4696060000000  0.4335330000000  0.4732510000000 1.0
C      1  0.5298460000000  0.5711850000000  0.4707240000000 1.0
C      1  0.4695320000000  0.5714280000000  0.5321700000000 1.0
C      1  0.4709680000000  0.5254120000000  0.5652390000000 1.0
C      1  0.5253440000000  0.4766850000000  0.5629400000000 1.0
C      1  0.4725520000000  0.4751190000000  0.4331530000000 1.0
C      1  0.5623390000000  0.5235260000000  0.4771070000000 1.0
C      1  0.4343370000000  0.4732000000000  0.4760940000000 1.0
C      1  0.5595420000000  0.4736550000000  0.5193060000000 1.0
C      1  0.5536230000000  0.4780660000000  0.5830270000000 1.0
C      1  0.5864260000000  0.5481070000000  0.4746590000000 1.0
C      1  0.4695230000000  0.5829430000000  0.5646670000000 1.0
C      1  0.4432400000000  0.4750210000000  0.4137470000000 1.0
C      1  0.5569030000000  0.5242050000000  0.4183800000000 1.0
C      1  0.4423270000000  0.5247450000000  0.5844440000000 1.0
C      1  0.4110420000000  0.5529170000000  0.5267910000000 1.0
C      1  0.5930070000000  0.4286390000000  0.5272910000000 1.0
C      1  0.4113630000000  0.4477750000000  0.4817620000000 1.0
C      1  0.5316220000000  0.5812390000000  0.4355140000000 1.0
C      1  0.4690270000000  0.4173940000000  0.4420890000000 1.0
C      1  0.5300990000000  0.4213380000000  0.5573970000000 1.0
C      1  0.5856020000000  0.5145430000000  0.4539910000000 1.0
C      1  0.4413550000000  0.5884480000000  0.5247140000000 1.0
C      1  0.5106880000000  0.4542170000000  0.5840910000000 1.0
C      1  0.4116970000000  0.5124180000000  0.5516830000000 1.0
C      1  0.5775660000000  0.4737840000000  0.5413980000000 1.0
C      1  0.4162050000000  0.4853980000000  0.4499440000000 1.0
C      1  0.5583170000000  0.5857490000000  0.4760450000000 1.0
C      1  0.4437390000000  0.4142410000000  0.4838140000000 1.0
C      1  0.5481740000000  0.4138620000000  0.5110220000000 1.0
C      1  0.4849720000000  0.4506740000000  0.4133060000000 1.0
C      1  0.5107690000000  0.5434550000000  0.4129510000000 1.0
C      1  0.4889610000000  0.5445090000000  0.5868650000000 1.0
C      1  0.4614320000000  0.5631380000000  0.4940160000000 1.0
C      1  0.4897820000000  0.4638830000000  0.5504730000000 1.0
C      1  0.5605190000000  0.4854510000000  0.4653920000000 1.0
C      1  0.5392560000000  0.5635680000000  0.5086210000000 1.0
C      1  0.4650780000000  0.4388660000000  0.5125710000000 1.0
C      1  0.5369440000000  0.4501400000000  0.4910800000000 1.0
C      1  0.5060990000000  0.4581320000000  0.4463900000000 1.0
C      1  0.4943730000000  0.5360610000000  0.4535140000000 1.0
C      1  0.5029180000000  0.5384480000000  0.5456030000000 1.0
C      1  0.4372630000000  0.4846770000000  0.5388470000000 1.0
C      1  0.5506590000000  0.5110060000000  0.5291350000000 1.0
C      1  0.4506270000000  0.5086860000000  0.4685940000000 1.0
C      1  0.5806730000000  0.4306910000000  0.4450980000000 1.0
C      1  0.4515980000000  0.5817760000000  0.4402420000000 1.0
C      1  0.4427740000000  0.4465990000000  0.5795190000000 1.0
C      1  0.4223830000000  0.4303390000000  0.5571220000000 1.0
C      1  0.5739630000000  0.5592100000000  0.5487010000000 1.0
C      1  0.4271650000000  0.5610060000000  0.4526570000000 1.0
C      1  0.5502750000000  0.5804290000000  0.5618070000000 1.0
C      1  0.4498130000000  0.4143930000000  0.5693870000000 1.0
C      1  0.5479010000000  0.4216640000000  0.4416850000000 1.0
C      1  0.5607480000000  0.4473910000000  0.4228120000000 1.0
C      1  0.4444510000000  0.5523050000000  0.4242290000000 1.0
C      1  0.5547450000000  0.5491720000000  0.5753290000000 1.0
C      1  0.4928310000000  0.4837880000000  0.6016850000000 1.0
C      1  0.6139780000000  0.4870320000000  0.4869950000000 1.0
C      1  0.4834860000000  0.6131820000000  0.4836110000000 1.0
C      1  0.5083920000000  0.4826810000000  0.3965760000000 1.0
C      1  0.4889700000000  0.5243870000000  0.4004340000000 1.0
C      1  0.5116250000000  0.5255420000000  0.5973570000000 1.0
C      1  0.3905060000000  0.4847130000000  0.5097750000000 1.0
C      1  0.6081950000000  0.5167480000000  0.5217720000000 1.0
C      1  0.3969350000000  0.5156110000000  0.4762700000000 1.0
C      1  0.5177870000000  0.6147050000000  0.5144920000000 1.0
C      1  0.4909810000000  0.3883570000000  0.5096580000000 1.0
C      1  0.5313730000000  0.3973790000000  0.4895990000000 1.0
C      1  0.4490930000000  0.5999040000000  0.5511700000000 1.0
C      1  0.5325910000000  0.4667480000000  0.6008320000000 1.0
C      1  0.6086550000000  0.5349420000000  0.4579730000000 1.0
C      1  0.5523300000000  0.5959770000000  0.4490160000000 1.0
C      1  0.4521040000000  0.4005180000000  0.4591180000000 1.0
C      1  0.5446400000000  0.4028960000000  0.5408820000000 1.0
C      1  0.4629320000000  0.4613850000000  0.3968970000000 1.0
C      1  0.5393840000000  0.5374530000000  0.3998490000000 1.0
C      1  0.4609440000000  0.5386440000000  0.6015000000000 1.0
C      1  0.3948260000000  0.5321640000000  0.5384500000000 1.0
C      1  0.5956180000000  0.4517680000000  0.5414570000000 1.0
C      1  0.3981680000000  0.4647500000000  0.4614780000000 1.0
C      1  0.5006270000000  0.6292690000000  0.4983080000000 1.0
C      1  0.5058060000000  0.5047390000000  0.6146670000000 1.0
C      1  0.6265620000000  0.5027810000000  0.5061970000000 1.0
C      1  0.5136140000000  0.3775690000000  0.4974370000000 1.0
C      1  0.4962330000000  0.5038830000000  0.3833190000000 1.0
C      1  0.3784960000000  0.4996520000000  0.4896340000000 1.0
C      1  0.4999150000000  0.5225580000000  0.5018300000000 1.0
END
