TITL C-2782232-2968-1036 0.00722261615659372 125000 -1139.8460716734 0 0 196 (C1) n - 1
REM
REM in /home/nfs/bkarasulu/CARBON/AIRSS/Generating-Clusters/REBO/Higher-Symm/SD-CG/HFTN-CG
REM
REM
REM
REM
REM
REM ./C.cell (12c818d87b63d06a65506943cc24bca4)
REM
REM compiler GCC version 9.2.1 20190827 (Red Hat 9.2.1-1)
REM options -cpp -mtune=generic -march=x86-64 -g -O0 -fpre-include=/usr/include/finclude/math-vector-fortran.h
REM seed 1826467137 1151570183 1057600719 1061135325 -645170279 1771795894 -736999756 133162825 385472018 819972429 -2031272318 1007812099 -217542226 -1497138492 892435721 669546319 -447818100 -2098640134 2041243458 2012125124 1879915583 620524027 732112778 -1163771534 -706916252 -33375127 501471926 1273075448 -2129984572 607319668 1516699548 -61867324 2128084255
REM
CELL 1.54180   50.00000   50.00000   50.00000   90.00000   90.00000   90.00000
LATT -1
SFAC C  
C      1  0.5131390000000  0.6199320000000  0.4556750000000 1.0
C      1  0.4907120000000  0.6143220000000  0.5342130000000 1.0
C      1  0.5109350000000  0.3792980000000  0.4576060000000 1.0
C      1  0.4796140000000  0.3766680000000  0.5422870000000 1.0
C      1  0.4829980000000  0.6265440000000  0.4532140000000 1.0
C      1  0.5214340000000  0.6215180000000  0.5377340000000 1.0
C      1  0.4798810000000  0.3737960000000  0.4585720000000 1.0
C      1  0.5102650000000  0.3843030000000  0.5389080000000 1.0
C      1  0.5437740000000  0.4530650000000  0.5795200000000 1.0
C      1  0.4603340000000  0.4476630000000  0.4193780000000 1.0
C      1  0.5467060000000  0.5485350000000  0.5847330000000 1.0
C      1  0.4546820000000  0.5460820000000  0.4190770000000 1.0
C      1  0.4546400000000  0.4525490000000  0.5811210000000 1.0
C      1  0.5449420000000  0.4518450000000  0.4194350000000 1.0
C      1  0.4581130000000  0.5469920000000  0.5801160000000 1.0
C      1  0.5418680000000  0.5477620000000  0.4198400000000 1.0
C      1  0.5531100000000  0.5245120000000  0.4840230000000 1.0
C      1  0.4462030000000  0.5227440000000  0.5141410000000 1.0
C      1  0.5530110000000  0.4740190000000  0.4866070000000 1.0
C      1  0.4447100000000  0.4723930000000  0.5167550000000 1.0
C      1  0.4457610000000  0.5228750000000  0.4825610000000 1.0
C      1  0.5525110000000  0.5275670000000  0.5165050000000 1.0
C      1  0.4480480000000  0.4709550000000  0.4856680000000 1.0
C      1  0.5543110000000  0.4799710000000  0.5164530000000 1.0
C      1  0.5168140000000  0.4561350000000  0.4470190000000 1.0
C      1  0.4853640000000  0.4533590000000  0.5508840000000 1.0
C      1  0.5161700000000  0.5460560000000  0.4504210000000 1.0
C      1  0.4849510000000  0.5420580000000  0.5512500000000 1.0
C      1  0.4854420000000  0.4568620000000  0.4492890000000 1.0
C      1  0.5184600000000  0.4571800000000  0.5491100000000 1.0
C      1  0.4833870000000  0.5484530000000  0.4467710000000 1.0
C      1  0.5180760000000  0.5478370000000  0.5564900000000 1.0
C      1  0.4867030000000  0.5779700000000  0.4857340000000 1.0
C      1  0.5249420000000  0.5823170000000  0.5173250000000 1.0
C      1  0.4752470000000  0.4176160000000  0.4851350000000 1.0
C      1  0.5084200000000  0.4414450000000  0.5137720000000 1.0
C      1  0.5185240000000  0.5783910000000  0.4900380000000 1.0
C      1  0.4901070000000  0.5631050000000  0.5135880000000 1.0
C      1  0.5091220000000  0.4381100000000  0.4818140000000 1.0
C      1  0.4768470000000  0.4171670000000  0.5115000000000 1.0
C      1  0.5573390000000  0.6022170000000  0.4830880000000 1.0
C      1  0.4471950000000  0.5929320000000  0.5093350000000 1.0
C      1  0.5451530000000  0.4104690000000  0.4786200000000 1.0
C      1  0.4402570000000  0.3981290000000  0.5153260000000 1.0
C      1  0.4504280000000  0.5913400000000  0.4759110000000 1.0
C      1  0.5613870000000  0.5977070000000  0.5133870000000 1.0
C      1  0.4392080000000  0.4004460000000  0.4847240000000 1.0
C      1  0.5455130000000  0.4139450000000  0.5121020000000 1.0
C      1  0.5516920000000  0.6070940000000  0.5397200000000 1.0
C      1  0.4522070000000  0.6136210000000  0.4525050000000 1.0
C      1  0.5399970000000  0.3935570000000  0.5360670000000 1.0
C      1  0.4488390000000  0.3876790000000  0.4601520000000 1.0
C      1  0.4599750000000  0.6037570000000  0.5334720000000 1.0
C      1  0.5457860000000  0.6107570000000  0.4582330000000 1.0
C      1  0.4483340000000  0.3901110000000  0.5416500000000 1.0
C      1  0.5402480000000  0.3884720000000  0.4565670000000 1.0
C      1  0.4746360000000  0.5196780000000  0.4413580000000 1.0
C      1  0.5136750000000  0.5141060000000  0.5570410000000 1.0
C      1  0.4735320000000  0.4868320000000  0.4437330000000 1.0
C      1  0.5281590000000  0.4857150000000  0.5595990000000 1.0
C      1  0.5254740000000  0.5183090000000  0.4409700000000 1.0
C      1  0.4822810000000  0.5098770000000  0.5558230000000 1.0
C      1  0.5286020000000  0.4859640000000  0.4431490000000 1.0
C      1  0.4717020000000  0.4809890000000  0.5597350000000 1.0
C      1  0.5111200000000  0.4813560000000  0.3939690000000 1.0
C      1  0.4893740000000  0.4796680000000  0.6092610000000 1.0
C      1  0.5129540000000  0.5205620000000  0.4025840000000 1.0
C      1  0.4882570000000  0.5195930000000  0.6111650000000 1.0
C      1  0.4866660000000  0.4809010000000  0.3945410000000 1.0
C      1  0.5138180000000  0.4805440000000  0.6092250000000 1.0
C      1  0.4885270000000  0.5200850000000  0.4022360000000 1.0
C      1  0.5127160000000  0.5204310000000  0.6117420000000 1.0
C      1  0.5842210000000  0.5567200000000  0.4678100000000 1.0
C      1  0.4122490000000  0.5562190000000  0.5327320000000 1.0
C      1  0.5898780000000  0.4433880000000  0.4663920000000 1.0
C      1  0.4160940000000  0.4415140000000  0.5292350000000 1.0
C      1  0.4130820000000  0.5525420000000  0.4668770000000 1.0
C      1  0.5880900000000  0.5582620000000  0.5340310000000 1.0
C      1  0.4136110000000  0.4431640000000  0.4638510000000 1.0
C      1  0.5895650000000  0.4444830000000  0.5325410000000 1.0
C      1  0.4746190000000  0.4834880000000  0.5268790000000 1.0
C      1  0.5250970000000  0.4825170000000  0.4758690000000 1.0
C      1  0.4745390000000  0.5152620000000  0.5236360000000 1.0
C      1  0.5240570000000  0.5137990000000  0.4738290000000 1.0
C      1  0.5239580000000  0.4898080000000  0.5267420000000 1.0
C      1  0.4752470000000  0.4825450000000  0.4776030000000 1.0
C      1  0.5223460000000  0.5225570000000  0.5258780000000 1.0
C      1  0.4754500000000  0.5133380000000  0.4735240000000 1.0
C      1  0.4366520000000  0.5621330000000  0.4845290000000 1.0
C      1  0.5628430000000  0.5661310000000  0.5181040000000 1.0
C      1  0.4387970000000  0.4327040000000  0.4792320000000 1.0
C      1  0.5667640000000  0.4394570000000  0.5139710000000 1.0
C      1  0.5605510000000  0.5688930000000  0.4854990000000 1.0
C      1  0.4379060000000  0.5625580000000  0.5163660000000 1.0
C      1  0.5657670000000  0.4357320000000  0.4834500000000 1.0
C      1  0.4394900000000  0.4310240000000  0.5120190000000 1.0
C      1  0.5205290000000  0.5683110000000  0.5820240000000 1.0
C      1  0.4813900000000  0.5673890000000  0.4197460000000 1.0
C      1  0.5144530000000  0.4361230000000  0.5745150000000 1.0
C      1  0.4835130000000  0.4277980000000  0.4221160000000 1.0
C      1  0.4871920000000  0.5645030000000  0.5762240000000 1.0
C      1  0.5138280000000  0.5666750000000  0.4242140000000 1.0
C      1  0.4811570000000  0.4325680000000  0.5769070000000 1.0
C      1  0.5156730000000  0.4343100000000  0.4219780000000 1.0
C      1  0.4305990000000  0.4425290000000  0.5588700000000 1.0
C      1  0.5680160000000  0.4375190000000  0.4404030000000 1.0
C      1  0.4350690000000  0.5596120000000  0.5581060000000 1.0
C      1  0.5648810000000  0.5628970000000  0.4399560000000 1.0
C      1  0.5675110000000  0.4399690000000  0.5584160000000 1.0
C      1  0.4337930000000  0.4352860000000  0.4368330000000 1.0
C      1  0.5713370000000  0.5596720000000  0.5637360000000 1.0
C      1  0.4330550000000  0.5619520000000  0.4403130000000 1.0
C      1  0.5380320000000  0.4451520000000  0.5256450000000 1.0
C      1  0.4676140000000  0.4423110000000  0.4659850000000 1.0
C      1  0.5363020000000  0.5571170000000  0.5343630000000 1.0
C      1  0.4656610000000  0.5606640000000  0.4690740000000 1.0
C      1  0.4677950000000  0.4435800000000  0.5265870000000 1.0
C      1  0.5380350000000  0.4425690000000  0.4685630000000 1.0
C      1  0.4637110000000  0.5529330000000  0.5295870000000 1.0
C      1  0.5332770000000  0.5552730000000  0.4738340000000 1.0
C      1  0.6085580000000  0.5474020000000  0.4863060000000 1.0
C      1  0.3900940000000  0.5442000000000  0.5172240000000 1.0
C      1  0.6105130000000  0.4569480000000  0.4838810000000 1.0
C      1  0.3930260000000  0.4524000000000  0.5148850000000 1.0
C      1  0.3892690000000  0.5432210000000  0.4857050000000 1.0
C      1  0.6092080000000  0.5468850000000  0.5171640000000 1.0
C      1  0.3915230000000  0.4537910000000  0.4844740000000 1.0
C      1  0.6115810000000  0.4566150000000  0.5168470000000 1.0
C      1  0.5404300000000  0.5828610000000  0.4388560000000 1.0
C      1  0.4621300000000  0.5799710000000  0.5581300000000 1.0
C      1  0.5406870000000  0.4172890000000  0.4381930000000 1.0
C      1  0.4541720000000  0.4180910000000  0.5610760000000 1.0
C      1  0.4566670000000  0.5831290000000  0.4373180000000 1.0
C      1  0.5464790000000  0.5824540000000  0.5635550000000 1.0
C      1  0.4568200000000  0.4123840000000  0.4374560000000 1.0
C      1  0.5395050000000  0.4206880000000  0.5568670000000 1.0
C      1  0.4906440000000  0.5798700000000  0.5396030000000 1.0
C      1  0.5146950000000  0.5865790000000  0.4587720000000 1.0
C      1  0.4815830000000  0.4106310000000  0.5439020000000 1.0
C      1  0.5119900000000  0.4152870000000  0.4567450000000 1.0
C      1  0.5180120000000  0.5895440000000  0.5489490000000 1.0
C      1  0.4844770000000  0.5923490000000  0.4545960000000 1.0
C      1  0.5106340000000  0.4195500000000  0.5383900000000 1.0
C      1  0.4828790000000  0.4069570000000  0.4561360000000 1.0
C      1  0.4267650000000  0.5291670000000  0.5630230000000 1.0
C      1  0.5793970000000  0.5339720000000  0.4428620000000 1.0
C      1  0.4216140000000  0.4720250000000  0.5712280000000 1.0
C      1  0.5772800000000  0.4682070000000  0.4360100000000 1.0
C      1  0.5756690000000  0.5280300000000  0.5668990000000 1.0
C      1  0.4199660000000  0.5318600000000  0.4406720000000 1.0
C      1  0.5763420000000  0.4704230000000  0.5644770000000 1.0
C      1  0.4207940000000  0.4653860000000  0.4393190000000 1.0
C      1  0.5596240000000  0.4825610000000  0.4558580000000 1.0
C      1  0.4414820000000  0.4826590000000  0.5490330000000 1.0
C      1  0.5566610000000  0.5132780000000  0.4512630000000 1.0
C      1  0.4350030000000  0.5120280000000  0.5427070000000 1.0
C      1  0.4423820000000  0.4813460000000  0.4549460000000 1.0
C      1  0.5574640000000  0.4871050000000  0.5481020000000 1.0
C      1  0.4434260000000  0.5123260000000  0.4502210000000 1.0
C      1  0.5650730000000  0.5156740000000  0.5444680000000 1.0
C      1  0.6189560000000  0.4857210000000  0.5286470000000 1.0
C      1  0.3865120000000  0.4842120000000  0.4765580000000 1.0
C      1  0.6141500000000  0.5160790000000  0.5235500000000 1.0
C      1  0.3802630000000  0.5147710000000  0.4737380000000 1.0
C      1  0.3829380000000  0.4810120000000  0.5283380000000 1.0
C      1  0.6139310000000  0.4880950000000  0.4757140000000 1.0
C      1  0.3859540000000  0.5124310000000  0.5234180000000 1.0
C      1  0.6181360000000  0.5193750000000  0.4728590000000 1.0
C      1  0.5711760000000  0.4864490000000  0.4137050000000 1.0
C      1  0.4312970000000  0.4890570000000  0.5926670000000 1.0
C      1  0.5769610000000  0.5161930000000  0.4170560000000 1.0
C      1  0.4299150000000  0.5185850000000  0.5887510000000 1.0
C      1  0.4308260000000  0.4858690000000  0.4169990000000 1.0
C      1  0.5740810000000  0.4830390000000  0.5902000000000 1.0
C      1  0.4259390000000  0.5154050000000  0.4145910000000 1.0
C      1  0.5698150000000  0.5128980000000  0.5903160000000 1.0
C      1  0.4576500000000  0.5145800000000  0.4060910000000 1.0
C      1  0.5403170000000  0.5186530000000  0.5996510000000 1.0
C      1  0.4591030000000  0.4778880000000  0.4076590000000 1.0
C      1  0.5419920000000  0.4823000000000  0.5970090000000 1.0
C      1  0.5454620000000  0.5162790000000  0.4069500000000 1.0
C      1  0.4612960000000  0.5176900000000  0.5971700000000 1.0
C      1  0.5401660000000  0.4822830000000  0.4048420000000 1.0
C      1  0.4611640000000  0.4812140000000  0.5982470000000 1.0
C      1  0.4146340000000  0.4853610000000  0.5199130000000 1.0
C      1  0.5824940000000  0.4845830000000  0.4885270000000 1.0
C      1  0.4160920000000  0.5157250000000  0.5081810000000 1.0
C      1  0.5856980000000  0.5159980000000  0.4779810000000 1.0
C      1  0.5868000000000  0.4874210000000  0.5212340000000 1.0
C      1  0.4189480000000  0.4821200000000  0.4872700000000 1.0
C      1  0.5829040000000  0.5181760000000  0.5097270000000 1.0
C      1  0.4135880000000  0.5133450000000  0.4761630000000 1.0
C      1  0.5004420000000  0.4730780000000  0.5172510000000 1.0
C      1  0.4973220000000  0.5327380000000  0.5122920000000 1.0
C      1  0.4995320000000  0.5252080000000  0.4843370000000 1.0
C      1  0.5004040000000  0.4692550000000  0.4864130000000 1.0
END
