TITL C-2782239-8622-821 0.00162993893626312 125000 -806.918781116932 0 0 141 (C1) n - 1
REM
REM in /home/nfs/bkarasulu/CARBON/AIRSS/Generating-Clusters/REBO/Higher-Symm/SD-CG/HFTN-CG
REM
REM
REM
REM
REM
REM ./C.cell (12c818d87b63d06a65506943cc24bca4)
REM
REM compiler GCC version 9.2.1 20190827 (Red Hat 9.2.1-1)
REM options -cpp -mtune=generic -march=x86-64 -g -O0 -fpre-include=/usr/include/finclude/math-vector-fortran.h
REM seed 981719041 -1846914991 310481968 1401536832 919168608 -654201937 1635212680 36404371 824158194 -1570749965 1242196810 -937824034 -1223755708 492249604 -1601125300 1143058523 1990073385 -800371963 190197945 914599550 -1614362697 -1358148038 -1226954075 -615365451 -806958877 2133344842 1352611280 201904547 879017348 2024034384 1947372318 -250355949 664523492
REM
CELL 1.54180   50.00000   50.00000   50.00000   90.00000   90.00000   90.00000
LATT -1
SFAC C  
C      1  0.5875520000000  0.4609730000000  0.4961080000000 1.0
C      1  0.4517390000000  0.4549220000000  0.4253450000000 1.0
C      1  0.4593650000000  0.4611740000000  0.5766010000000 1.0
C      1  0.5879870000000  0.5437570000000  0.5005460000000 1.0
C      1  0.4552350000000  0.5396940000000  0.5866590000000 1.0
C      1  0.4593230000000  0.5427280000000  0.4228970000000 1.0
C      1  0.5917120000000  0.5331970000000  0.4566850000000 1.0
C      1  0.4229140000000  0.5344480000000  0.4370380000000 1.0
C      1  0.4810560000000  0.5279440000000  0.6028700000000 1.0
C      1  0.5883190000000  0.4714400000000  0.5419570000000 1.0
C      1  0.4218980000000  0.4768320000000  0.5536940000000 1.0
C      1  0.4922660000000  0.4666510000000  0.4012890000000 1.0
C      1  0.4833870000000  0.5851330000000  0.4447430000000 1.0
C      1  0.4584870000000  0.5819650000000  0.5452440000000 1.0
C      1  0.5505920000000  0.5806980000000  0.5059060000000 1.0
C      1  0.4783690000000  0.4217990000000  0.5495330000000 1.0
C      1  0.4660820000000  0.4158150000000  0.4554900000000 1.0
C      1  0.5539130000000  0.4198270000000  0.4925640000000 1.0
C      1  0.5835060000000  0.4476460000000  0.5241430000000 1.0
C      1  0.4793560000000  0.4448800000000  0.4151490000000 1.0
C      1  0.4384600000000  0.4521430000000  0.5563930000000 1.0
C      1  0.5832700000000  0.5580270000000  0.4729980000000 1.0
C      1  0.4812930000000  0.5574630000000  0.5834520000000 1.0
C      1  0.4396340000000  0.5611760000000  0.4406550000000 1.0
C      1  0.4598750000000  0.4586390000000  0.5161160000000 1.0
C      1  0.5352410000000  0.4569550000000  0.5263460000000 1.0
C      1  0.5043160000000  0.4561160000000  0.4539410000000 1.0
C      1  0.4585250000000  0.5447720000000  0.4827090000000 1.0
C      1  0.5362090000000  0.5459080000000  0.4705650000000 1.0
C      1  0.5043820000000  0.5452640000000  0.5460380000000 1.0
C      1  0.4317650000000  0.5004760000000  0.5666790000000 1.0
C      1  0.5932370000000  0.4996720000000  0.5273560000000 1.0
C      1  0.4829260000000  0.4973520000000  0.4092980000000 1.0
C      1  0.4235660000000  0.5026780000000  0.4303630000000 1.0
C      1  0.5987460000000  0.5017120000000  0.4633440000000 1.0
C      1  0.4781910000000  0.4944310000000  0.6080400000000 1.0
C      1  0.4968120000000  0.5470060000000  0.4354080000000 1.0
C      1  0.4438070000000  0.5457870000000  0.5380730000000 1.0
C      1  0.5601550000000  0.5490640000000  0.5282650000000 1.0
C      1  0.4971520000000  0.4514000000000  0.5683180000000 1.0
C      1  0.4421510000000  0.4548430000000  0.4636370000000 1.0
C      1  0.5582440000000  0.4546760000000  0.4703770000000 1.0
C      1  0.4634860000000  0.4965500000000  0.4808920000000 1.0
C      1  0.5035170000000  0.4956130000000  0.5484500000000 1.0
C      1  0.5394410000000  0.4947940000000  0.4778150000000 1.0
C      1  0.4610030000000  0.5026100000000  0.5264360000000 1.0
C      1  0.4989090000000  0.5027070000000  0.4598180000000 1.0
C      1  0.5411450000000  0.5043860000000  0.5257960000000 1.0
C      1  0.5071150000000  0.4501070000000  0.5142090000000 1.0
C      1  0.5139190000000  0.4509830000000  0.4822120000000 1.0
C      1  0.4754580000000  0.4503550000000  0.4898160000000 1.0
C      1  0.5060780000000  0.5499480000000  0.4765550000000 1.0
C      1  0.5082100000000  0.5492770000000  0.5161250000000 1.0
C      1  0.4778990000000  0.5484000000000  0.5047730000000 1.0
C      1  0.5359930000000  0.5446340000000  0.5868680000000 1.0
C      1  0.5492000000000  0.5296220000000  0.4206250000000 1.0
C      1  0.4083100000000  0.5402460000000  0.4873780000000 1.0
C      1  0.5408140000000  0.4596820000000  0.4168940000000 1.0
C      1  0.5515290000000  0.4555170000000  0.5767530000000 1.0
C      1  0.4082720000000  0.4608310000000  0.5038610000000 1.0
C      1  0.5899990000000  0.5318230000000  0.5287560000000 1.0
C      1  0.4838020000000  0.5291380000000  0.4092230000000 1.0
C      1  0.4388010000000  0.5301810000000  0.5665390000000 1.0
C      1  0.5881380000000  0.4719840000000  0.4673820000000 1.0
C      1  0.4820640000000  0.4664690000000  0.5952360000000 1.0
C      1  0.4284400000000  0.4722840000000  0.4370520000000 1.0
C      1  0.4732450000000  0.4574420000000  0.4524700000000 1.0
C      1  0.4768550000000  0.4552080000000  0.5416490000000 1.0
C      1  0.5533500000000  0.4615590000000  0.5022670000000 1.0
C      1  0.4729800000000  0.5404100000000  0.5485140000000 1.0
C      1  0.4711620000000  0.5416870000000  0.4551250000000 1.0
C      1  0.5543410000000  0.5423750000000  0.4954820000000 1.0
C      1  0.4617650000000  0.4193320000000  0.5096140000000 1.0
C      1  0.5277970000000  0.4178890000000  0.5263120000000 1.0
C      1  0.5100070000000  0.4174150000000  0.4609000000000 1.0
C      1  0.4625790000000  0.5830890000000  0.4922910000000 1.0
C      1  0.5267090000000  0.5841180000000  0.4742200000000 1.0
C      1  0.5086630000000  0.5840790000000  0.5383180000000 1.0
C      1  0.5505420000000  0.4787500000000  0.4506390000000 1.0
C      1  0.4330990000000  0.4809560000000  0.4798190000000 1.0
C      1  0.5175780000000  0.4756230000000  0.5703580000000 1.0
C      1  0.5543090000000  0.5243110000000  0.5468980000000 1.0
C      1  0.4327810000000  0.5201760000000  0.5238710000000 1.0
C      1  0.5130850000000  0.5204200000000  0.4350390000000 1.0
C      1  0.4840770000000  0.5174960000000  0.5150190000000 1.0
C      1  0.5182890000000  0.5169790000000  0.5121770000000 1.0
C      1  0.4986000000000  0.5200630000000  0.4843000000000 1.0
C      1  0.4848700000000  0.4804430000000  0.4927370000000 1.0
C      1  0.5189300000000  0.4818210000000  0.4931910000000 1.0
C      1  0.5013710000000  0.4824010000000  0.5226340000000 1.0
C      1  0.5271330000000  0.5112430000000  0.4084360000000 1.0
C      1  0.4043350000000  0.5268760000000  0.5114130000000 1.0
C      1  0.5578540000000  0.5301470000000  0.5780360000000 1.0
C      1  0.5342860000000  0.4689560000000  0.5983270000000 1.0
C      1  0.4000280000000  0.4755250000000  0.4780430000000 1.0
C      1  0.5670930000000  0.4719310000000  0.4230510000000 1.0
C      1  0.4647600000000  0.4844250000000  0.5508420000000 1.0
C      1  0.5642770000000  0.4894790000000  0.5116530000000 1.0
C      1  0.4800640000000  0.4859840000000  0.4414790000000 1.0
C      1  0.4528770000000  0.5147290000000  0.4546940000000 1.0
C      1  0.5657700000000  0.5151910000000  0.4811430000000 1.0
C      1  0.4845140000000  0.5162190000000  0.5649220000000 1.0
C      1  0.4126190000000  0.4801710000000  0.5270530000000 1.0
C      1  0.5691810000000  0.4747770000000  0.5619570000000 1.0
C      1  0.5193610000000  0.4809030000000  0.4085900000000 1.0
C      1  0.4208930000000  0.5204770000000  0.4657840000000 1.0
C      1  0.5661070000000  0.5166010000000  0.4463030000000 1.0
C      1  0.5083250000000  0.5283940000000  0.5864840000000 1.0
C      1  0.4810150000000  0.5782130000000  0.5207160000000 1.0
C      1  0.5182720000000  0.5775000000000  0.5063680000000 1.0
C      1  0.4922070000000  0.5785530000000  0.4762270000000 1.0
C      1  0.4836580000000  0.4203550000000  0.4827180000000 1.0
C      1  0.5216240000000  0.4196440000000  0.4929160000000 1.0
C      1  0.4938750000000  0.4228240000000  0.5209530000000 1.0
C      1  0.5289210000000  0.4428420000000  0.4367520000000 1.0
C      1  0.4322840000000  0.4451170000000  0.5022990000000 1.0
C      1  0.5376020000000  0.4414980000000  0.5562390000000 1.0
C      1  0.5256790000000  0.5616740000000  0.5649920000000 1.0
C      1  0.4303100000000  0.5597800000000  0.4892620000000 1.0
C      1  0.5408190000000  0.5532010000000  0.4374480000000 1.0
C      1  0.5416230000000  0.5742100000000  0.5382900000000 1.0
C      1  0.5151460000000  0.5729300000000  0.4442310000000 1.0
C      1  0.4420480000000  0.5715590000000  0.5172920000000 1.0
C      1  0.5433360000000  0.4265330000000  0.4607100000000 1.0
C      1  0.5117290000000  0.4228660000000  0.5563680000000 1.0
C      1  0.4445090000000  0.4252390000000  0.4802460000000 1.0
C      1  0.4416090000000  0.5188630000000  0.4925620000000 1.0
C      1  0.5231380000000  0.5213990000000  0.5570020000000 1.0
C      1  0.5351700000000  0.5185070000000  0.4562030000000 1.0
C      1  0.4404180000000  0.4833520000000  0.5106110000000 1.0
C      1  0.5197590000000  0.4817760000000  0.4425930000000 1.0
C      1  0.5402470000000  0.4803680000000  0.5476670000000 1.0
C      1  0.4472430000000  0.4287800000000  0.5392270000000 1.0
C      1  0.5608950000000  0.4268450000000  0.5218420000000 1.0
C      1  0.4884990000000  0.4246080000000  0.4352150000000 1.0
C      1  0.4561010000000  0.5784560000000  0.4590850000000 1.0
C      1  0.5602790000000  0.5771760000000  0.4768330000000 1.0
C      1  0.4847720000000  0.5762780000000  0.5615090000000 1.0
C      1  0.4549530000000  0.5000140000000  0.4260030000000 1.0
C      1  0.5911250000000  0.5007630000000  0.4948530000000 1.0
C      1  0.4621160000000  0.5007950000000  0.5804190000000 1.0
END
