TITL C-2782228-2999-581 0.00139467682381958 125000 -760.121080841593 0 0 139 (C1) n - 1
REM
REM in /home/nfs/bkarasulu/CARBON/AIRSS/Generating-Clusters/REBO/Higher-Symm/SD-CG/HFTN-CG
REM
REM
REM
REM
REM
REM ./C.cell (12c818d87b63d06a65506943cc24bca4)
REM
REM compiler GCC version 9.2.1 20190827 (Red Hat 9.2.1-1)
REM options -cpp -mtune=generic -march=x86-64 -g -O0 -fpre-include=/usr/include/finclude/math-vector-fortran.h
REM seed 1010948243 1184932971 -1066793583 -746169402 1835209585 -1802553263 740360184 501101260 -168718331 -1590203200 620333364 1839800313 958053093 1151758600 -1645302655 635711709 -1254868356 2048898198 1201710366 1624297484 268441515 2014245193 -677977001 -995107437 -1783135599 -259033183 -1487710123 779919018 1055898323 -1423149591 -674048281 1230318534 -1855685448
REM
CELL 1.54180   50.00000   50.00000   50.00000   90.00000   90.00000   90.00000
LATT -1
SFAC C  
C      1  0.4880850000000  0.3935070000000  0.4784220000000 1.0
C      1  0.4904750000000  0.4018100000000  0.5153990000000 1.0
C      1  0.5183090000000  0.3971830000000  0.5011820000000 1.0
C      1  0.4929030000000  0.6013670000000  0.5203830000000 1.0
C      1  0.4902510000000  0.6004440000000  0.4808040000000 1.0
C      1  0.5163330000000  0.6052230000000  0.4986850000000 1.0
C      1  0.4924820000000  0.4813950000000  0.4021500000000 1.0
C      1  0.4179190000000  0.4872590000000  0.5536820000000 1.0
C      1  0.5906360000000  0.4821270000000  0.5384260000000 1.0
C      1  0.4911350000000  0.5168760000000  0.5980760000000 1.0
C      1  0.4173100000000  0.5147330000000  0.4454230000000 1.0
C      1  0.5895990000000  0.5208750000000  0.4591420000000 1.0
C      1  0.5450000000000  0.4135630000000  0.4879000000000 1.0
C      1  0.4650200000000  0.4138950000000  0.4635550000000 1.0
C      1  0.4871430000000  0.4149770000000  0.5455800000000 1.0
C      1  0.5411510000000  0.5852170000000  0.5107470000000 1.0
C      1  0.4662540000000  0.5867990000000  0.5356650000000 1.0
C      1  0.4849770000000  0.5831500000000  0.4529410000000 1.0
C      1  0.5408690000000  0.5634340000000  0.4744210000000 1.0
C      1  0.4553570000000  0.5593190000000  0.4730640000000 1.0
C      1  0.5013360000000  0.5617490000000  0.5547960000000 1.0
C      1  0.5451520000000  0.4379820000000  0.5283410000000 1.0
C      1  0.4527100000000  0.4410490000000  0.5264050000000 1.0
C      1  0.5021340000000  0.4372890000000  0.4515360000000 1.0
C      1  0.5232650000000  0.4602950000000  0.4556870000000 1.0
C      1  0.4513000000000  0.4541130000000  0.4962310000000 1.0
C      1  0.5209580000000  0.4552930000000  0.5416310000000 1.0
C      1  0.5249170000000  0.5449360000000  0.5402020000000 1.0
C      1  0.4528010000000  0.5471690000000  0.5035890000000 1.0
C      1  0.5203610000000  0.5436860000000  0.4568400000000 1.0
C      1  0.5153690000000  0.4245720000000  0.5556860000000 1.0
C      1  0.5455580000000  0.4190390000000  0.4570110000000 1.0
C      1  0.4427520000000  0.4238820000000  0.4835140000000 1.0
C      1  0.5137690000000  0.5745000000000  0.4435640000000 1.0
C      1  0.5387820000000  0.5761490000000  0.5418270000000 1.0
C      1  0.4436800000000  0.5775620000000  0.5159180000000 1.0
C      1  0.5546500000000  0.4816170000000  0.5556570000000 1.0
C      1  0.5206840000000  0.4824440000000  0.4304190000000 1.0
C      1  0.4245950000000  0.4825570000000  0.5149550000000 1.0
C      1  0.5525670000000  0.5183080000000  0.4448450000000 1.0
C      1  0.5222200000000  0.5172580000000  0.5732070000000 1.0
C      1  0.4243700000000  0.5191610000000  0.4841070000000 1.0
C      1  0.5849560000000  0.4927470000000  0.4784040000000 1.0
C      1  0.4382900000000  0.4908790000000  0.4331420000000 1.0
C      1  0.4756060000000  0.4904450000000  0.5840860000000 1.0
C      1  0.5857710000000  0.5098500000000  0.5189300000000 1.0
C      1  0.4401250000000  0.5101730000000  0.5646740000000 1.0
C      1  0.4788860000000  0.5095550000000  0.4148010000000 1.0
C      1  0.5497020000000  0.5207860000000  0.5625830000000 1.0
C      1  0.5296990000000  0.5209450000000  0.4254000000000 1.0
C      1  0.4228960000000  0.5223590000000  0.5130260000000 1.0
C      1  0.5538980000000  0.4790280000000  0.4381490000000 1.0
C      1  0.5316360000000  0.4784750000000  0.5739400000000 1.0
C      1  0.4220400000000  0.4793800000000  0.4860160000000 1.0
C      1  0.4357760000000  0.4602450000000  0.4428720000000 1.0
C      1  0.4856320000000  0.4606800000000  0.5842860000000 1.0
C      1  0.5751410000000  0.4628550000000  0.4709070000000 1.0
C      1  0.4366590000000  0.5410680000000  0.5556750000000 1.0
C      1  0.4865950000000  0.5399150000000  0.4120460000000 1.0
C      1  0.5793320000000  0.5400370000000  0.5282220000000 1.0
C      1  0.4627370000000  0.5280590000000  0.5828700000000 1.0
C      1  0.5921140000000  0.5294810000000  0.4919430000000 1.0
C      1  0.4499910000000  0.5248670000000  0.4164480000000 1.0
C      1  0.4621890000000  0.4734810000000  0.4160440000000 1.0
C      1  0.5921480000000  0.4731770000000  0.5054540000000 1.0
C      1  0.4483920000000  0.4738540000000  0.5785170000000 1.0
C      1  0.5673150000000  0.4570630000000  0.5387810000000 1.0
C      1  0.4991130000000  0.4562520000000  0.4241890000000 1.0
C      1  0.4299480000000  0.4594710000000  0.5381100000000 1.0
C      1  0.5644510000000  0.5442780000000  0.4605620000000 1.0
C      1  0.5022860000000  0.5423000000000  0.5782760000000 1.0
C      1  0.4311240000000  0.5417910000000  0.4609340000000 1.0
C      1  0.4634670000000  0.4454310000000  0.4570340000000 1.0
C      1  0.4803070000000  0.4437280000000  0.5550640000000 1.0
C      1  0.5537680000000  0.4433010000000  0.4898690000000 1.0
C      1  0.4646510000000  0.5546700000000  0.5410360000000 1.0
C      1  0.4784360000000  0.5560300000000  0.4406640000000 1.0
C      1  0.5556230000000  0.5577420000000  0.5108090000000 1.0
C      1  0.4944180000000  0.4054760000000  0.4482980000000 1.0
C      1  0.4592910000000  0.4077110000000  0.5272490000000 1.0
C      1  0.5449250000000  0.4047120000000  0.5208540000000 1.0
C      1  0.4946660000000  0.5945190000000  0.5528610000000 1.0
C      1  0.4583660000000  0.5931160000000  0.4718270000000 1.0
C      1  0.5413790000000  0.5961460000000  0.4787090000000 1.0
C      1  0.5489870000000  0.5066940000000  0.5334270000000 1.0
C      1  0.5046980000000  0.5090900000000  0.4453430000000 1.0
C      1  0.4478260000000  0.5054910000000  0.5257280000000 1.0
C      1  0.5466000000000  0.4935450000000  0.4676060000000 1.0
C      1  0.5055230000000  0.4914580000000  0.5578930000000 1.0
C      1  0.4466800000000  0.4960940000000  0.4717860000000 1.0
C      1  0.4572060000000  0.4849560000000  0.5490020000000 1.0
C      1  0.5613950000000  0.4861000000000  0.5121050000000 1.0
C      1  0.4821600000000  0.4864860000000  0.4402400000000 1.0
C      1  0.4566910000000  0.5160180000000  0.4474300000000 1.0
C      1  0.5611950000000  0.5161530000000  0.4863360000000 1.0
C      1  0.4822080000000  0.5137690000000  0.5593700000000 1.0
C      1  0.5186770000000  0.4969030000000  0.5994340000000 1.0
C      1  0.5791840000000  0.4996970000000  0.4347160000000 1.0
C      1  0.4018780000000  0.4990360000000  0.4684390000000 1.0
C      1  0.5216480000000  0.4989110000000  0.4006890000000 1.0
C      1  0.5789230000000  0.5033540000000  0.5623450000000 1.0
C      1  0.4025430000000  0.5031260000000  0.5307350000000 1.0
C      1  0.5146010000000  0.5548320000000  0.4945320000000 1.0
C      1  0.4837490000000  0.5683180000000  0.4899790000000 1.0
C      1  0.4979080000000  0.5674070000000  0.5212950000000 1.0
C      1  0.5170370000000  0.4311370000000  0.5102120000000 1.0
C      1  0.4830830000000  0.4357450000000  0.5118040000000 1.0
C      1  0.4978480000000  0.4259310000000  0.4824990000000 1.0
C      1  0.5258350000000  0.4065440000000  0.4419310000000 1.0
C      1  0.4390370000000  0.4056420000000  0.5054440000000 1.0
C      1  0.5360590000000  0.4056240000000  0.5498450000000 1.0
C      1  0.5243360000000  0.5941800000000  0.5585200000000 1.0
C      1  0.4395780000000  0.5960740000000  0.4943580000000 1.0
C      1  0.5335940000000  0.5940580000000  0.4498220000000 1.0
C      1  0.5884190000000  0.5598670000000  0.5020110000000 1.0
C      1  0.4615170000000  0.5608620000000  0.4121670000000 1.0
C      1  0.4587920000000  0.5587840000000  0.5745190000000 1.0
C      1  0.5870630000000  0.4432100000000  0.4961700000000 1.0
C      1  0.4616720000000  0.4384810000000  0.5825400000000 1.0
C      1  0.4574920000000  0.4425990000000  0.4235270000000 1.0
C      1  0.5571750000000  0.5488460000000  0.5495930000000 1.0
C      1  0.5138520000000  0.5480700000000  0.4238830000000 1.0
C      1  0.4278830000000  0.5500960000000  0.5264510000000 1.0
C      1  0.5533860000000  0.4483440000000  0.4504480000000 1.0
C      1  0.5141510000000  0.4520580000000  0.5744470000000 1.0
C      1  0.4272400000000  0.4516050000000  0.4723850000000 1.0
C      1  0.5151880000000  0.4761590000000  0.5191610000000 1.0
C      1  0.5071430000000  0.4767690000000  0.4772130000000 1.0
C      1  0.4734430000000  0.4758560000000  0.5054740000000 1.0
C      1  0.5163980000000  0.5234860000000  0.4830970000000 1.0
C      1  0.5095720000000  0.5236850000000  0.5239210000000 1.0
C      1  0.4763210000000  0.5263200000000  0.4928020000000 1.0
C      1  0.5405920000000  0.5275350000000  0.5078350000000 1.0
C      1  0.4823120000000  0.5295410000000  0.4597490000000 1.0
C      1  0.4756300000000  0.5251990000000  0.5279210000000 1.0
C      1  0.5378550000000  0.4731930000000  0.4936040000000 1.0
C      1  0.4851590000000  0.4725690000000  0.5376300000000 1.0
C      1  0.4735830000000  0.4750630000000  0.4705370000000 1.0
C      1  0.4978090000000  0.5003280000000  0.5009910000000 1.0
END
