TITL C-2782238-9940-623 -0.000331064282965848 125000 -175.770797295203 0 0 32 (C1) n - 1
REM
REM in /home/nfs/bkarasulu/CARBON/AIRSS/Generating-Clusters/REBO/Higher-Symm/SD-CG/HFTN-CG
REM
REM
REM
REM
REM
REM ./C.cell (12c818d87b63d06a65506943cc24bca4)
REM
REM compiler GCC version 9.2.1 20190827 (Red Hat 9.2.1-1)
REM options -cpp -mtune=generic -march=x86-64 -g -O0 -fpre-include=/usr/include/finclude/math-vector-fortran.h
REM seed 850598470 57707238 -1678227715 -2004825352 677760864 722221275 1824443503 -2079198767 383544998 -169796871 285252592 -571173301 1618065013 293802677 452461749 -553325955 -865127757 1796464420 -259217435 268136748 -121072746 -1712046184 -2115133306 -986585720 940422815 1088634532 -1238910664 171116370 385095498 -157639366 852556511 -2054931577 -1700927270
REM
CELL 1.54180   50.00000   50.00000   50.00000   90.00000   90.00000   90.00000
LATT -1
SFAC C  
C      1  0.5627140000000  0.5776120000000  0.5259870000000 1.0
C      1  0.4965570000000  0.4693420000000  0.4834230000000 1.0
C      1  0.4626920000000  0.5198180000000  0.4859460000000 1.0
C      1  0.5208000000000  0.4816450000000  0.5261020000000 1.0
C      1  0.5582100000000  0.4806150000000  0.4454080000000 1.0
C      1  0.4787510000000  0.4463080000000  0.4949440000000 1.0
C      1  0.5800740000000  0.5044430000000  0.4856270000000 1.0
C      1  0.5104530000000  0.4667080000000  0.4593500000000 1.0
C      1  0.5714500000000  0.5275540000000  0.5069430000000 1.0
C      1  0.4255130000000  0.4390250000000  0.5099150000000 1.0
C      1  0.4244040000000  0.5436670000000  0.4665820000000 1.0
C      1  0.4455750000000  0.5424260000000  0.4834920000000 1.0
C      1  0.5324030000000  0.5784600000000  0.5278570000000 1.0
C      1  0.4963190000000  0.5420970000000  0.5159030000000 1.0
C      1  0.5331090000000  0.4706980000000  0.4453090000000 1.0
C      1  0.5224390000000  0.5504040000000  0.5184330000000 1.0
C      1  0.4532910000000  0.5636360000000  0.5009050000000 1.0
C      1  0.5686180000000  0.4964390000000  0.5146480000000 1.0
C      1  0.4838630000000  0.4487550000000  0.5262440000000 1.0
C      1  0.4493700000000  0.4524390000000  0.4895310000000 1.0
C      1  0.4928070000000  0.4742330000000  0.5359360000000 1.0
C      1  0.4425160000000  0.4577200000000  0.4631280000000 1.0
C      1  0.5549310000000  0.5480950000000  0.5157620000000 1.0
C      1  0.4850630000000  0.5151040000000  0.5072290000000 1.0
C      1  0.4744190000000  0.4956490000000  0.5301910000000 1.0
C      1  0.4470620000000  0.4889290000000  0.5294190000000 1.0
C      1  0.4863710000000  0.4209180000000  0.4849170000000 1.0
C      1  0.5764830000000  0.4934590000000  0.4606370000000 1.0
C      1  0.5483420000000  0.4827300000000  0.5272420000000 1.0
C      1  0.4761660000000  0.5622430000000  0.5161510000000 1.0
C      1  0.5042280000000  0.4904060000000  0.5012910000000 1.0
C      1  0.4350100000000  0.4684210000000  0.5155500000000 1.0
END
