TITL C-2782226-7400-618 -0.00790337031339632 125000 -1107.21703465738 0 0 187 (C1) n - 1
REM
REM in /home/nfs/bkarasulu/CARBON/AIRSS/Generating-Clusters/REBO/Higher-Symm/SD-CG/HFTN-CG
REM
REM
REM
REM
REM
REM ./C.cell (12c818d87b63d06a65506943cc24bca4)
REM
REM compiler GCC version 9.2.1 20190827 (Red Hat 9.2.1-1)
REM options -cpp -mtune=generic -march=x86-64 -g -O0 -fpre-include=/usr/include/finclude/math-vector-fortran.h
REM seed 225188407 1635315882 345336541 -1813379757 1282527394 891829528 1775231729 -1988385220 1133530534 1797081018 1302200321 -656573810 1229774568 -603573320 2001002302 885543085 1370782451 -232918352 -1405837029 1967433163 1503794260 1936782583 -300732893 551422144 1886142910 -815449429 -385637530 -1171358758 907020427 1405048994 -1921253683 -742257029 1106763405
REM
CELL 1.54180   50.00000   50.00000   50.00000   90.00000   90.00000   90.00000
LATT -1
SFAC C  
C      1  0.4898530000000  0.4080050000000  0.4408240000000 1.0
C      1  0.5067280000000  0.5959790000000  0.5573190000000 1.0
C      1  0.5178530000000  0.4806180000000  0.5563410000000 1.0
C      1  0.5008240000000  0.5196580000000  0.4370620000000 1.0
C      1  0.5303620000000  0.5213740000000  0.5712540000000 1.0
C      1  0.4725880000000  0.4795160000000  0.4458680000000 1.0
C      1  0.5372670000000  0.3926320000000  0.5210530000000 1.0
C      1  0.4604540000000  0.5997000000000  0.4733640000000 1.0
C      1  0.5498600000000  0.4158120000000  0.5576510000000 1.0
C      1  0.4486830000000  0.5817280000000  0.4399740000000 1.0
C      1  0.4703500000000  0.4478540000000  0.4482260000000 1.0
C      1  0.5199700000000  0.5471520000000  0.5582400000000 1.0
C      1  0.5172060000000  0.4734100000000  0.4301920000000 1.0
C      1  0.4896450000000  0.4976570000000  0.5930380000000 1.0
C      1  0.4260880000000  0.5370610000000  0.4357160000000 1.0
C      1  0.5698190000000  0.4603380000000  0.5642860000000 1.0
C      1  0.6026030000000  0.5233730000000  0.4666620000000 1.0
C      1  0.3997770000000  0.4779700000000  0.5375840000000 1.0
C      1  0.5577290000000  0.5390100000000  0.4379660000000 1.0
C      1  0.4470860000000  0.4608230000000  0.5623350000000 1.0
C      1  0.5320610000000  0.5241410000000  0.6408010000000 1.0
C      1  0.4751150000000  0.4800610000000  0.3569690000000 1.0
C      1  0.5779180000000  0.5361070000000  0.5702200000000 1.0
C      1  0.4256210000000  0.4714030000000  0.4336140000000 1.0
C      1  0.5628960000000  0.5138260000000  0.4588970000000 1.0
C      1  0.4393240000000  0.4860640000000  0.5415970000000 1.0
C      1  0.4795400000000  0.4496720000000  0.5890350000000 1.0
C      1  0.5218320000000  0.5501470000000  0.4093560000000 1.0
C      1  0.5244280000000  0.5038160000000  0.4551540000000 1.0
C      1  0.4779670000000  0.4963700000000  0.5420230000000 1.0
C      1  0.5248230000000  0.4030200000000  0.5615220000000 1.0
C      1  0.4737390000000  0.5938010000000  0.4344530000000 1.0
C      1  0.5889470000000  0.4761420000000  0.4425850000000 1.0
C      1  0.4143290000000  0.5260510000000  0.5608730000000 1.0
C      1  0.4319380000000  0.4718800000000  0.4751550000000 1.0
C      1  0.5639360000000  0.5306210000000  0.5273040000000 1.0
C      1  0.4301950000000  0.5054310000000  0.4965520000000 1.0
C      1  0.5684550000000  0.4958580000000  0.5032320000000 1.0
C      1  0.4759440000000  0.4022810000000  0.5344770000000 1.0
C      1  0.5233660000000  0.5968360000000  0.4613870000000 1.0
C      1  0.5589150000000  0.3876560000000  0.5018360000000 1.0
C      1  0.4390100000000  0.6066530000000  0.4914740000000 1.0
C      1  0.4987330000000  0.5731990000000  0.5231980000000 1.0
C      1  0.5011640000000  0.4288700000000  0.4729020000000 1.0
C      1  0.4740510000000  0.5907340000000  0.5090650000000 1.0
C      1  0.5244730000000  0.4085330000000  0.4872730000000 1.0
C      1  0.4542150000000  0.5847180000000  0.5441430000000 1.0
C      1  0.5439050000000  0.4133760000000  0.4518150000000 1.0
C      1  0.4440680000000  0.5400640000000  0.5696350000000 1.0
C      1  0.5620430000000  0.4594340000000  0.4299360000000 1.0
C      1  0.5564630000000  0.5219480000000  0.4871760000000 1.0
C      1  0.4462300000000  0.4796500000000  0.5116780000000 1.0
C      1  0.5594990000000  0.4167350000000  0.5290480000000 1.0
C      1  0.4413170000000  0.5716440000000  0.4708770000000 1.0
C      1  0.4989470000000  0.4484190000000  0.5420480000000 1.0
C      1  0.5044520000000  0.5530150000000  0.4583470000000 1.0
C      1  0.4931400000000  0.5439010000000  0.4065220000000 1.0
C      1  0.5081850000000  0.4530320000000  0.5938950000000 1.0
C      1  0.5435780000000  0.5989390000000  0.4861560000000 1.0
C      1  0.4554360000000  0.4026420000000  0.5103290000000 1.0
C      1  0.5016230000000  0.4183550000000  0.5587770000000 1.0
C      1  0.4977190000000  0.5798600000000  0.4376360000000 1.0
C      1  0.4591040000000  0.5056050000000  0.3943560000000 1.0
C      1  0.5395480000000  0.4943780000000  0.6033670000000 1.0
C      1  0.5491660000000  0.4416650000000  0.5673240000000 1.0
C      1  0.4506640000000  0.5522610000000  0.4372980000000 1.0
C      1  0.4485950000000  0.5303280000000  0.4996560000000 1.0
C      1  0.5475330000000  0.4715480000000  0.4994410000000 1.0
C      1  0.4267550000000  0.5838320000000  0.5334280000000 1.0
C      1  0.5719440000000  0.4159730000000  0.4640080000000 1.0
C      1  0.5506120000000  0.4846210000000  0.4490720000000 1.0
C      1  0.4511700000000  0.5150640000000  0.5498860000000 1.0
C      1  0.4315020000000  0.5488960000000  0.5157600000000 1.0
C      1  0.5641240000000  0.4477030000000  0.4861130000000 1.0
C      1  0.5335500000000  0.4903030000000  0.5365730000000 1.0
C      1  0.4560730000000  0.5187600000000  0.4603590000000 1.0
C      1  0.5423770000000  0.4456600000000  0.4513370000000 1.0
C      1  0.4601460000000  0.5537000000000  0.5459980000000 1.0
C      1  0.4871710000000  0.4577940000000  0.4760650000000 1.0
C      1  0.5124370000000  0.5440700000000  0.5259710000000 1.0
C      1  0.5963230000000  0.5247670000000  0.5502570000000 1.0
C      1  0.3984650000000  0.4749500000000  0.4537770000000 1.0
C      1  0.4937790000000  0.4527480000000  0.5092950000000 1.0
C      1  0.5078240000000  0.5497270000000  0.4921310000000 1.0
C      1  0.5655360000000  0.5610870000000  0.5640660000000 1.0
C      1  0.4404530000000  0.4444570000000  0.4323260000000 1.0
C      1  0.5140510000000  0.6201740000000  0.5180800000000 1.0
C      1  0.4807380000000  0.3820860000000  0.4785850000000 1.0
C      1  0.5761310000000  0.5632950000000  0.4523450000000 1.0
C      1  0.4269840000000  0.4376810000000  0.5472500000000 1.0
C      1  0.4815370000000  0.4576080000000  0.3985880000000 1.0
C      1  0.5197870000000  0.5464760000000  0.6000300000000 1.0
C      1  0.3909860000000  0.5115210000000  0.4817970000000 1.0
C      1  0.6013110000000  0.4915460000000  0.5255970000000 1.0
C      1  0.5460370000000  0.4409200000000  0.5128460000000 1.0
C      1  0.4600440000000  0.5461540000000  0.4759610000000 1.0
C      1  0.5438340000000  0.5697990000000  0.4589130000000 1.0
C      1  0.4579010000000  0.4308650000000  0.5384660000000 1.0
C      1  0.4861780000000  0.4096170000000  0.4969700000000 1.0
C      1  0.5125900000000  0.5929130000000  0.4991330000000 1.0
C      1  0.5846680000000  0.5650350000000  0.4827360000000 1.0
C      1  0.4155530000000  0.4371760000000  0.5181010000000 1.0
C      1  0.5100170000000  0.4411580000000  0.4083970000000 1.0
C      1  0.4895650000000  0.5554470000000  0.5872790000000 1.0
C      1  0.4854990000000  0.4233880000000  0.4185100000000 1.0
C      1  0.5117600000000  0.5796860000000  0.5799530000000 1.0
C      1  0.4230140000000  0.5872990000000  0.5047110000000 1.0
C      1  0.5749720000000  0.4098080000000  0.4928360000000 1.0
C      1  0.5380090000000  0.4833860000000  0.4093060000000 1.0
C      1  0.4651710000000  0.5137410000000  0.6026180000000 1.0
C      1  0.4654010000000  0.5299350000000  0.5246830000000 1.0
C      1  0.5337210000000  0.4693180000000  0.4722290000000 1.0
C      1  0.4763290000000  0.4676810000000  0.5534670000000 1.0
C      1  0.5292810000000  0.5345220000000  0.4469230000000 1.0
C      1  0.5308060000000  0.5218960000000  0.6132100000000 1.0
C      1  0.4709060000000  0.4805080000000  0.3842070000000 1.0
C      1  0.4916740000000  0.5957910000000  0.4736320000000 1.0
C      1  0.5071890000000  0.4021840000000  0.5226680000000 1.0
C      1  0.5052460000000  0.4818210000000  0.4718740000000 1.0
C      1  0.4941130000000  0.5185190000000  0.5217950000000 1.0
C      1  0.5936130000000  0.5238350000000  0.5167190000000 1.0
C      1  0.4018660000000  0.4793960000000  0.4858930000000 1.0
C      1  0.4021690000000  0.4628060000000  0.5132950000000 1.0
C      1  0.5971420000000  0.5393240000000  0.4898770000000 1.0
C      1  0.4799550000000  0.4826750000000  0.5112450000000 1.0
C      1  0.5239980000000  0.5215050000000  0.4955390000000 1.0
C      1  0.5221360000000  0.4722970000000  0.6096700000000 1.0
C      1  0.4764170000000  0.5281400000000  0.3900470000000 1.0
C      1  0.5455320000000  0.5543150000000  0.4892470000000 1.0
C      1  0.4560520000000  0.4470790000000  0.5085530000000 1.0
C      1  0.5854610000000  0.4467840000000  0.4595210000000 1.0
C      1  0.4123280000000  0.5546560000000  0.5432990000000 1.0
C      1  0.5961840000000  0.4532970000000  0.4910410000000 1.0
C      1  0.3987120000000  0.5499900000000  0.5122570000000 1.0
C      1  0.4564990000000  0.4870410000000  0.4729420000000 1.0
C      1  0.5399700000000  0.5157430000000  0.5229040000000 1.0
C      1  0.5541170000000  0.5064950000000  0.4094980000000 1.0
C      1  0.4421450000000  0.4938550000000  0.5950290000000 1.0
C      1  0.4311840000000  0.5128200000000  0.4123580000000 1.0
C      1  0.5656700000000  0.4875630000000  0.5824330000000 1.0
C      1  0.4682950000000  0.4057760000000  0.4618760000000 1.0
C      1  0.5282380000000  0.5973330000000  0.5352020000000 1.0
C      1  0.4633910000000  0.5402560000000  0.5931640000000 1.0
C      1  0.5396670000000  0.4520140000000  0.4053200000000 1.0
C      1  0.4054870000000  0.5364330000000  0.4630940000000 1.0
C      1  0.5874420000000  0.4611600000000  0.5351300000000 1.0
C      1  0.5110380000000  0.4421770000000  0.4428950000000 1.0
C      1  0.4892460000000  0.5604050000000  0.5535480000000 1.0
C      1  0.5631230000000  0.4849140000000  0.5334700000000 1.0
C      1  0.4250380000000  0.5097070000000  0.4644750000000 1.0
C      1  0.6024470000000  0.4951630000000  0.4668260000000 1.0
C      1  0.4007110000000  0.5060080000000  0.5384370000000 1.0
C      1  0.4301640000000  0.4173290000000  0.5035950000000 1.0
C      1  0.5689620000000  0.5855940000000  0.4954900000000 1.0
C      1  0.5259670000000  0.5704940000000  0.4299470000000 1.0
C      1  0.4746310000000  0.4304510000000  0.5678490000000 1.0
C      1  0.5978120000000  0.4833990000000  0.4940910000000 1.0
C      1  0.4022110000000  0.5179050000000  0.5113800000000 1.0
C      1  0.5166860000000  0.4316730000000  0.5103650000000 1.0
C      1  0.4811380000000  0.5664240000000  0.4874350000000 1.0
C      1  0.4837740000000  0.6180520000000  0.5213800000000 1.0
C      1  0.5113430000000  0.3824580000000  0.4747490000000 1.0
C      1  0.5215200000000  0.4520000000000  0.5669930000000 1.0
C      1  0.4796510000000  0.5442490000000  0.4363120000000 1.0
C      1  0.4484460000000  0.4965620000000  0.4351540000000 1.0
C      1  0.5574000000000  0.5175460000000  0.5763970000000 1.0
C      1  0.5912240000000  0.5351200000000  0.4404620000000 1.0
C      1  0.4130140000000  0.4642050000000  0.5621780000000 1.0
C      1  0.5114560000000  0.5003030000000  0.5755410000000 1.0
C      1  0.4952080000000  0.4900410000000  0.4321800000000 1.0
C      1  0.4090580000000  0.5012910000000  0.4355790000000 1.0
C      1  0.5861490000000  0.4949860000000  0.5561760000000 1.0
C      1  0.4781550000000  0.6013310000000  0.5471670000000 1.0
C      1  0.5181500000000  0.3996110000000  0.4491850000000 1.0
C      1  0.5458460000000  0.5743500000000  0.5172630000000 1.0
C      1  0.4511390000000  0.4282790000000  0.4802960000000 1.0
C      1  0.5780980000000  0.5057100000000  0.4293240000000 1.0
C      1  0.4238540000000  0.4950140000000  0.5709910000000 1.0
C      1  0.4670830000000  0.4749190000000  0.5940100000000 1.0
C      1  0.5414110000000  0.5308020000000  0.4024770000000 1.0
C      1  0.4610360000000  0.4379340000000  0.4106830000000 1.0
C      1  0.5400960000000  0.5646660000000  0.5796080000000 1.0
C      1  0.5854820000000  0.4329160000000  0.5160970000000 1.0
C      1  0.4121010000000  0.5626980000000  0.4836800000000 1.0
C      1  0.4339210000000  0.4459940000000  0.4633470000000 1.0
C      1  0.5606500000000  0.5573110000000  0.5365290000000 1.0
C      1  0.4999210000000  0.5012900000000  0.4944200000000 1.0
END
