TITL C-2782230-7391-780 0.0102149789603504 125000 -577.317758040125 0 0 103 (C1) n - 1
REM
REM in /home/nfs/bkarasulu/CARBON/AIRSS/Generating-Clusters/REBO/Higher-Symm/SD-CG/HFTN-CG
REM
REM
REM
REM
REM
REM ./C.cell (12c818d87b63d06a65506943cc24bca4)
REM
REM compiler GCC version 9.2.1 20190827 (Red Hat 9.2.1-1)
REM options -cpp -mtune=generic -march=x86-64 -g -O0 -fpre-include=/usr/include/finclude/math-vector-fortran.h
REM seed -932680679 -710592150 262064561 1329706711 375832903 33894892 -1584010844 2048970863 1510358086 842138763 -1140054946 469894776 757968410 -1148609154 302314298 799040593 1183892507 119399996 -1403900804 1432518211 790374464 1530862594 1797753985 889692988 -171034665 1075414854 1667466572 922873078 1834993869 -1402136912 1253300297 1665917399 220357842
REM
CELL 1.54180   50.00000   50.00000   50.00000   90.00000   90.00000   90.00000
LATT -1
SFAC C  
C      1  0.5677010000000  0.4585430000000  0.5478490000000 1.0
C      1  0.4367510000000  0.4365390000000  0.4498220000000 1.0
C      1  0.5488850000000  0.4468610000000  0.4430430000000 1.0
C      1  0.4486860000000  0.4534730000000  0.5559040000000 1.0
C      1  0.5489800000000  0.5149490000000  0.5644130000000 1.0
C      1  0.4530590000000  0.5217000000000  0.4329360000000 1.0
C      1  0.5447810000000  0.5186580000000  0.4361790000000 1.0
C      1  0.4531630000000  0.5206610000000  0.5663610000000 1.0
C      1  0.5672560000000  0.5037050000000  0.4497550000000 1.0
C      1  0.4297450000000  0.5073940000000  0.5520740000000 1.0
C      1  0.5687150000000  0.5285130000000  0.5244550000000 1.0
C      1  0.4329230000000  0.5001530000000  0.4436770000000 1.0
C      1  0.4859440000000  0.5632410000000  0.4208480000000 1.0
C      1  0.5161520000000  0.5580330000000  0.5818750000000 1.0
C      1  0.4851480000000  0.5603460000000  0.5816600000000 1.0
C      1  0.5172540000000  0.5627380000000  0.4214600000000 1.0
C      1  0.5587760000000  0.5807060000000  0.5229930000000 1.0
C      1  0.4407640000000  0.5841940000000  0.4820110000000 1.0
C      1  0.5598830000000  0.5785160000000  0.4890500000000 1.0
C      1  0.4383480000000  0.5847210000000  0.5160240000000 1.0
C      1  0.5122450000000  0.5770800000000  0.5461520000000 1.0
C      1  0.4874600000000  0.5795810000000  0.4581260000000 1.0
C      1  0.5150670000000  0.5780210000000  0.4601100000000 1.0
C      1  0.4853450000000  0.5793120000000  0.5459380000000 1.0
C      1  0.4753050000000  0.4964710000000  0.5750110000000 1.0
C      1  0.5228940000000  0.4951580000000  0.4274420000000 1.0
C      1  0.4682390000000  0.4914770000000  0.4264070000000 1.0
C      1  0.5291530000000  0.4899500000000  0.5761320000000 1.0
C      1  0.4737900000000  0.5521230000000  0.4731830000000 1.0
C      1  0.5250060000000  0.5505040000000  0.5318410000000 1.0
C      1  0.4660210000000  0.5567700000000  0.5291240000000 1.0
C      1  0.5242250000000  0.5481390000000  0.4732280000000 1.0
C      1  0.4274930000000  0.4456010000000  0.5304740000000 1.0
C      1  0.5716850000000  0.4428320000000  0.4685220000000 1.0
C      1  0.4213730000000  0.4457600000000  0.4762370000000 1.0
C      1  0.5788750000000  0.4500380000000  0.5207410000000 1.0
C      1  0.4646940000000  0.4047190000000  0.4793970000000 1.0
C      1  0.5454960000000  0.4123580000000  0.5212690000000 1.0
C      1  0.4573570000000  0.4145470000000  0.5036000000000 1.0
C      1  0.5400410000000  0.4098280000000  0.4948580000000 1.0
C      1  0.5185440000000  0.5170630000000  0.5492060000000 1.0
C      1  0.4805220000000  0.5189970000000  0.4521610000000 1.0
C      1  0.5200380000000  0.5204870000000  0.4579650000000 1.0
C      1  0.4778550000000  0.5219120000000  0.5445030000000 1.0
C      1  0.5621290000000  0.4859910000000  0.5519920000000 1.0
C      1  0.4308270000000  0.4692360000000  0.4550020000000 1.0
C      1  0.5692190000000  0.4712880000000  0.4522660000000 1.0
C      1  0.4278470000000  0.4757470000000  0.5430550000000 1.0
C      1  0.5412480000000  0.4281500000000  0.4707340000000 1.0
C      1  0.4593750000000  0.4314760000000  0.5321100000000 1.0
C      1  0.5484030000000  0.4328540000000  0.5398750000000 1.0
C      1  0.4621170000000  0.4223290000000  0.4572090000000 1.0
C      1  0.4730140000000  0.4647020000000  0.4346260000000 1.0
C      1  0.5245970000000  0.4641270000000  0.5657810000000 1.0
C      1  0.4748280000000  0.4677710000000  0.5637590000000 1.0
C      1  0.5230410000000  0.4649820000000  0.4371450000000 1.0
C      1  0.5209340000000  0.4954670000000  0.4756720000000 1.0
C      1  0.4726180000000  0.5059750000000  0.5234000000000 1.0
C      1  0.5235620000000  0.5014140000000  0.5239200000000 1.0
C      1  0.4749120000000  0.4989170000000  0.4740530000000 1.0
C      1  0.4602690000000  0.5529700000000  0.5624990000000 1.0
C      1  0.5393410000000  0.5517200000000  0.4424780000000 1.0
C      1  0.4623990000000  0.5529040000000  0.4413540000000 1.0
C      1  0.5406900000000  0.5478570000000  0.5616270000000 1.0
C      1  0.4454420000000  0.4926720000000  0.4735610000000 1.0
C      1  0.5545380000000  0.5005940000000  0.5246350000000 1.0
C      1  0.4431620000000  0.4972500000000  0.5227830000000 1.0
C      1  0.5514440000000  0.4883000000000  0.4756000000000 1.0
C      1  0.4511610000000  0.5817800000000  0.5457290000000 1.0
C      1  0.5487230000000  0.5775070000000  0.4630850000000 1.0
C      1  0.4543130000000  0.5824420000000  0.4568260000000 1.0
C      1  0.5456220000000  0.5794690000000  0.5484300000000 1.0
C      1  0.5214730000000  0.4558870000000  0.4703240000000 1.0
C      1  0.4789150000000  0.4595320000000  0.5306880000000 1.0
C      1  0.5297420000000  0.4593060000000  0.5353650000000 1.0
C      1  0.4698070000000  0.4534400000000  0.4645100000000 1.0
C      1  0.4662020000000  0.5414510000000  0.5034880000000 1.0
C      1  0.5277970000000  0.5444840000000  0.5024480000000 1.0
C      1  0.5023190000000  0.5055340000000  0.5771470000000 1.0
C      1  0.4963100000000  0.5054300000000  0.4249790000000 1.0
C      1  0.5667190000000  0.4869030000000  0.5009960000000 1.0
C      1  0.4296510000000  0.5013660000000  0.4969860000000 1.0
C      1  0.4951670000000  0.4732670000000  0.4712520000000 1.0
C      1  0.5044710000000  0.4732900000000  0.5206910000000 1.0
C      1  0.4966090000000  0.4539690000000  0.4241670000000 1.0
C      1  0.5006810000000  0.4528890000000  0.5740600000000 1.0
C      1  0.5630130000000  0.4461490000000  0.4989250000000 1.0
C      1  0.4375290000000  0.4420630000000  0.5008190000000 1.0
C      1  0.5575220000000  0.5515190000000  0.5086240000000 1.0
C      1  0.4390960000000  0.5574850000000  0.4996030000000 1.0
C      1  0.5316950000000  0.4506310000000  0.5023940000000 1.0
C      1  0.4700890000000  0.4519490000000  0.4985500000000 1.0
C      1  0.4055560000000  0.5118870000000  0.4948760000000 1.0
C      1  0.5926490000000  0.4813830000000  0.5001770000000 1.0
C      1  0.5006000000000  0.5412630000000  0.4419920000000 1.0
C      1  0.4990420000000  0.5404600000000  0.5580050000000 1.0
C      1  0.4955950000000  0.5668150000000  0.4950080000000 1.0
C      1  0.5001220000000  0.4101120000000  0.4971460000000 1.0
C      1  0.4971650000000  0.5006350000000  0.5002190000000 1.0
C      1  0.5006960000000  0.4371120000000  0.4988600000000 1.0
C      1  0.4975410000000  0.5329760000000  0.4987530000000 1.0
C      1  0.4995660000000  0.3839630000000  0.4954860000000 1.0
C      1  0.5047710000000  0.5893260000000  0.5033910000000 1.0
END
