TITL C-2782225-7408-1182 -0.00123474361752857 125000 -447.118677397035 0 0 78 (C1) n - 1
REM
REM in /home/nfs/bkarasulu/CARBON/AIRSS/Generating-Clusters/REBO/Higher-Symm/SD-CG/HFTN-CG
REM
REM
REM
REM
REM
REM ./C.cell (12c818d87b63d06a65506943cc24bca4)
REM
REM compiler GCC version 9.2.1 20190827 (Red Hat 9.2.1-1)
REM options -cpp -mtune=generic -march=x86-64 -g -O0 -fpre-include=/usr/include/finclude/math-vector-fortran.h
REM seed 1023294665 1613738564 1587890956 -1365013281 881838639 1357577717 294815527 -408219677 -1072479970 -510184967 -1486965985 -285941982 848328006 1059758684 -1345976333 -1559125791 -1058394378 -725433183 -1902010899 1604712451 -1847345556 -621679266 728617305 -1348787395 -616330703 -581255333 1205058582 -983045359 -741504683 -1547470570 1479739650 950271792 -1078431021
REM
CELL 1.54180   50.00000   50.00000   50.00000   90.00000   90.00000   90.00000
LATT -1
SFAC C  
C      1  0.5348260000000  0.4696650000000  0.5190970000000 1.0
C      1  0.5291730000000  0.4716680000000  0.4882820000000 1.0
C      1  0.4600970000000  0.5567600000000  0.4730340000000 1.0
C      1  0.4606970000000  0.5601200000000  0.5270580000000 1.0
C      1  0.5165250000000  0.5336210000000  0.5367680000000 1.0
C      1  0.5128310000000  0.5311650000000  0.4617880000000 1.0
C      1  0.4658490000000  0.4818750000000  0.4563880000000 1.0
C      1  0.4683770000000  0.4836680000000  0.5412240000000 1.0
C      1  0.5112980000000  0.4519440000000  0.5611210000000 1.0
C      1  0.5119890000000  0.4526250000000  0.4410410000000 1.0
C      1  0.5011440000000  0.5077580000000  0.5411710000000 1.0
C      1  0.4989550000000  0.5041490000000  0.4584040000000 1.0
C      1  0.5272730000000  0.4441620000000  0.4698980000000 1.0
C      1  0.5304900000000  0.4419130000000  0.5354300000000 1.0
C      1  0.5553090000000  0.4585410000000  0.4611990000000 1.0
C      1  0.5590950000000  0.4554400000000  0.5471010000000 1.0
C      1  0.4872280000000  0.5758510000000  0.5133790000000 1.0
C      1  0.4824080000000  0.5781880000000  0.4830090000000 1.0
C      1  0.5414660000000  0.5345930000000  0.4475700000000 1.0
C      1  0.5439480000000  0.5334730000000  0.5536310000000 1.0
C      1  0.5159510000000  0.5719410000000  0.4858630000000 1.0
C      1  0.5205370000000  0.5701300000000  0.5192420000000 1.0
C      1  0.4777630000000  0.4331900000000  0.4789550000000 1.0
C      1  0.4818340000000  0.4362500000000  0.5183620000000 1.0
C      1  0.4901760000000  0.4747960000000  0.5731940000000 1.0
C      1  0.4906290000000  0.4745350000000  0.4261330000000 1.0
C      1  0.5303230000000  0.5311880000000  0.5096990000000 1.0
C      1  0.5321450000000  0.5280600000000  0.4858970000000 1.0
C      1  0.4819490000000  0.4673950000000  0.5144840000000 1.0
C      1  0.4768470000000  0.4634500000000  0.4829680000000 1.0
C      1  0.4287110000000  0.5207960000000  0.4657330000000 1.0
C      1  0.4302020000000  0.5208340000000  0.5337760000000 1.0
C      1  0.4947240000000  0.4284370000000  0.5467630000000 1.0
C      1  0.4951570000000  0.4278670000000  0.4528220000000 1.0
C      1  0.4735230000000  0.5316370000000  0.5168250000000 1.0
C      1  0.4707800000000  0.5281640000000  0.4865720000000 1.0
C      1  0.4733080000000  0.5173600000000  0.4399390000000 1.0
C      1  0.4744170000000  0.5185980000000  0.5594480000000 1.0
C      1  0.4978650000000  0.5577180000000  0.4606740000000 1.0
C      1  0.4979880000000  0.5588930000000  0.5408310000000 1.0
C      1  0.4335580000000  0.5420300000000  0.4857680000000 1.0
C      1  0.4351250000000  0.5421930000000  0.5147460000000 1.0
C      1  0.4472740000000  0.4520360000000  0.5295560000000 1.0
C      1  0.4445130000000  0.4491340000000  0.4643640000000 1.0
C      1  0.5649700000000  0.4816170000000  0.5260540000000 1.0
C      1  0.5559620000000  0.4874990000000  0.4787570000000 1.0
C      1  0.5083580000000  0.4231130000000  0.4847470000000 1.0
C      1  0.5118180000000  0.4224020000000  0.5172520000000 1.0
C      1  0.5071790000000  0.4869710000000  0.5178510000000 1.0
C      1  0.5001340000000  0.4863860000000  0.4843780000000 1.0
C      1  0.5190300000000  0.4845150000000  0.5571430000000 1.0
C      1  0.5199050000000  0.4846640000000  0.4408970000000 1.0
C      1  0.4518090000000  0.4265390000000  0.5119110000000 1.0
C      1  0.4473500000000  0.4232330000000  0.4823040000000 1.0
C      1  0.4625040000000  0.5022130000000  0.5154670000000 1.0
C      1  0.4578580000000  0.4984410000000  0.4838660000000 1.0
C      1  0.4721870000000  0.4534040000000  0.5531290000000 1.0
C      1  0.4721840000000  0.4518870000000  0.4441860000000 1.0
C      1  0.5484380000000  0.4869760000000  0.5549810000000 1.0
C      1  0.5492840000000  0.4885380000000  0.4460390000000 1.0
C      1  0.4959980000000  0.5074420000000  0.4188840000000 1.0
C      1  0.4965920000000  0.5074120000000  0.5806530000000 1.0
C      1  0.4723140000000  0.5473680000000  0.4439070000000 1.0
C      1  0.4727930000000  0.5488090000000  0.5564000000000 1.0
C      1  0.4375820000000  0.4710220000000  0.4820410000000 1.0
C      1  0.4427090000000  0.4747290000000  0.5120960000000 1.0
C      1  0.5790870000000  0.5278410000000  0.5160090000000 1.0
C      1  0.5772600000000  0.5319780000000  0.4842220000000 1.0
C      1  0.5221040000000  0.5197260000000  0.5758380000000 1.0
C      1  0.5209760000000  0.5208760000000  0.4240380000000 1.0
C      1  0.5415300000000  0.5621920000000  0.4675760000000 1.0
C      1  0.5462970000000  0.5599240000000  0.5322700000000 1.0
C      1  0.5650100000000  0.5123710000000  0.5390240000000 1.0
C      1  0.5627460000000  0.5153180000000  0.4625470000000 1.0
C      1  0.5678010000000  0.5564260000000  0.5140840000000 1.0
C      1  0.5657190000000  0.5612130000000  0.4833430000000 1.0
C      1  0.4441930000000  0.5065490000000  0.4475060000000 1.0
C      1  0.4460430000000  0.5065940000000  0.5513940000000 1.0
END
