TITL C-2782230-7391-493 0.000343725848185008 125000 -659.842991544208 0 0 118 (C1) n - 1
REM
REM in /home/nfs/bkarasulu/CARBON/AIRSS/Generating-Clusters/REBO/Higher-Symm/SD-CG/HFTN-CG
REM
REM
REM
REM
REM
REM ./C.cell (12c818d87b63d06a65506943cc24bca4)
REM
REM compiler GCC version 9.2.1 20190827 (Red Hat 9.2.1-1)
REM options -cpp -mtune=generic -march=x86-64 -g -O0 -fpre-include=/usr/include/finclude/math-vector-fortran.h
REM seed 1225142087 -1955965547 1844213635 1300710205 650401886 1646005872 561134287 -318646232 -1800816054 810926581 554849062 -1551758916 -929041402 1637452735 1464867372 1394176369 -124908811 1961230619 2015098906 -828300593 -1385637679 -445903485 -198935255 -783900349 2083838325 -747175032 437078869 1182252755 -862491317 -310180125 -1364183738 -1819260552 321159866
REM
CELL 1.54180   50.00000   50.00000   50.00000   90.00000   90.00000   90.00000
LATT -1
SFAC C  
C      1  0.5267010000000  0.4104110000000  0.5200840000000 1.0
C      1  0.4114720000000  0.5209700000000  0.5253770000000 1.0
C      1  0.5194370000000  0.5270580000000  0.4112440000000 1.0
C      1  0.4742120000000  0.5876430000000  0.5215330000000 1.0
C      1  0.5266490000000  0.5863900000000  0.4782230000000 1.0
C      1  0.4723060000000  0.4104280000000  0.4785750000000 1.0
C      1  0.5854650000000  0.4789200000000  0.5246830000000 1.0
C      1  0.4156430000000  0.4832380000000  0.4678270000000 1.0
C      1  0.5866010000000  0.5187990000000  0.4688260000000 1.0
C      1  0.4786840000000  0.4717680000000  0.4106100000000 1.0
C      1  0.5191730000000  0.4722710000000  0.5863890000000 1.0
C      1  0.4793590000000  0.5280570000000  0.5869220000000 1.0
C      1  0.4465190000000  0.4781440000000  0.4066340000000 1.0
C      1  0.4775290000000  0.4052430000000  0.4468190000000 1.0
C      1  0.4073740000000  0.4512260000000  0.4728830000000 1.0
C      1  0.5514210000000  0.5228440000000  0.4054950000000 1.0
C      1  0.4469050000000  0.5233170000000  0.5909620000000 1.0
C      1  0.5515250000000  0.4761320000000  0.5904580000000 1.0
C      1  0.5231120000000  0.5933570000000  0.4467720000000 1.0
C      1  0.4751000000000  0.5933000000000  0.5530570000000 1.0
C      1  0.5220940000000  0.4061040000000  0.5521300000000 1.0
C      1  0.5928490000000  0.5509550000000  0.4739050000000 1.0
C      1  0.4053800000000  0.5529820000000  0.5253310000000 1.0
C      1  0.5926830000000  0.4475380000000  0.5249360000000 1.0
C      1  0.4890840000000  0.5613300000000  0.4402100000000 1.0
C      1  0.5619980000000  0.4418260000000  0.4897660000000 1.0
C      1  0.4370750000000  0.4886010000000  0.5600180000000 1.0
C      1  0.5129010000000  0.4358260000000  0.4368090000000 1.0
C      1  0.4868100000000  0.4366490000000  0.5615180000000 1.0
C      1  0.5104080000000  0.5623750000000  0.5578370000000 1.0
C      1  0.4349110000000  0.5608110000000  0.4893570000000 1.0
C      1  0.5623320000000  0.5624010000000  0.5084500000000 1.0
C      1  0.4359370000000  0.4382510000000  0.5084010000000 1.0
C      1  0.5622630000000  0.5111030000000  0.5595710000000 1.0
C      1  0.4371370000000  0.5111150000000  0.4396540000000 1.0
C      1  0.5624690000000  0.4892540000000  0.4374650000000 1.0
C      1  0.4419570000000  0.4808160000000  0.5327000000000 1.0
C      1  0.4814360000000  0.5336320000000  0.4431190000000 1.0
C      1  0.5351800000000  0.4425980000000  0.4803390000000 1.0
C      1  0.5596170000000  0.5184250000000  0.5324210000000 1.0
C      1  0.4399090000000  0.5171680000000  0.4672300000000 1.0
C      1  0.5586430000000  0.4843330000000  0.4653080000000 1.0
C      1  0.5196930000000  0.4631510000000  0.4395960000000 1.0
C      1  0.4793620000000  0.4636830000000  0.5588920000000 1.0
C      1  0.5194040000000  0.5354580000000  0.5555340000000 1.0
C      1  0.4620660000000  0.5583370000000  0.4814320000000 1.0
C      1  0.5348340000000  0.5599400000000  0.5152960000000 1.0
C      1  0.4627650000000  0.4393520000000  0.5172680000000 1.0
C      1  0.4632760000000  0.5464260000000  0.5628490000000 1.0
C      1  0.5465830000000  0.5645030000000  0.4611870000000 1.0
C      1  0.5614740000000  0.4634920000000  0.5439600000000 1.0
C      1  0.5345670000000  0.4528540000000  0.5627380000000 1.0
C      1  0.4654830000000  0.4509240000000  0.4341450000000 1.0
C      1  0.5360900000000  0.5473490000000  0.4331360000000 1.0
C      1  0.4538310000000  0.4337680000000  0.4618050000000 1.0
C      1  0.5455420000000  0.4341070000000  0.5359310000000 1.0
C      1  0.4529890000000  0.5649070000000  0.5356730000000 1.0
C      1  0.4362340000000  0.5360470000000  0.5440860000000 1.0
C      1  0.5636790000000  0.5367510000000  0.4507010000000 1.0
C      1  0.4391740000000  0.4632780000000  0.4522380000000 1.0
C      1  0.5777700000000  0.4640190000000  0.4774950000000 1.0
C      1  0.4557690000000  0.4727770000000  0.5775090000000 1.0
C      1  0.4736610000000  0.5777860000000  0.4601240000000 1.0
C      1  0.4196610000000  0.5377780000000  0.4777150000000 1.0
C      1  0.5784550000000  0.5414680000000  0.5228460000000 1.0
C      1  0.4204880000000  0.4594150000000  0.5228890000000 1.0
C      1  0.5428750000000  0.5277250000000  0.5754890000000 1.0
C      1  0.4572860000000  0.5265350000000  0.4238980000000 1.0
C      1  0.5431340000000  0.4729460000000  0.4213120000000 1.0
C      1  0.5283910000000  0.4211720000000  0.4580500000000 1.0
C      1  0.4712410000000  0.4206570000000  0.5412070000000 1.0
C      1  0.5231320000000  0.5789690000000  0.5361350000000 1.0
C      1  0.4732550000000  0.4979050000000  0.4288610000000 1.0
C      1  0.4998210000000  0.4269330000000  0.4734450000000 1.0
C      1  0.4299700000000  0.4756380000000  0.4956460000000 1.0
C      1  0.5251830000000  0.5004070000000  0.4286130000000 1.0
C      1  0.4733520000000  0.5002820000000  0.5717530000000 1.0
C      1  0.5257810000000  0.5001570000000  0.5715340000000 1.0
C      1  0.5001380000000  0.5673930000000  0.4781190000000 1.0
C      1  0.4958300000000  0.5625870000000  0.5206560000000 1.0
C      1  0.4994240000000  0.4274640000000  0.5248060000000 1.0
C      1  0.5681950000000  0.5253760000000  0.4947300000000 1.0
C      1  0.4370550000000  0.5245070000000  0.5058010000000 1.0
C      1  0.5598810000000  0.4790070000000  0.5042790000000 1.0
C      1  0.5655490000000  0.5156340000000  0.4278590000000 1.0
C      1  0.5138790000000  0.4290340000000  0.5646480000000 1.0
C      1  0.4278990000000  0.5663860000000  0.5164010000000 1.0
C      1  0.4338060000000  0.4847970000000  0.4301890000000 1.0
C      1  0.5642810000000  0.4840580000000  0.5675480000000 1.0
C      1  0.4342800000000  0.5155500000000  0.5678610000000 1.0
C      1  0.4841260000000  0.5701130000000  0.5651300000000 1.0
C      1  0.5148860000000  0.5705660000000  0.4336440000000 1.0
C      1  0.4860370000000  0.4275750000000  0.4335560000000 1.0
C      1  0.5700180000000  0.4343570000000  0.5158750000000 1.0
C      1  0.4287700000000  0.4359220000000  0.4811610000000 1.0
C      1  0.5706040000000  0.5652570000000  0.4814850000000 1.0
C      1  0.4917050000000  0.4573010000000  0.5134170000000 1.0
C      1  0.4640260000000  0.5197540000000  0.4916550000000 1.0
C      1  0.5197710000000  0.4912300000000  0.4594980000000 1.0
C      1  0.5103820000000  0.5352880000000  0.5159030000000 1.0
C      1  0.4897590000000  0.5370740000000  0.4819760000000 1.0
C      1  0.5046740000000  0.4581470000000  0.4832520000000 1.0
C      1  0.5333310000000  0.4851410000000  0.4894800000000 1.0
C      1  0.4610750000000  0.4821740000000  0.5043550000000 1.0
C      1  0.5381070000000  0.5212750000000  0.5056790000000 1.0
C      1  0.4821870000000  0.5038740000000  0.4601120000000 1.0
C      1  0.5152600000000  0.5045570000000  0.5409590000000 1.0
C      1  0.4839460000000  0.4929630000000  0.5416050000000 1.0
C      1  0.4995220000000  0.4074060000000  0.4993150000000 1.0
C      1  0.4126710000000  0.5033840000000  0.4957200000000 1.0
C      1  0.4991450000000  0.4993600000000  0.4093970000000 1.0
C      1  0.5022870000000  0.5899700000000  0.5020370000000 1.0
C      1  0.5867730000000  0.4978860000000  0.4960570000000 1.0
C      1  0.4996180000000  0.5003760000000  0.5905310000000 1.0
C      1  0.5150070000000  0.5175280000000  0.4807590000000 1.0
C      1  0.4878710000000  0.5117930000000  0.5131710000000 1.0
C      1  0.4821380000000  0.4837670000000  0.4828250000000 1.0
C      1  0.5100710000000  0.4859150000000  0.5124760000000 1.0
END
