TITL C-2782235-7892-94 0.00151779976719995 125000 -852.572717192672 0 0 147 (C1) n - 1
REM
REM in /home/nfs/bkarasulu/CARBON/AIRSS/Generating-Clusters/REBO/Higher-Symm/SD-CG/HFTN-CG
REM
REM
REM
REM
REM
REM ./C.cell (12c818d87b63d06a65506943cc24bca4)
REM
REM compiler GCC version 9.2.1 20190827 (Red Hat 9.2.1-1)
REM options -cpp -mtune=generic -march=x86-64 -g -O0 -fpre-include=/usr/include/finclude/math-vector-fortran.h
REM seed 29164046 573782832 -103443378 -1849264588 -1808441462 -1620117972 -837875883 -198985265 1668686327 -1543886061 -1829573278 -1582103368 -700670941 1680061353 -995341865 1728425941 -436565578 -320772393 663742632 -392337064 939573127 -710540830 -1905818396 958090999 484172182 804663803 -980666990 -2060808510 -1458836426 801575580 -789310038 1544707608 -218730543
REM
CELL 1.54180   50.00000   50.00000   50.00000   90.00000   90.00000   90.00000
LATT -1
SFAC C  
C      1  0.4346700000000  0.5220720000000  0.4793240000000 1.0
C      1  0.5711020000000  0.5264420000000  0.4800170000000 1.0
C      1  0.5283000000000  0.4819400000000  0.5917550000000 1.0
C      1  0.4739250000000  0.4825850000000  0.5978340000000 1.0
C      1  0.4741040000000  0.4966340000000  0.5114220000000 1.0
C      1  0.5220380000000  0.4873680000000  0.5038760000000 1.0
C      1  0.5642710000000  0.4854090000000  0.4326840000000 1.0
C      1  0.4379130000000  0.4840630000000  0.4297720000000 1.0
C      1  0.4284480000000  0.4695680000000  0.5219070000000 1.0
C      1  0.5723710000000  0.4699190000000  0.5194760000000 1.0
C      1  0.4372100000000  0.5305250000000  0.5309510000000 1.0
C      1  0.5588650000000  0.5268180000000  0.5227300000000 1.0
C      1  0.5167680000000  0.4714330000000  0.4127850000000 1.0
C      1  0.4855380000000  0.4699030000000  0.4119840000000 1.0
C      1  0.5124100000000  0.5516650000000  0.4252890000000 1.0
C      1  0.4810140000000  0.5507480000000  0.4203880000000 1.0
C      1  0.4660520000000  0.5121360000000  0.6010560000000 1.0
C      1  0.5397330000000  0.5099880000000  0.5926320000000 1.0
C      1  0.5233440000000  0.4455700000000  0.4662770000000 1.0
C      1  0.4845040000000  0.4461810000000  0.4748460000000 1.0
C      1  0.5892460000000  0.4789870000000  0.4839290000000 1.0
C      1  0.4137100000000  0.4789520000000  0.4815570000000 1.0
C      1  0.4203750000000  0.4495920000000  0.4974420000000 1.0
C      1  0.5815140000000  0.4487800000000  0.4960290000000 1.0
C      1  0.4890610000000  0.5303620000000  0.5974430000000 1.0
C      1  0.5198790000000  0.5301150000000  0.5971010000000 1.0
C      1  0.5599540000000  0.5707290000000  0.4828480000000 1.0
C      1  0.4422250000000  0.5688610000000  0.4819390000000 1.0
C      1  0.4528080000000  0.4467930000000  0.5669950000000 1.0
C      1  0.5462440000000  0.4446330000000  0.5637040000000 1.0
C      1  0.4854290000000  0.5713130000000  0.4472440000000 1.0
C      1  0.5192030000000  0.5759340000000  0.4464160000000 1.0
C      1  0.5130080000000  0.4026820000000  0.5014940000000 1.0
C      1  0.4824360000000  0.3938630000000  0.5031970000000 1.0
C      1  0.5170850000000  0.4625210000000  0.5435240000000 1.0
C      1  0.4851760000000  0.4606850000000  0.5486710000000 1.0
C      1  0.4840950000000  0.4940020000000  0.5704430000000 1.0
C      1  0.5131000000000  0.4942470000000  0.5674290000000 1.0
C      1  0.5901610000000  0.5169700000000  0.5319200000000 1.0
C      1  0.4064260000000  0.5184470000000  0.5303490000000 1.0
C      1  0.5982200000000  0.5217040000000  0.4932980000000 1.0
C      1  0.4090390000000  0.5175030000000  0.4907620000000 1.0
C      1  0.4833760000000  0.5591130000000  0.5206910000000 1.0
C      1  0.5142710000000  0.5504420000000  0.5177750000000 1.0
C      1  0.5440720000000  0.4575930000000  0.5316960000000 1.0
C      1  0.4565660000000  0.4583910000000  0.5352100000000 1.0
C      1  0.5275650000000  0.5762950000000  0.4795070000000 1.0
C      1  0.4749950000000  0.5751550000000  0.4797110000000 1.0
C      1  0.5146980000000  0.5943970000000  0.4988260000000 1.0
C      1  0.4868530000000  0.5948680000000  0.4978540000000 1.0
C      1  0.4377030000000  0.4470330000000  0.4674440000000 1.0
C      1  0.5631730000000  0.4465020000000  0.4670490000000 1.0
C      1  0.4715320000000  0.4077670000000  0.4575270000000 1.0
C      1  0.5313330000000  0.4047620000000  0.4547030000000 1.0
C      1  0.4631080000000  0.5400400000000  0.4583520000000 1.0
C      1  0.5414230000000  0.5436470000000  0.4543550000000 1.0
C      1  0.4444570000000  0.5190520000000  0.5832180000000 1.0
C      1  0.5553340000000  0.5140930000000  0.5690940000000 1.0
C      1  0.4879190000000  0.5008930000000  0.4381210000000 1.0
C      1  0.5148040000000  0.4919470000000  0.4470660000000 1.0
C      1  0.5166690000000  0.4276710000000  0.4396880000000 1.0
C      1  0.4874800000000  0.4323530000000  0.4467330000000 1.0
C      1  0.4513860000000  0.5533090000000  0.5101350000000 1.0
C      1  0.5453720000000  0.5500040000000  0.5037720000000 1.0
C      1  0.5756540000000  0.5495770000000  0.4511030000000 1.0
C      1  0.4299770000000  0.5463260000000  0.4503650000000 1.0
C      1  0.4144150000000  0.5623390000000  0.4982230000000 1.0
C      1  0.5829150000000  0.5636070000000  0.5047720000000 1.0
C      1  0.5538620000000  0.4145270000000  0.4684720000000 1.0
C      1  0.4467680000000  0.4155230000000  0.4688840000000 1.0
C      1  0.4723600000000  0.4493300000000  0.4279570000000 1.0
C      1  0.5315760000000  0.4496380000000  0.4253680000000 1.0
C      1  0.5416890000000  0.4166270000000  0.5516360000000 1.0
C      1  0.4572360000000  0.4198320000000  0.5513120000000 1.0
C      1  0.5211090000000  0.5770440000000  0.5679000000000 1.0
C      1  0.4867810000000  0.5772440000000  0.5673080000000 1.0
C      1  0.4855150000000  0.5446750000000  0.4801990000000 1.0
C      1  0.5158690000000  0.5466840000000  0.4730320000000 1.0
C      1  0.4416540000000  0.4233670000000  0.4993960000000 1.0
C      1  0.5597690000000  0.4227750000000  0.4989980000000 1.0
C      1  0.4867330000000  0.4754710000000  0.4871290000000 1.0
C      1  0.5172270000000  0.4747020000000  0.4724860000000 1.0
C      1  0.5458390000000  0.5054680000000  0.4772900000000 1.0
C      1  0.4598910000000  0.5024750000000  0.4746280000000 1.0
C      1  0.5588170000000  0.5394010000000  0.5543520000000 1.0
C      1  0.4407480000000  0.5422880000000  0.5622880000000 1.0
C      1  0.4537200000000  0.5717230000000  0.5734840000000 1.0
C      1  0.5521200000000  0.5703010000000  0.5652290000000 1.0
C      1  0.5125640000000  0.5467680000000  0.5696950000000 1.0
C      1  0.4799560000000  0.5442950000000  0.5691020000000 1.0
C      1  0.5212610000000  0.4288020000000  0.4905540000000 1.0
C      1  0.4813940000000  0.4267510000000  0.4969320000000 1.0
C      1  0.4496020000000  0.5121660000000  0.4439700000000 1.0
C      1  0.5555900000000  0.5138360000000  0.4457230000000 1.0
C      1  0.5407080000000  0.5602140000000  0.5350360000000 1.0
C      1  0.4580100000000  0.5629620000000  0.5413660000000 1.0
C      1  0.4474200000000  0.4753730000000  0.4841690000000 1.0
C      1  0.5553560000000  0.4761580000000  0.4837650000000 1.0
C      1  0.5421450000000  0.4519170000000  0.5009400000000 1.0
C      1  0.4594450000000  0.4514160000000  0.5050870000000 1.0
C      1  0.5121660000000  0.5167100000000  0.5180330000000 1.0
C      1  0.4825130000000  0.5284650000000  0.5080430000000 1.0
C      1  0.5560660000000  0.4568750000000  0.4383500000000 1.0
C      1  0.4464090000000  0.4561630000000  0.4382650000000 1.0
C      1  0.5934700000000  0.4839210000000  0.5397010000000 1.0
C      1  0.4080870000000  0.4864130000000  0.5411110000000 1.0
C      1  0.5708980000000  0.4671300000000  0.5592640000000 1.0
C      1  0.4300990000000  0.4710180000000  0.5621360000000 1.0
C      1  0.5052270000000  0.5204630000000  0.5494220000000 1.0
C      1  0.4711610000000  0.5178690000000  0.5535710000000 1.0
C      1  0.4837070000000  0.6021910000000  0.5461300000000 1.0
C      1  0.5132540000000  0.5997680000000  0.5477570000000 1.0
C      1  0.4857590000000  0.4102840000000  0.5394400000000 1.0
C      1  0.5122500000000  0.4102020000000  0.5404710000000 1.0
C      1  0.4464810000000  0.4984540000000  0.5237370000000 1.0
C      1  0.5492770000000  0.4949560000000  0.5185230000000 1.0
C      1  0.5399750000000  0.4085080000000  0.5194570000000 1.0
C      1  0.4570260000000  0.4061180000000  0.5207240000000 1.0
C      1  0.4046030000000  0.5480860000000  0.5159750000000 1.0
C      1  0.5922610000000  0.5486540000000  0.5221600000000 1.0
C      1  0.4870060000000  0.3890820000000  0.4719780000000 1.0
C      1  0.5136280000000  0.3844310000000  0.4633250000000 1.0
C      1  0.4511450000000  0.5709710000000  0.4487320000000 1.0
C      1  0.5533400000000  0.5751570000000  0.4495000000000 1.0
C      1  0.5162830000000  0.4555640000000  0.5763290000000 1.0
C      1  0.4824550000000  0.4556940000000  0.5812680000000 1.0
C      1  0.5367270000000  0.4948380000000  0.4146940000000 1.0
C      1  0.4635860000000  0.4914020000000  0.4085320000000 1.0
C      1  0.4731830000000  0.6051820000000  0.5203510000000 1.0
C      1  0.5266040000000  0.6028660000000  0.5230030000000 1.0
C      1  0.4117960000000  0.5229950000000  0.4515640000000 1.0
C      1  0.5932220000000  0.5235510000000  0.4542550000000 1.0
C      1  0.4510560000000  0.5473530000000  0.4087610000000 1.0
C      1  0.5407750000000  0.5491480000000  0.4096810000000 1.0
C      1  0.4925680000000  0.5055430000000  0.4772970000000 1.0
C      1  0.5165150000000  0.5170340000000  0.4779410000000 1.0
C      1  0.4423830000000  0.5001460000000  0.5564340000000 1.0
C      1  0.5562930000000  0.4926000000000  0.5510020000000 1.0
C      1  0.4151570000000  0.4936020000000  0.4519960000000 1.0
C      1  0.5890080000000  0.4937610000000  0.4538880000000 1.0
C      1  0.5578210000000  0.5334320000000  0.4193380000000 1.0
C      1  0.4383100000000  0.5267420000000  0.4166510000000 1.0
C      1  0.6015570000000  0.4948460000000  0.5083730000000 1.0
C      1  0.3989020000000  0.4929080000000  0.5088420000000 1.0
C      1  0.5213660000000  0.5190400000000  0.4271910000000 1.0
C      1  0.4773040000000  0.5181920000000  0.4158990000000 1.0
C      1  0.4974960000000  0.4803590000000  0.5249970000000 1.0
END
