TITL C-2782240-8521-1000 0.00442612013105097 125000 -683.515672725322 0 0 121 (C1) n - 1
REM
REM in /home/nfs/bkarasulu/CARBON/AIRSS/Generating-Clusters/REBO/Higher-Symm/SD-CG/HFTN-CG
REM
REM
REM
REM
REM
REM ./C.cell (12c818d87b63d06a65506943cc24bca4)
REM
REM compiler GCC version 9.2.1 20190827 (Red Hat 9.2.1-1)
REM options -cpp -mtune=generic -march=x86-64 -g -O0 -fpre-include=/usr/include/finclude/math-vector-fortran.h
REM seed -1637644481 2013129466 198145328 1142884453 2065237162 1709172213 -829545913 336455306 1057696372 1133326605 -1601994279 -1302501945 -938593976 849611142 930515599 1199886660 1000968865 -909643380 -239068841 -437723960 -910973772 5454236 -357553842 -1626967817 885974676 -1690016862 -645971296 -663022850 -498904885 274945124 -313773928 1517433739 -2079796430
REM
CELL 1.54180   50.00000   50.00000   50.00000   90.00000   90.00000   90.00000
LATT -1
SFAC C  
C      1  0.4121020000000  0.4693490000000  0.5209380000000 1.0
C      1  0.5675640000000  0.4358900000000  0.5166480000000 1.0
C      1  0.5198790000000  0.5894140000000  0.5158760000000 1.0
C      1  0.5750720000000  0.4994630000000  0.5248700000000 1.0
C      1  0.4610150000000  0.5661100000000  0.5258380000000 1.0
C      1  0.4638010000000  0.4365620000000  0.5256760000000 1.0
C      1  0.4520090000000  0.5907270000000  0.5142450000000 1.0
C      1  0.4502520000000  0.4137370000000  0.5139910000000 1.0
C      1  0.6005910000000  0.4972120000000  0.5119260000000 1.0
C      1  0.4458670000000  0.4963350000000  0.5740070000000 1.0
C      1  0.5283490000000  0.4534040000000  0.5730250000000 1.0
C      1  0.5248950000000  0.5466670000000  0.5725950000000 1.0
C      1  0.4592690000000  0.5066870000000  0.4778300000000 1.0
C      1  0.5171010000000  0.4623160000000  0.4808550000000 1.0
C      1  0.5344640000000  0.5382060000000  0.4813410000000 1.0
C      1  0.5398780000000  0.5869880000000  0.4902760000000 1.0
C      1  0.4069370000000  0.4865690000000  0.4927510000000 1.0
C      1  0.5595850000000  0.4207080000000  0.4885880000000 1.0
C      1  0.4752560000000  0.5149240000000  0.4152330000000 1.0
C      1  0.4982240000000  0.4745900000000  0.4199210000000 1.0
C      1  0.5222420000000  0.5140270000000  0.4185950000000 1.0
C      1  0.4378800000000  0.5399610000000  0.5450000000000 1.0
C      1  0.4923380000000  0.4208430000000  0.5487280000000 1.0
C      1  0.5707720000000  0.5320280000000  0.5474870000000 1.0
C      1  0.5568640000000  0.5125120000000  0.4798950000000 1.0
C      1  0.4609430000000  0.5409610000000  0.4771720000000 1.0
C      1  0.4866860000000  0.4457870000000  0.4813800000000 1.0
C      1  0.4964410000000  0.5635820000000  0.5651330000000 1.0
C      1  0.4460850000000  0.4637080000000  0.5666430000000 1.0
C      1  0.5566530000000  0.4698290000000  0.5642300000000 1.0
C      1  0.4756790000000  0.4126810000000  0.4407490000000 1.0
C      1  0.5864100000000  0.5221940000000  0.4395470000000 1.0
C      1  0.4411540000000  0.5615600000000  0.4324770000000 1.0
C      1  0.5567300000000  0.5641970000000  0.5020040000000 1.0
C      1  0.4171820000000  0.5167370000000  0.4968570000000 1.0
C      1  0.5312190000000  0.4195060000000  0.5003570000000 1.0
C      1  0.4270090000000  0.4447880000000  0.5049160000000 1.0
C      1  0.5836040000000  0.4619950000000  0.5038170000000 1.0
C      1  0.4908280000000  0.5926570000000  0.5039470000000 1.0
C      1  0.4900490000000  0.5361390000000  0.5843300000000 1.0
C      1  0.4727030000000  0.4720010000000  0.5862260000000 1.0
C      1  0.5367500000000  0.4890020000000  0.5841810000000 1.0
C      1  0.5708000000000  0.5418280000000  0.4566290000000 1.0
C      1  0.4301390000000  0.5456630000000  0.4521000000000 1.0
C      1  0.5003030000000  0.4162360000000  0.4583900000000 1.0
C      1  0.5205330000000  0.5719450000000  0.5423530000000 1.0
C      1  0.4244520000000  0.4791600000000  0.5452550000000 1.0
C      1  0.5519320000000  0.4438120000000  0.5426230000000 1.0
C      1  0.4145140000000  0.4748530000000  0.4647980000000 1.0
C      1  0.5645980000000  0.4354470000000  0.4646250000000 1.0
C      1  0.5282560000000  0.5794620000000  0.4648260000000 1.0
C      1  0.4404660000000  0.4193500000000  0.4862220000000 1.0
C      1  0.5997910000000  0.4850750000000  0.4843960000000 1.0
C      1  0.4611710000000  0.5948280000000  0.4862300000000 1.0
C      1  0.4965760000000  0.4668010000000  0.4469880000000 1.0
C      1  0.5219960000000  0.5172920000000  0.4496280000000 1.0
C      1  0.4717140000000  0.5226670000000  0.4433540000000 1.0
C      1  0.4808140000000  0.5044460000000  0.5925210000000 1.0
C      1  0.5050210000000  0.4800020000000  0.5924850000000 1.0
C      1  0.5140490000000  0.5131710000000  0.5918050000000 1.0
C      1  0.5102150000000  0.5115750000000  0.4974110000000 1.0
C      1  0.4837230000000  0.5313640000000  0.4974610000000 1.0
C      1  0.4940880000000  0.4855890000000  0.5003610000000 1.0
C      1  0.5403560000000  0.5448070000000  0.4492790000000 1.0
C      1  0.4418600000000  0.5167580000000  0.4518130000000 1.0
C      1  0.5151430000000  0.4425830000000  0.4536380000000 1.0
C      1  0.4747400000000  0.4747240000000  0.5304350000000 1.0
C      1  0.5371000000000  0.4896500000000  0.5325190000000 1.0
C      1  0.4906580000000  0.5367030000000  0.5364260000000 1.0
C      1  0.4646270000000  0.5582550000000  0.5576140000000 1.0
C      1  0.4650570000000  0.4401610000000  0.5577990000000 1.0
C      1  0.5685740000000  0.4986880000000  0.5569490000000 1.0
C      1  0.4732730000000  0.4863180000000  0.4122120000000 1.0
C      1  0.5238730000000  0.4862100000000  0.4132340000000 1.0
C      1  0.4998090000000  0.5307900000000  0.4095890000000 1.0
C      1  0.5285900000000  0.4941740000000  0.4737460000000 1.0
C      1  0.4955610000000  0.5330650000000  0.4562470000000 1.0
C      1  0.4764780000000  0.4775830000000  0.4725120000000 1.0
C      1  0.5075460000000  0.4707480000000  0.5527500000000 1.0
C      1  0.5205670000000  0.5194260000000  0.5528650000000 1.0
C      1  0.4710420000000  0.5067640000000  0.5538130000000 1.0
C      1  0.4929630000000  0.5600180000000  0.5142410000000 1.0
C      1  0.4510830000000  0.4661840000000  0.5139780000000 1.0
C      1  0.5550550000000  0.4735220000000  0.5160300000000 1.0
C      1  0.5810780000000  0.5008510000000  0.4644780000000 1.0
C      1  0.4642370000000  0.5688500000000  0.4641100000000 1.0
C      1  0.4628470000000  0.4300670000000  0.4663030000000 1.0
C      1  0.5489120000000  0.4734910000000  0.4253190000000 1.0
C      1  0.4982010000000  0.5580740000000  0.4218160000000 1.0
C      1  0.4499620000000  0.4712310000000  0.4261670000000 1.0
C      1  0.4259730000000  0.5106590000000  0.5514060000000 1.0
C      1  0.5240060000000  0.4329910000000  0.5459020000000 1.0
C      1  0.5442130000000  0.5531860000000  0.5451890000000 1.0
C      1  0.5740370000000  0.4927910000000  0.4320990000000 1.0
C      1  0.4718280000000  0.5657430000000  0.4315760000000 1.0
C      1  0.4572900000000  0.4390170000000  0.4337100000000 1.0
C      1  0.5251790000000  0.5540610000000  0.5069160000000 1.0
C      1  0.4400750000000  0.4916520000000  0.5002910000000 1.0
C      1  0.5375130000000  0.4511400000000  0.5018940000000 1.0
C      1  0.5293580000000  0.5171610000000  0.5212000000000 1.0
C      1  0.4665490000000  0.5191970000000  0.5245280000000 1.0
C      1  0.5037590000000  0.4627730000000  0.5222430000000 1.0
C      1  0.4260500000000  0.4452200000000  0.4717920000000 1.0
C      1  0.5802150000000  0.4616040000000  0.4712410000000 1.0
C      1  0.4903310000000  0.5882150000000  0.4717060000000 1.0
C      1  0.5018810000000  0.4168070000000  0.4910660000000 1.0
C      1  0.5732440000000  0.5411330000000  0.4893970000000 1.0
C      1  0.4286870000000  0.5424580000000  0.4852350000000 1.0
C      1  0.5233100000000  0.5673300000000  0.4340430000000 1.0
C      1  0.4272970000000  0.4926850000000  0.4397410000000 1.0
C      1  0.5431810000000  0.4447940000000  0.4426650000000 1.0
C      1  0.5598350000000  0.5272240000000  0.5166850000000 1.0
C      1  0.4435560000000  0.5416370000000  0.5133770000000 1.0
C      1  0.4953050000000  0.4330500000000  0.5181250000000 1.0
C      1  0.5486790000000  0.5225990000000  0.5704640000000 1.0
C      1  0.4544240000000  0.5293170000000  0.5723820000000 1.0
C      1  0.4956260000000  0.4454560000000  0.5710900000000 1.0
C      1  0.4479590000000  0.4665420000000  0.4598680000000 1.0
C      1  0.5522070000000  0.4737390000000  0.4591750000000 1.0
C      1  0.5023830000000  0.5578650000000  0.4664570000000 1.0
C      1  0.4993550000000  0.4986560000000  0.5576220000000 1.0
END
