TITL C-2782239-8622-397 -0.00148397052024516 125000 -155.258251642039 0 0 28 (Ci) n - 1
REM
REM in /home/nfs/bkarasulu/CARBON/AIRSS/Generating-Clusters/REBO/Higher-Symm/SD-CG/HFTN-CG
REM
REM
REM
REM
REM
REM ./C.cell (12c818d87b63d06a65506943cc24bca4)
REM
REM compiler GCC version 9.2.1 20190827 (Red Hat 9.2.1-1)
REM options -cpp -mtune=generic -march=x86-64 -g -O0 -fpre-include=/usr/include/finclude/math-vector-fortran.h
REM seed -1209397423 -454299947 521432944 292749023 239211846 -1248746631 1105353839 -1783825485 -273975911 1799942377 1968936312 -162281081 217828813 1157252680 -1391615399 729874572 -2002349927 -1262878001 -1446402490 -1108962510 -137259377 1444375087 151830311 459152356 1842363320 1213248337 210423941 -658561790 -2023230985 1827857385 2050406016 -672953210 27180485
REM
CELL 1.54180   50.00000   50.00000   50.00000   90.00000   90.00000   90.00000
LATT -1
SFAC C  
C      1  0.5360530000000  0.4837260000000  0.4909620000000 1.0
C      1  0.4639470000000  0.5162740000000  0.5090380000000 1.0
C      1  0.4735850000000  0.5156220000000  0.4767330000000 1.0
C      1  0.5264150000000  0.4843780000000  0.5232670000000 1.0
C      1  0.4768930000000  0.5398450000000  0.5285920000000 1.0
C      1  0.5231070000000  0.4601550000000  0.4714080000000 1.0
C      1  0.5095200000000  0.5150750000000  0.5599150000000 1.0
C      1  0.4904800000000  0.4849250000000  0.4400850000000 1.0
C      1  0.5190090000000  0.4575120000000  0.5051780000000 1.0
C      1  0.4809910000000  0.5424880000000  0.4948220000000 1.0
C      1  0.5223640000000  0.5183530000000  0.4600380000000 1.0
C      1  0.4776360000000  0.4816470000000  0.5399620000000 1.0
C      1  0.4405590000000  0.4735170000000  0.4792630000000 1.0
C      1  0.5594410000000  0.5264830000000  0.5207370000000 1.0
C      1  0.4766900000000  0.4566870000000  0.4790370000000 1.0
C      1  0.5233100000000  0.5433130000000  0.5209630000000 1.0
C      1  0.5117770000000  0.5502230000000  0.4969890000000 1.0
C      1  0.4882230000000  0.4497770000000  0.5030110000000 1.0
C      1  0.5599180000000  0.5257490000000  0.4932530000000 1.0
C      1  0.4400820000000  0.4742510000000  0.5067470000000 1.0
C      1  0.5043140000000  0.4888620000000  0.5458610000000 1.0
C      1  0.4956860000000  0.5111380000000  0.4541390000000 1.0
C      1  0.5419130000000  0.5098300000000  0.4784380000000 1.0
C      1  0.4580870000000  0.4901700000000  0.5215620000000 1.0
C      1  0.4978070000000  0.4613240000000  0.4576210000000 1.0
C      1  0.5021930000000  0.5386760000000  0.5423790000000 1.0
C      1  0.5334380000000  0.5141930000000  0.5356390000000 1.0
C      1  0.4665620000000  0.4858070000000  0.4643610000000 1.0
END
