TITL C-2782226-7400-318 -0.000836177361771794 125000 -936.460098290962 0 0 160 (C1) n - 1
REM
REM in /home/nfs/bkarasulu/CARBON/AIRSS/Generating-Clusters/REBO/Higher-Symm/SD-CG/HFTN-CG
REM
REM
REM
REM
REM
REM ./C.cell (12c818d87b63d06a65506943cc24bca4)
REM
REM compiler GCC version 9.2.1 20190827 (Red Hat 9.2.1-1)
REM options -cpp -mtune=generic -march=x86-64 -g -O0 -fpre-include=/usr/include/finclude/math-vector-fortran.h
REM seed 2069106932 -1023233818 -1320760001 -1414210553 -1337794070 -768739993 -605544418 734043082 -453455685 -46697815 454070932 -862536629 -1359687241 -213186207 396562932 -1033341625 373114197 -1339280215 1810964637 584872448 -975120042 -2082070950 1848433386 1081938916 2015139648 -512702076 1458070156 1346642018 -318522972 -633528722 1658989737 -51892858 -449168456
REM
CELL 1.54180   50.00000   50.00000   50.00000   90.00000   90.00000   90.00000
LATT -1
SFAC C  
C      1  0.4145580000000  0.5013490000000  0.4494460000000 1.0
C      1  0.4311720000000  0.4503440000000  0.4485640000000 1.0
C      1  0.4733160000000  0.4197780000000  0.4461090000000 1.0
C      1  0.5267120000000  0.4195210000000  0.4457300000000 1.0
C      1  0.5692630000000  0.4509390000000  0.4487260000000 1.0
C      1  0.5863190000000  0.5001790000000  0.4475100000000 1.0
C      1  0.5693790000000  0.5513420000000  0.4477630000000 1.0
C      1  0.5268570000000  0.5808020000000  0.4503030000000 1.0
C      1  0.4741940000000  0.5813640000000  0.4504170000000 1.0
C      1  0.4314070000000  0.5506060000000  0.4507200000000 1.0
C      1  0.5210020000000  0.4544950000000  0.4064570000000 1.0
C      1  0.5456850000000  0.4747300000000  0.4068390000000 1.0
C      1  0.5511600000000  0.5064870000000  0.4067300000000 1.0
C      1  0.5386140000000  0.5354170000000  0.4074370000000 1.0
C      1  0.5108080000000  0.5516110000000  0.4078600000000 1.0
C      1  0.4785700000000  0.5486410000000  0.4077420000000 1.0
C      1  0.4541770000000  0.5274690000000  0.4075640000000 1.0
C      1  0.4476150000000  0.4957930000000  0.4069560000000 1.0
C      1  0.4605940000000  0.4665360000000  0.4066060000000 1.0
C      1  0.4895630000000  0.4525020000000  0.4061880000000 1.0
C      1  0.4556620000000  0.4933800000000  0.5377480000000 1.0
C      1  0.4680580000000  0.4690640000000  0.5377950000000 1.0
C      1  0.4923340000000  0.4564900000000  0.5378650000000 1.0
C      1  0.5191450000000  0.4612440000000  0.5378450000000 1.0
C      1  0.5390100000000  0.4801830000000  0.5372590000000 1.0
C      1  0.5434980000000  0.5071340000000  0.5376160000000 1.0
C      1  0.5309770000000  0.5315200000000  0.5386560000000 1.0
C      1  0.5064050000000  0.5445790000000  0.5361080000000 1.0
C      1  0.4795920000000  0.5402450000000  0.5367820000000 1.0
C      1  0.4607740000000  0.5203240000000  0.5370970000000 1.0
C      1  0.5311190000000  0.5422140000000  0.4407000000000 1.0
C      1  0.5002010000000  0.5525400000000  0.4408170000000 1.0
C      1  0.4693790000000  0.5428620000000  0.4408340000000 1.0
C      1  0.4502840000000  0.5169000000000  0.4404780000000 1.0
C      1  0.4496810000000  0.4847560000000  0.4401000000000 1.0
C      1  0.4690960000000  0.4590870000000  0.4396020000000 1.0
C      1  0.4997180000000  0.4490660000000  0.4395950000000 1.0
C      1  0.5303900000000  0.4588380000000  0.4398090000000 1.0
C      1  0.5498860000000  0.4847280000000  0.4399500000000 1.0
C      1  0.5507010000000  0.5167670000000  0.4403780000000 1.0
C      1  0.4468510000000  0.5493430000000  0.4959720000000 1.0
C      1  0.4284550000000  0.5095250000000  0.4956230000000 1.0
C      1  0.4359540000000  0.4657200000000  0.4960120000000 1.0
C      1  0.4679210000000  0.4362940000000  0.4949650000000 1.0
C      1  0.5127680000000  0.4298570000000  0.4968160000000 1.0
C      1  0.5509320000000  0.4492780000000  0.4946870000000 1.0
C      1  0.5716070000000  0.4890480000000  0.4962150000000 1.0
C      1  0.5639570000000  0.5364430000000  0.4998640000000 1.0
C      1  0.5338570000000  0.5624660000000  0.4958990000000 1.0
C      1  0.4851640000000  0.5712340000000  0.4964780000000 1.0
C      1  0.5620410000000  0.5799510000000  0.4911160000000 1.0
C      1  0.5016470000000  0.5987250000000  0.4910360000000 1.0
C      1  0.4441060000000  0.5812720000000  0.4913340000000 1.0
C      1  0.4042560000000  0.5332140000000  0.4914420000000 1.0
C      1  0.4051580000000  0.4710260000000  0.4885710000000 1.0
C      1  0.4398580000000  0.4182300000000  0.4883010000000 1.0
C      1  0.4996640000000  0.4043960000000  0.4849320000000 1.0
C      1  0.5568490000000  0.4165740000000  0.4873020000000 1.0
C      1  0.5977800000000  0.4684560000000  0.4891970000000 1.0
C      1  0.5914490000000  0.5301930000000  0.4864780000000 1.0
C      1  0.4919820000000  0.5051420000000  0.6627510000000 1.0
C      1  0.5089350000000  0.4845790000000  0.6581230000000 1.0
C      1  0.5203650000000  0.4708950000000  0.6377420000000 1.0
C      1  0.5211640000000  0.4702030000000  0.6107130000000 1.0
C      1  0.5117840000000  0.4818400000000  0.5882530000000 1.0
C      1  0.4963930000000  0.5006720000000  0.5767420000000 1.0
C      1  0.4791540000000  0.5216220000000  0.5774900000000 1.0
C      1  0.4657670000000  0.5376500000000  0.6013620000000 1.0
C      1  0.4674510000000  0.5353240000000  0.6283510000000 1.0
C      1  0.4766380000000  0.5239200000000  0.6509250000000 1.0
C      1  0.5985090000000  0.5543650000000  0.5175270000000 1.0
C      1  0.5465840000000  0.5951910000000  0.5148110000000 1.0
C      1  0.4724680000000  0.6012520000000  0.5294220000000 1.0
C      1  0.4179960000000  0.5743500000000  0.5213350000000 1.0
C      1  0.3929750000000  0.5130290000000  0.5134250000000 1.0
C      1  0.4036740000000  0.4427270000000  0.5167410000000 1.0
C      1  0.4558970000000  0.4015850000000  0.5102970000000 1.0
C      1  0.5219080000000  0.3901600000000  0.5149210000000 1.0
C      1  0.5778330000000  0.4238510000000  0.5095400000000 1.0
C      1  0.6087270000000  0.4892610000000  0.5106230000000 1.0
C      1  0.5220940000000  0.5849420000000  0.5625110000000 1.0
C      1  0.4702640000000  0.5738910000000  0.5584830000000 1.0
C      1  0.4295460000000  0.5402790000000  0.5582160000000 1.0
C      1  0.4130790000000  0.4904930000000  0.5569710000000 1.0
C      1  0.4346470000000  0.4405640000000  0.5554970000000 1.0
C      1  0.4812200000000  0.4134520000000  0.5551600000000 1.0
C      1  0.5354180000000  0.4194920000000  0.5547260000000 1.0
C      1  0.5781480000000  0.4536310000000  0.5533720000000 1.0
C      1  0.5891250000000  0.5061740000000  0.5551890000000 1.0
C      1  0.5671750000000  0.5551010000000  0.5586980000000 1.0
C      1  0.5381500000000  0.3943310000000  0.4966780000000 1.0
C      1  0.5983620000000  0.4399180000000  0.5004400000000 1.0
C      1  0.6096650000000  0.5149910000000  0.5016990000000 1.0
C      1  0.5892470000000  0.5696330000000  0.5003670000000 1.0
C      1  0.5229810000000  0.6065970000000  0.5072340000000 1.0
C      1  0.4534430000000  0.5991170000000  0.5103770000000 1.0
C      1  0.4071530000000  0.5613980000000  0.5032360000000 1.0
C      1  0.3891740000000  0.4874980000000  0.5045480000000 1.0
C      1  0.4129860000000  0.4280740000000  0.4991300000000 1.0
C      1  0.4798430000000  0.3920930000000  0.5008790000000 1.0
C      1  0.5007500000000  0.5881120000000  0.4628370000000 1.0
C      1  0.4489130000000  0.5719470000000  0.4630570000000 1.0
C      1  0.4162570000000  0.5281320000000  0.4624350000000 1.0
C      1  0.4158190000000  0.4736190000000  0.4607790000000 1.0
C      1  0.4485870000000  0.4291650000000  0.4599160000000 1.0
C      1  0.4997150000000  0.4110750000000  0.4569330000000 1.0
C      1  0.5511440000000  0.4296250000000  0.4593100000000 1.0
C      1  0.5846560000000  0.4734110000000  0.4608100000000 1.0
C      1  0.5854440000000  0.5279940000000  0.4586680000000 1.0
C      1  0.5525990000000  0.5713270000000  0.4617600000000 1.0
C      1  0.5093400000000  0.4501770000000  0.4724120000000 1.0
C      1  0.5377990000000  0.4650350000000  0.4722670000000 1.0
C      1  0.5523910000000  0.4937730000000  0.4727430000000 1.0
C      1  0.5473630000000  0.5257260000000  0.4731810000000 1.0
C      1  0.5226950000000  0.5463880000000  0.4729040000000 1.0
C      1  0.4905140000000  0.5509410000000  0.4734450000000 1.0
C      1  0.4622330000000  0.5356840000000  0.4733690000000 1.0
C      1  0.4484380000000  0.5068860000000  0.4730010000000 1.0
C      1  0.4539740000000  0.4753370000000  0.4726130000000 1.0
C      1  0.4775460000000  0.4538700000000  0.4721860000000 1.0
C      1  0.4368950000000  0.5300580000000  0.5204130000000 1.0
C      1  0.4304790000000  0.4875900000000  0.5211360000000 1.0
C      1  0.4515530000000  0.4499490000000  0.5206920000000 1.0
C      1  0.4897390000000  0.4314300000000  0.5205910000000 1.0
C      1  0.5325330000000  0.4399390000000  0.5207370000000 1.0
C      1  0.5615840000000  0.4685600000000  0.5203670000000 1.0
C      1  0.5689830000000  0.5116030000000  0.5210840000000 1.0
C      1  0.5481120000000  0.5523780000000  0.5237140000000 1.0
C      1  0.5108240000000  0.5687610000000  0.5158420000000 1.0
C      1  0.4651600000000  0.5622850000000  0.5205900000000 1.0
C      1  0.5640410000000  0.5509520000000  0.4197370000000 1.0
C      1  0.5243670000000  0.5779960000000  0.4218050000000 1.0
C      1  0.4741550000000  0.5777440000000  0.4219990000000 1.0
C      1  0.4335230000000  0.5481820000000  0.4221870000000 1.0
C      1  0.4186270000000  0.5011640000000  0.4210770000000 1.0
C      1  0.4348850000000  0.4520740000000  0.4201660000000 1.0
C      1  0.4751160000000  0.4258460000000  0.4182530000000 1.0
C      1  0.5274140000000  0.4250200000000  0.4177140000000 1.0
C      1  0.5674810000000  0.4547680000000  0.4202290000000 1.0
C      1  0.5805340000000  0.5002720000000  0.4194960000000 1.0
C      1  0.5579400000000  0.4357070000000  0.5733220000000 1.0
C      1  0.5888320000000  0.4781660000000  0.5731100000000 1.0
C      1  0.5793290000000  0.5297370000000  0.5760290000000 1.0
C      1  0.5446040000000  0.5680360000000  0.5797170000000 1.0
C      1  0.4922240000000  0.5849540000000  0.5788060000000 1.0
C      1  0.4585980000000  0.5466900000000  0.5702010000000 1.0
C      1  0.4184510000000  0.5173620000000  0.5765480000000 1.0
C      1  0.4237050000000  0.4649230000000  0.5754880000000 1.0
C      1  0.4562790000000  0.4238950000000  0.5744420000000 1.0
C      1  0.5085190000000  0.4162830000000  0.5741740000000 1.0
C      1  0.5898700000000  0.4795900000000  0.5339750000000 1.0
C      1  0.5852080000000  0.5353030000000  0.5375430000000 1.0
C      1  0.5489070000000  0.5789970000000  0.5422390000000 1.0
C      1  0.4974160000000  0.5837070000000  0.5398730000000 1.0
C      1  0.4408450000000  0.5680290000000  0.5418290000000 1.0
C      1  0.4116640000000  0.5186940000000  0.5378770000000 1.0
C      1  0.4159640000000  0.4625910000000  0.5371550000000 1.0
C      1  0.4542860000000  0.4204310000000  0.5354610000000 1.0
C      1  0.5090820000000  0.4088190000000  0.5357000000000 1.0
C      1  0.5610220000000  0.4309360000000  0.5346060000000 1.0
END
