TITL C-2782234-8014-428 -0.00260577206270113 125000 -922.305640385434 0 0 161 (C1) n - 1
REM
REM in /home/nfs/bkarasulu/CARBON/AIRSS/Generating-Clusters/REBO/Higher-Symm/SD-CG/HFTN-CG
REM
REM
REM
REM
REM
REM ./C.cell (12c818d87b63d06a65506943cc24bca4)
REM
REM compiler GCC version 9.2.1 20190827 (Red Hat 9.2.1-1)
REM options -cpp -mtune=generic -march=x86-64 -g -O0 -fpre-include=/usr/include/finclude/math-vector-fortran.h
REM seed 1325233361 -1123022667 901861958 -1583114059 -685360105 2082400765 -511688586 379871580 1468634748 -1598144800 -147940312 -2062351947 1049393356 -994378148 -1097505970 -37668195 907709221 -164721883 2054326730 680615927 1671181233 1483958898 -1710286633 1974881771 -1505738700 1051222748 -637160930 -1509417117 -1320861217 -1976713124 1755430383 -672360927 197883012
REM
CELL 1.54180   50.00000   50.00000   50.00000   90.00000   90.00000   90.00000
LATT -1
SFAC C  
C      1  0.4854180000000  0.4854280000000  0.5924680000000 1.0
C      1  0.5142950000000  0.5026340000000  0.4072910000000 1.0
C      1  0.5686020000000  0.4358570000000  0.4769690000000 1.0
C      1  0.4240400000000  0.5632990000000  0.5247920000000 1.0
C      1  0.5575720000000  0.4779830000000  0.4069110000000 1.0
C      1  0.4378920000000  0.5298910000000  0.5906010000000 1.0
C      1  0.5456380000000  0.4387400000000  0.4563660000000 1.0
C      1  0.4380410000000  0.5715480000000  0.5462180000000 1.0
C      1  0.4780050000000  0.4096560000000  0.5475450000000 1.0
C      1  0.5298290000000  0.5899810000000  0.4546900000000 1.0
C      1  0.4431460000000  0.4650100000000  0.4589330000000 1.0
C      1  0.5620870000000  0.5442130000000  0.5339800000000 1.0
C      1  0.5490770000000  0.4251790000000  0.5100060000000 1.0
C      1  0.4445820000000  0.5749340000000  0.4925680000000 1.0
C      1  0.3940440000000  0.5255480000000  0.5186390000000 1.0
C      1  0.6041840000000  0.4659400000000  0.4870900000000 1.0
C      1  0.4854150000000  0.5356470000000  0.4352690000000 1.0
C      1  0.5251020000000  0.4659550000000  0.5616180000000 1.0
C      1  0.4965290000000  0.5885840000000  0.5525360000000 1.0
C      1  0.4938410000000  0.4207550000000  0.4548200000000 1.0
C      1  0.5208420000000  0.5909580000000  0.4856190000000 1.0
C      1  0.4742010000000  0.4141900000000  0.5158210000000 1.0
C      1  0.5495470000000  0.5774670000000  0.4857660000000 1.0
C      1  0.4460490000000  0.4219130000000  0.5308070000000 1.0
C      1  0.5396790000000  0.4524070000000  0.5154260000000 1.0
C      1  0.4559630000000  0.5490880000000  0.4841400000000 1.0
C      1  0.4774440000000  0.4855770000000  0.4922900000000 1.0
C      1  0.5303360000000  0.5239580000000  0.5123060000000 1.0
C      1  0.4411690000000  0.5095080000000  0.4587930000000 1.0
C      1  0.5604120000000  0.5067280000000  0.5528580000000 1.0
C      1  0.4593150000000  0.4388210000000  0.4628850000000 1.0
C      1  0.5406070000000  0.5662790000000  0.5382370000000 1.0
C      1  0.5895900000000  0.5586460000000  0.5305140000000 1.0
C      1  0.4201270000000  0.4425870000000  0.4558450000000 1.0
C      1  0.4784650000000  0.4796990000000  0.3888540000000 1.0
C      1  0.5224500000000  0.5156300000000  0.6015030000000 1.0
C      1  0.5663280000000  0.5039160000000  0.4270190000000 1.0
C      1  0.4248350000000  0.5025780000000  0.5769350000000 1.0
C      1  0.5129620000000  0.5636590000000  0.5850800000000 1.0
C      1  0.4847190000000  0.4381410000000  0.4199950000000 1.0
C      1  0.4276600000000  0.4998940000000  0.4066690000000 1.0
C      1  0.5668750000000  0.4956760000000  0.5967910000000 1.0
C      1  0.5244200000000  0.5965630000000  0.5345070000000 1.0
C      1  0.4659830000000  0.4053570000000  0.4672700000000 1.0
C      1  0.5575000000000  0.4780110000000  0.4467460000000 1.0
C      1  0.4533270000000  0.5238320000000  0.5542480000000 1.0
C      1  0.4679540000000  0.3948490000000  0.4928380000000 1.0
C      1  0.5210070000000  0.6091120000000  0.5100450000000 1.0
C      1  0.4196280000000  0.5349720000000  0.4774330000000 1.0
C      1  0.5773940000000  0.4566670000000  0.5277370000000 1.0
C      1  0.5261220000000  0.5405910000000  0.4066860000000 1.0
C      1  0.4636610000000  0.4550820000000  0.5791800000000 1.0
C      1  0.5913030000000  0.5154400000000  0.4357710000000 1.0
C      1  0.3997740000000  0.4979120000000  0.5709410000000 1.0
C      1  0.4588530000000  0.5289850000000  0.5034200000000 1.0
C      1  0.5390600000000  0.4754180000000  0.4970000000000 1.0
C      1  0.4328270000000  0.5394600000000  0.4461290000000 1.0
C      1  0.5702730000000  0.4566930000000  0.5560760000000 1.0
C      1  0.4543980000000  0.4297430000000  0.5610730000000 1.0
C      1  0.5579710000000  0.5707740000000  0.4538530000000 1.0
C      1  0.4486010000000  0.5526680000000  0.5706720000000 1.0
C      1  0.5474730000000  0.4542910000000  0.4275950000000 1.0
C      1  0.5092250000000  0.4898510000000  0.5452980000000 1.0
C      1  0.4937030000000  0.5119600000000  0.4536210000000 1.0
C      1  0.5946400000000  0.5837290000000  0.5406190000000 1.0
C      1  0.4199070000000  0.4226970000000  0.4369110000000 1.0
C      1  0.4078340000000  0.4757660000000  0.4742610000000 1.0
C      1  0.6036370000000  0.5142020000000  0.5216830000000 1.0
C      1  0.5345420000000  0.5408720000000  0.5889050000000 1.0
C      1  0.4644630000000  0.4611150000000  0.4106500000000 1.0
C      1  0.4247920000000  0.5087450000000  0.4986000000000 1.0
C      1  0.5761140000000  0.4846800000000  0.5084770000000 1.0
C      1  0.4311350000000  0.5177830000000  0.5309720000000 1.0
C      1  0.5663830000000  0.4757650000000  0.4765550000000 1.0
C      1  0.4660780000000  0.5862680000000  0.5588490000000 1.0
C      1  0.5234790000000  0.4148380000000  0.4528430000000 1.0
C      1  0.4930850000000  0.5157610000000  0.5980880000000 1.0
C      1  0.5070440000000  0.4715760000000  0.3834940000000 1.0
C      1  0.4605500000000  0.4936740000000  0.5420560000000 1.0
C      1  0.5443970000000  0.5067120000000  0.4601050000000 1.0
C      1  0.3998160000000  0.4474480000000  0.4781660000000 1.0
C      1  0.6068150000000  0.5426110000000  0.5138130000000 1.0
C      1  0.4589580000000  0.5004240000000  0.4068830000000 1.0
C      1  0.5390530000000  0.4915450000000  0.6021150000000 1.0
C      1  0.4460000000000  0.6131040000000  0.5180440000000 1.0
C      1  0.5460760000000  0.3824320000000  0.4927530000000 1.0
C      1  0.5769440000000  0.4838240000000  0.5693460000000 1.0
C      1  0.4175110000000  0.5137630000000  0.4299510000000 1.0
C      1  0.4329430000000  0.6004290000000  0.4969280000000 1.0
C      1  0.5588090000000  0.3987010000000  0.5113710000000 1.0
C      1  0.4853680000000  0.5001910000000  0.5621510000000 1.0
C      1  0.5072450000000  0.4901350000000  0.4348330000000 1.0
C      1  0.4238180000000  0.5403500000000  0.6152890000000 1.0
C      1  0.5810490000000  0.4688610000000  0.3895650000000 1.0
C      1  0.4380810000000  0.4815080000000  0.4871430000000 1.0
C      1  0.5695170000000  0.5173970000000  0.5155390000000 1.0
C      1  0.4659720000000  0.4187400000000  0.4358700000000 1.0
C      1  0.5276590000000  0.5828360000000  0.5653220000000 1.0
C      1  0.5473110000000  0.5068280000000  0.4919410000000 1.0
C      1  0.4642750000000  0.5044810000000  0.5132760000000 1.0
C      1  0.5006130000000  0.5274180000000  0.3987370000000 1.0
C      1  0.4966040000000  0.4579950000000  0.5903440000000 1.0
C      1  0.5042280000000  0.5400250000000  0.4702130000000 1.0
C      1  0.4934160000000  0.4663930000000  0.5253850000000 1.0
C      1  0.4691350000000  0.4959210000000  0.4638100000000 1.0
C      1  0.5307060000000  0.5117360000000  0.5396370000000 1.0
C      1  0.4110550000000  0.5454260000000  0.5062880000000 1.0
C      1  0.5847360000000  0.4472510000000  0.4977280000000 1.0
C      1  0.5040650000000  0.4649510000000  0.4157610000000 1.0
C      1  0.4820330000000  0.5314770000000  0.5711830000000 1.0
C      1  0.4572420000000  0.4814240000000  0.4354060000000 1.0
C      1  0.5443060000000  0.5339560000000  0.5613240000000 1.0
C      1  0.4703330000000  0.5281070000000  0.4074000000000 1.0
C      1  0.5284770000000  0.4637620000000  0.5937660000000 1.0
C      1  0.5209610000000  0.4273100000000  0.4907650000000 1.0
C      1  0.4749840000000  0.5742260000000  0.5083060000000 1.0
C      1  0.5770940000000  0.5206940000000  0.6060830000000 1.0
C      1  0.4182060000000  0.4750170000000  0.3976810000000 1.0
C      1  0.5280670000000  0.3964970000000  0.4779460000000 1.0
C      1  0.4657850000000  0.5968560000000  0.5285330000000 1.0
C      1  0.4357470000000  0.4536390000000  0.3996860000000 1.0
C      1  0.5616020000000  0.5436530000000  0.6050350000000 1.0
C      1  0.4807620000000  0.5623740000000  0.5781690000000 1.0
C      1  0.5181110000000  0.4369660000000  0.4275590000000 1.0
C      1  0.4903170000000  0.5475820000000  0.5196010000000 1.0
C      1  0.5198580000000  0.4538340000000  0.4691900000000 1.0
C      1  0.5482750000000  0.5461930000000  0.4965130000000 1.0
C      1  0.4555010000000  0.4658590000000  0.5094310000000 1.0
C      1  0.5331730000000  0.4866110000000  0.3909570000000 1.0
C      1  0.4600260000000  0.5074020000000  0.5942090000000 1.0
C      1  0.4994870000000  0.5690890000000  0.4875920000000 1.0
C      1  0.4926020000000  0.4378030000000  0.5066980000000 1.0
C      1  0.5323220000000  0.4166640000000  0.5652800000000 1.0
C      1  0.4783310000000  0.5744480000000  0.4384420000000 1.0
C      1  0.5197960000000  0.4531400000000  0.5345570000000 1.0
C      1  0.4744380000000  0.5515120000000  0.4625340000000 1.0
C      1  0.6043680000000  0.5467400000000  0.4857980000000 1.0
C      1  0.4024270000000  0.4411170000000  0.5056280000000 1.0
C      1  0.4886700000000  0.4452330000000  0.4761150000000 1.0
C      1  0.5081340000000  0.5604520000000  0.5387140000000 1.0
C      1  0.5737050000000  0.5482450000000  0.4738810000000 1.0
C      1  0.4325190000000  0.4455830000000  0.5192800000000 1.0
C      1  0.5003050000000  0.5236640000000  0.5045150000000 1.0
C      1  0.5206660000000  0.4840140000000  0.4627770000000 1.0
C      1  0.4061450000000  0.4659210000000  0.5261820000000 1.0
C      1  0.5937820000000  0.5218130000000  0.4661220000000 1.0
C      1  0.4555110000000  0.5512480000000  0.4276790000000 1.0
C      1  0.5466400000000  0.4436910000000  0.5728120000000 1.0
C      1  0.5264020000000  0.5557720000000  0.4347200000000 1.0
C      1  0.4912660000000  0.4446540000000  0.5612310000000 1.0
C      1  0.4510640000000  0.4824550000000  0.5725250000000 1.0
C      1  0.5428730000000  0.5258410000000  0.4324150000000 1.0
C      1  0.4666660000000  0.4543530000000  0.5394780000000 1.0
C      1  0.5348750000000  0.5470310000000  0.4652560000000 1.0
C      1  0.5929930000000  0.4965620000000  0.4811640000000 1.0
C      1  0.4065360000000  0.4950880000000  0.5242590000000 1.0
C      1  0.5065410000000  0.5806750000000  0.4360900000000 1.0
C      1  0.5060530000000  0.4169330000000  0.5580810000000 1.0
C      1  0.4124700000000  0.4940480000000  0.4537590000000 1.0
C      1  0.5915150000000  0.5004130000000  0.5442800000000 1.0
C      1  0.5093780000000  0.4924710000000  0.4931870000000 1.0
END
