TITL C-2782227-3064-113 0.000410746916711798 125000 -287.057869262994 0 0 52 (C1) n - 1
REM
REM in /home/nfs/bkarasulu/CARBON/AIRSS/Generating-Clusters/REBO/Higher-Symm/SD-CG/HFTN-CG
REM
REM
REM
REM
REM
REM ./C.cell (12c818d87b63d06a65506943cc24bca4)
REM
REM compiler GCC version 9.2.1 20190827 (Red Hat 9.2.1-1)
REM options -cpp -mtune=generic -march=x86-64 -g -O0 -fpre-include=/usr/include/finclude/math-vector-fortran.h
REM seed 230512713 -1250618277 131045178 194773342 -1829789575 1144029108 -1852277577 -855843430 283782873 -1979909311 -1874075221 -353175113 2084924364 1465449867 -1373028958 604750004 -429477739 -1435093753 -1491212879 -1822312694 391852613 752795817 -24720088 -1093964374 207310260 -915266197 -1953157007 -1894780804 -783006180 1698081793 1612756280 -1993278457 -772166115
REM
CELL 1.54180   50.00000   50.00000   50.00000   90.00000   90.00000   90.00000
LATT -1
SFAC C  
C      1  0.5678060000000  0.5061610000000  0.5191150000000 1.0
C      1  0.5593590000000  0.4827830000000  0.4956490000000 1.0
C      1  0.5622000000000  0.5158880000000  0.4874450000000 1.0
C      1  0.4400560000000  0.4957780000000  0.5220070000000 1.0
C      1  0.4331400000000  0.5165210000000  0.4955800000000 1.0
C      1  0.4336150000000  0.4841670000000  0.4901960000000 1.0
C      1  0.5713510000000  0.5012310000000  0.4609260000000 1.0
C      1  0.5766490000000  0.5366270000000  0.5183930000000 1.0
C      1  0.5632510000000  0.4673810000000  0.5240190000000 1.0
C      1  0.4291870000000  0.4980930000000  0.4227740000000 1.0
C      1  0.4353790000000  0.4627310000000  0.5161340000000 1.0
C      1  0.4285860000000  0.5345290000000  0.5223270000000 1.0
C      1  0.5361610000000  0.4656980000000  0.4793900000000 1.0
C      1  0.5384310000000  0.5368650000000  0.4801910000000 1.0
C      1  0.5441360000000  0.5027430000000  0.5387880000000 1.0
C      1  0.4554420000000  0.5327630000000  0.4811280000000 1.0
C      1  0.4571350000000  0.4675730000000  0.4784010000000 1.0
C      1  0.4636050000000  0.4986440000000  0.5410190000000 1.0
C      1  0.5350760000000  0.5312550000000  0.5471260000000 1.0
C      1  0.5255890000000  0.4439800000000  0.5009330000000 1.0
C      1  0.5296000000000  0.5283890000000  0.4510840000000 1.0
C      1  0.4751860000000  0.4697970000000  0.5459670000000 1.0
C      1  0.4667380000000  0.5522790000000  0.5030700000000 1.0
C      1  0.4655640000000  0.4761450000000  0.4500300000000 1.0
C      1  0.4902150000000  0.5130570000000  0.5287820000000 1.0
C      1  0.4854660000000  0.4709640000000  0.4945150000000 1.0
C      1  0.4833870000000  0.5169240000000  0.4745690000000 1.0
C      1  0.5191710000000  0.4885990000000  0.5238290000000 1.0
C      1  0.5123850000000  0.5346720000000  0.4953970000000 1.0
C      1  0.5090330000000  0.4785670000000  0.4735650000000 1.0
C      1  0.4950980000000  0.5557240000000  0.5051180000000 1.0
C      1  0.5074360000000  0.4677080000000  0.5466250000000 1.0
C      1  0.4940760000000  0.4780600000000  0.4468020000000 1.0
C      1  0.4938100000000  0.4411130000000  0.5049000000000 1.0
C      1  0.5046410000000  0.5368940000000  0.5478290000000 1.0
C      1  0.4983770000000  0.5260430000000  0.4456840000000 1.0
C      1  0.5412430000000  0.4705400000000  0.5500010000000 1.0
C      1  0.5528390000000  0.4762860000000  0.4543950000000 1.0
C      1  0.5569060000000  0.5536610000000  0.5001110000000 1.0
C      1  0.4707130000000  0.5314030000000  0.5478770000000 1.0
C      1  0.4641680000000  0.5246050000000  0.4491190000000 1.0
C      1  0.4605280000000  0.4407200000000  0.4990270000000 1.0
C      1  0.5514240000000  0.5507040000000  0.5330940000000 1.0
C      1  0.5400250000000  0.4459680000000  0.5258010000000 1.0
C      1  0.5460160000000  0.5065770000000  0.4416250000000 1.0
C      1  0.4603380000000  0.4502940000000  0.5312350000000 1.0
C      1  0.4527660000000  0.5474860000000  0.5282630000000 1.0
C      1  0.4515250000000  0.4987420000000  0.4388050000000 1.0
C      1  0.5020570000000  0.4984740000000  0.4299370000000 1.0
C      1  0.4986760000000  0.4390430000000  0.5359670000000 1.0
C      1  0.5029360000000  0.5643270000000  0.5316000000000 1.0
C      1  0.5010320000000  0.5025520000000  0.4984770000000 1.0
END
