TITL C-2782225-7408-1294 2.71384648192021e-05 125000 -416.180483993764 0 0 72 (C2h) n - 1
REM
REM in /home/nfs/bkarasulu/CARBON/AIRSS/Generating-Clusters/REBO/Higher-Symm/SD-CG/HFTN-CG
REM
REM
REM
REM
REM
REM ./C.cell (12c818d87b63d06a65506943cc24bca4)
REM
REM compiler GCC version 9.2.1 20190827 (Red Hat 9.2.1-1)
REM options -cpp -mtune=generic -march=x86-64 -g -O0 -fpre-include=/usr/include/finclude/math-vector-fortran.h
REM seed -495221233 -1163307606 119478307 -1658225724 1220524274 1210978525 1285740053 795755228 -1542152444 1705151556 679040369 1501938938 789347701 1814401427 -1940129876 -265756457 478288053 582910621 670414001 -409946382 606905239 155092924 -222725674 -86734870 987156334 -770769158 -1067132809 -301330107 -1105744099 -1353983367 650485034 -2002832875 1252184360
REM
CELL 1.54180   50.00000   50.00000   50.00000   90.00000   90.00000   90.00000
LATT -1
SFAC C  
C      1  0.5677340000000  0.4889030000000  0.5413890000000 1.0
C      1  0.5712950000000  0.4882950000000  0.4622930000000 1.0
C      1  0.5035790000000  0.4842560000000  0.4188410000000 1.0
C      1  0.4328250000000  0.4858920000000  0.4570100000000 1.0
C      1  0.4299090000000  0.4865430000000  0.5358730000000 1.0
C      1  0.4972220000000  0.4906420000000  0.5784560000000 1.0
C      1  0.5671750000000  0.5141080000000  0.5429900000000 1.0
C      1  0.5700910000000  0.5134570000000  0.4641270000000 1.0
C      1  0.5027780000000  0.5093580000000  0.4215440000000 1.0
C      1  0.4322660000000  0.5110970000000  0.4586110000000 1.0
C      1  0.4287050000000  0.5117050000000  0.5377070000000 1.0
C      1  0.4964210000000  0.5157440000000  0.5811590000000 1.0
C      1  0.4751200000000  0.5759020000000  0.5247170000000 1.0
C      1  0.5071570000000  0.5758860000000  0.5343690000000 1.0
C      1  0.5312120000000  0.5736560000000  0.5115210000000 1.0
C      1  0.5235300000000  0.5714580000000  0.4792330000000 1.0
C      1  0.4919260000000  0.5714750000000  0.4697120000000 1.0
C      1  0.4676880000000  0.5736890000000  0.4923820000000 1.0
C      1  0.4764700000000  0.4285420000000  0.5207670000000 1.0
C      1  0.5080740000000  0.4285250000000  0.5302880000000 1.0
C      1  0.5323120000000  0.4263110000000  0.5076180000000 1.0
C      1  0.5248800000000  0.4240980000000  0.4752830000000 1.0
C      1  0.4928430000000  0.4241140000000  0.4656310000000 1.0
C      1  0.4687880000000  0.4263440000000  0.4884790000000 1.0
C      1  0.5797300000000  0.4858160000000  0.5012700000000 1.0
C      1  0.5418360000000  0.4842360000000  0.4303670000000 1.0
C      1  0.4613900000000  0.4883520000000  0.4291810000000 1.0
C      1  0.4206640000000  0.4889800000000  0.4970790000000 1.0
C      1  0.4589660000000  0.4906620000000  0.5669300000000 1.0
C      1  0.5385960000000  0.4864870000000  0.5686180000000 1.0
C      1  0.5793360000000  0.5110200000000  0.5029210000000 1.0
C      1  0.5410340000000  0.5093380000000  0.4330700000000 1.0
C      1  0.4614040000000  0.5135130000000  0.4313820000000 1.0
C      1  0.4202700000000  0.5141840000000  0.4987300000000 1.0
C      1  0.4581640000000  0.5157640000000  0.5696330000000 1.0
C      1  0.5386100000000  0.5116480000000  0.5708190000000 1.0
C      1  0.5097860000000  0.4770890000000  0.4674800000000 1.0
C      1  0.4801400000000  0.4820670000000  0.4745080000000 1.0
C      1  0.4701010000000  0.4847770000000  0.5043910000000 1.0
C      1  0.4916400000000  0.4897260000000  0.5277290000000 1.0
C      1  0.5224820000000  0.4847500000000  0.5201720000000 1.0
C      1  0.5306200000000  0.4820410000000  0.4897170000000 1.0
C      1  0.5083600000000  0.5102740000000  0.4722710000000 1.0
C      1  0.4775180000000  0.5152500000000  0.4798280000000 1.0
C      1  0.4693800000000  0.5179590000000  0.5102830000000 1.0
C      1  0.4902140000000  0.5229110000000  0.5325200000000 1.0
C      1  0.5198600000000  0.5179330000000  0.5254920000000 1.0
C      1  0.5298990000000  0.5152230000000  0.4956090000000 1.0
C      1  0.5145710000000  0.5548460000000  0.4517310000000 1.0
C      1  0.4620180000000  0.5588010000000  0.4631250000000 1.0
C      1  0.4468360000000  0.5608080000000  0.5149340000000 1.0
C      1  0.4834760000000  0.5646490000000  0.5549570000000 1.0
C      1  0.5361240000000  0.5607620000000  0.5418350000000 1.0
C      1  0.5520870000000  0.5587540000000  0.4902620000000 1.0
C      1  0.5165240000000  0.4353510000000  0.4450430000000 1.0
C      1  0.4638760000000  0.4392380000000  0.4581650000000 1.0
C      1  0.4479130000000  0.4412460000000  0.5097380000000 1.0
C      1  0.4854290000000  0.4451540000000  0.5482690000000 1.0
C      1  0.5379820000000  0.4411990000000  0.5368750000000 1.0
C      1  0.5531640000000  0.4391920000000  0.4850660000000 1.0
C      1  0.5394120000000  0.5313410000000  0.5446760000000 1.0
C      1  0.5560520000000  0.5294160000000  0.4890410000000 1.0
C      1  0.5160830000000  0.5257240000000  0.4466630000000 1.0
C      1  0.4593590000000  0.5294660000000  0.4599090000000 1.0
C      1  0.4424970000000  0.5313910000000  0.5154780000000 1.0
C      1  0.4822530000000  0.5351770000000  0.5589650000000 1.0
C      1  0.5406410000000  0.4705340000000  0.5400910000000 1.0
C      1  0.5575030000000  0.4686090000000  0.4845220000000 1.0
C      1  0.5177470000000  0.4648230000000  0.4410350000000 1.0
C      1  0.4605880000000  0.4686590000000  0.4553240000000 1.0
C      1  0.4439480000000  0.4705840000000  0.5109590000000 1.0
C      1  0.4839170000000  0.4742760000000  0.5533370000000 1.0
END
