TITL C-2782226-7400-730 0.0363112057748525 125000 -701.251563377927 0 0 120 (C1) n - 1
REM
REM in /home/nfs/bkarasulu/CARBON/AIRSS/Generating-Clusters/REBO/Higher-Symm/SD-CG/HFTN-CG
REM
REM
REM
REM
REM
REM ./C.cell (12c818d87b63d06a65506943cc24bca4)
REM
REM compiler GCC version 9.2.1 20190827 (Red Hat 9.2.1-1)
REM options -cpp -mtune=generic -march=x86-64 -g -O0 -fpre-include=/usr/include/finclude/math-vector-fortran.h
REM seed 740422321 -2081678391 141569119 1321666532 790247343 -952984223 107192250 1362197922 1646113250 1278420658 407971298 -434262838 46342527 412198091 -2084036889 -352933326 -1613939521 1503795740 -1387982506 -549654865 -1858665065 1018878322 -71603494 393759739 -1605472762 93853162 -454560821 -1126165924 -588726049 2021079676 -1861793937 -317366072 884020050
REM
CELL 1.54180   50.00000   50.00000   50.00000   90.00000   90.00000   90.00000
LATT -1
SFAC C  
C      1  0.4904440000000  0.4698800000000  0.4218530000000 1.0
C      1  0.4920670000000  0.4205040000000  0.4724710000000 1.0
C      1  0.4986750000000  0.4263420000000  0.5512230000000 1.0
C      1  0.4980960000000  0.4930520000000  0.5872840000000 1.0
C      1  0.4972110000000  0.5612540000000  0.5592160000000 1.0
C      1  0.4995310000000  0.5867390000000  0.4872120000000 1.0
C      1  0.4943200000000  0.5421540000000  0.4252850000000 1.0
C      1  0.4684980000000  0.4979600000000  0.5811580000000 1.0
C      1  0.4681630000000  0.5607230000000  0.5508440000000 1.0
C      1  0.4691600000000  0.5810980000000  0.4823900000000 1.0
C      1  0.4630590000000  0.5364570000000  0.4220890000000 1.0
C      1  0.4579570000000  0.4601480000000  0.4181810000000 1.0
C      1  0.4614070000000  0.4141340000000  0.4814090000000 1.0
C      1  0.4681500000000  0.4348040000000  0.5514910000000 1.0
C      1  0.4628330000000  0.5745660000000  0.5244240000000 1.0
C      1  0.4619390000000  0.5682680000000  0.4555250000000 1.0
C      1  0.4533480000000  0.5093480000000  0.4130010000000 1.0
C      1  0.4552310000000  0.4378880000000  0.4388470000000 1.0
C      1  0.4577690000000  0.4183090000000  0.5084400000000 1.0
C      1  0.4619280000000  0.4583730000000  0.5685800000000 1.0
C      1  0.4618260000000  0.5264030000000  0.5725860000000 1.0
C      1  0.4419810000000  0.5840410000000  0.5026740000000 1.0
C      1  0.4397240000000  0.5555520000000  0.4367230000000 1.0
C      1  0.4326830000000  0.4828460000000  0.4142550000000 1.0
C      1  0.4409730000000  0.4251890000000  0.4633820000000 1.0
C      1  0.4412820000000  0.4249290000000  0.5336430000000 1.0
C      1  0.4408930000000  0.4787020000000  0.5806940000000 1.0
C      1  0.4407600000000  0.5488820000000  0.5658640000000 1.0
C      1  0.5763880000000  0.4789730000000  0.4761830000000 1.0
C      1  0.5767310000000  0.4672490000000  0.5010140000000 1.0
C      1  0.5792140000000  0.4804210000000  0.5253920000000 1.0
C      1  0.5808840000000  0.5076810000000  0.5309590000000 1.0
C      1  0.5821170000000  0.5291090000000  0.5134400000000 1.0
C      1  0.5824200000000  0.5280740000000  0.4858560000000 1.0
C      1  0.5799540000000  0.5056740000000  0.4695780000000 1.0
C      1  0.4181850000000  0.5435550000000  0.4486670000000 1.0
C      1  0.4145480000000  0.4838340000000  0.4352420000000 1.0
C      1  0.4206510000000  0.4416880000000  0.4753790000000 1.0
C      1  0.4198740000000  0.4430260000000  0.5290050000000 1.0
C      1  0.4178850000000  0.4847170000000  0.5672790000000 1.0
C      1  0.4155390000000  0.5437940000000  0.5570470000000 1.0
C      1  0.4183880000000  0.5703090000000  0.5015200000000 1.0
C      1  0.4641540000000  0.5297340000000  0.5397040000000 1.0
C      1  0.4669250000000  0.5531230000000  0.4995330000000 1.0
C      1  0.4686520000000  0.5354440000000  0.4551640000000 1.0
C      1  0.4663950000000  0.4887370000000  0.4339900000000 1.0
C      1  0.4749680000000  0.4458510000000  0.4614030000000 1.0
C      1  0.4724910000000  0.4453990000000  0.5201330000000 1.0
C      1  0.4660610000000  0.4855860000000  0.5505170000000 1.0
C      1  0.5672470000000  0.5737660000000  0.4976130000000 1.0
C      1  0.5692910000000  0.5451620000000  0.4417530000000 1.0
C      1  0.5657240000000  0.4871410000000  0.4285140000000 1.0
C      1  0.5685200000000  0.4345490000000  0.4688480000000 1.0
C      1  0.5661380000000  0.4344560000000  0.5374560000000 1.0
C      1  0.5657850000000  0.4866630000000  0.5729370000000 1.0
C      1  0.5651990000000  0.5475340000000  0.5556280000000 1.0
C      1  0.5325770000000  0.5311310000000  0.4967320000000 1.0
C      1  0.5329460000000  0.5183450000000  0.4721580000000 1.0
C      1  0.5336640000000  0.4906690000000  0.4678430000000 1.0
C      1  0.5391730000000  0.4664450000000  0.4872940000000 1.0
C      1  0.5367500000000  0.4694140000000  0.5186470000000 1.0
C      1  0.5325610000000  0.4940630000000  0.5315370000000 1.0
C      1  0.5312550000000  0.5198540000000  0.5219620000000 1.0
C      1  0.5060930000000  0.4708370000000  0.4902550000000 1.0
C      1  0.4970380000000  0.4659800000000  0.5182740000000 1.0
C      1  0.4930640000000  0.4904060000000  0.5363060000000 1.0
C      1  0.4915110000000  0.5208630000000  0.5256970000000 1.0
C      1  0.4933300000000  0.5382280000000  0.4976870000000 1.0
C      1  0.4938860000000  0.5259700000000  0.4688200000000 1.0
C      1  0.4943790000000  0.4954320000000  0.4730230000000 1.0
C      1  0.5221230000000  0.6067880000000  0.4881830000000 1.0
C      1  0.5183770000000  0.5558860000000  0.4155050000000 1.0
C      1  0.5182210000000  0.4604340000000  0.4143210000000 1.0
C      1  0.5199130000000  0.4037820000000  0.4811910000000 1.0
C      1  0.5205320000000  0.4081630000000  0.5616490000000 1.0
C      1  0.5203430000000  0.4879040000000  0.6070180000000 1.0
C      1  0.5191770000000  0.5729100000000  0.5762060000000 1.0
C      1  0.5708950000000  0.5148490000000  0.5567630000000 1.0
C      1  0.5716560000000  0.5536010000000  0.5238900000000 1.0
C      1  0.5736560000000  0.5522650000000  0.4733950000000 1.0
C      1  0.5722640000000  0.5127180000000  0.4432570000000 1.0
C      1  0.5652270000000  0.4612530000000  0.4536780000000 1.0
C      1  0.5662330000000  0.4383860000000  0.5047350000000 1.0
C      1  0.5707100000000  0.4650270000000  0.5479700000000 1.0
C      1  0.5412510000000  0.5512830000000  0.4330390000000 1.0
C      1  0.5393630000000  0.4691030000000  0.4347360000000 1.0
C      1  0.5429000000000  0.4244140000000  0.4855420000000 1.0
C      1  0.5380140000000  0.4258380000000  0.5454870000000 1.0
C      1  0.5369060000000  0.4862780000000  0.5823560000000 1.0
C      1  0.5360090000000  0.5535540000000  0.5609550000000 1.0
C      1  0.5383010000000  0.5829230000000  0.4953410000000 1.0
C      1  0.4133290000000  0.4676540000000  0.5157050000000 1.0
C      1  0.4134810000000  0.4928210000000  0.5364690000000 1.0
C      1  0.4094100000000  0.5250630000000  0.5324090000000 1.0
C      1  0.4121120000000  0.5384600000000  0.5029270000000 1.0
C      1  0.4135480000000  0.5229950000000  0.4737460000000 1.0
C      1  0.4191070000000  0.4908070000000  0.4669870000000 1.0
C      1  0.4145960000000  0.4672240000000  0.4873090000000 1.0
C      1  0.5174620000000  0.5591440000000  0.4961020000000 1.0
C      1  0.5178430000000  0.5347970000000  0.4493000000000 1.0
C      1  0.5099290000000  0.4807420000000  0.4474620000000 1.0
C      1  0.5165010000000  0.4429610000000  0.4769950000000 1.0
C      1  0.5182560000000  0.4465290000000  0.5321690000000 1.0
C      1  0.5162170000000  0.4906660000000  0.5585990000000 1.0
C      1  0.5151690000000  0.5383090000000  0.5418160000000 1.0
C      1  0.4454360000000  0.4878690000000  0.5282770000000 1.0
C      1  0.4405120000000  0.5188770000000  0.5230600000000 1.0
C      1  0.4448160000000  0.5336780000000  0.4959580000000 1.0
C      1  0.4471240000000  0.5190700000000  0.4685960000000 1.0
C      1  0.4525490000000  0.4895120000000  0.4604740000000 1.0
C      1  0.4642040000000  0.4673710000000  0.4764580000000 1.0
C      1  0.4590890000000  0.4706180000000  0.5069120000000 1.0
C      1  0.5862800000000  0.4167470000000  0.5463400000000 1.0
C      1  0.5842660000000  0.4827730000000  0.5940250000000 1.0
C      1  0.5825890000000  0.5617570000000  0.5729050000000 1.0
C      1  0.5855180000000  0.5954150000000  0.4978410000000 1.0
C      1  0.5889130000000  0.5571800000000  0.4253170000000 1.0
C      1  0.5784820000000  0.4832720000000  0.4019550000000 1.0
C      1  0.5880960000000  0.4152040000000  0.4584150000000 1.0
C      1  0.4775180000000  0.4970600000000  0.4993990000000 1.0
END
