TITL C-2782232-2968-368 -0.00849081794245256 125000 -1123.36043882195 0 0 187 (C1) n - 1
REM
REM in /home/nfs/bkarasulu/CARBON/AIRSS/Generating-Clusters/REBO/Higher-Symm/SD-CG/HFTN-CG
REM
REM
REM
REM
REM
REM ./C.cell (12c818d87b63d06a65506943cc24bca4)
REM
REM compiler GCC version 9.2.1 20190827 (Red Hat 9.2.1-1)
REM options -cpp -mtune=generic -march=x86-64 -g -O0 -fpre-include=/usr/include/finclude/math-vector-fortran.h
REM seed 1398700148 140437418 826998742 1931521604 -307825189 -1170165269 1405789066 1189702158 -744896027 -775105903 471364480 951417106 484968881 -2084471502 1152850914 -1572852414 476063943 -490997755 1041699511 -2025347350 490554985 -1892029611 743478875 -1572962383 1100555008 402043328 1145823027 -1644356679 531278246 1925340233 -821063058 1976395855 -1286908602
REM
CELL 1.54180   50.00000   50.00000   50.00000   90.00000   90.00000   90.00000
LATT -1
SFAC C  
C      1  0.4755280000000  0.4027700000000  0.5119490000000 1.0
C      1  0.4292900000000  0.5674250000000  0.5107470000000 1.0
C      1  0.5984380000000  0.5351360000000  0.5068280000000 1.0
C      1  0.4772950000000  0.5987320000000  0.4842320000000 1.0
C      1  0.4173660000000  0.4308210000000  0.4866750000000 1.0
C      1  0.5938120000000  0.4706410000000  0.4923500000000 1.0
C      1  0.5163850000000  0.5994110000000  0.4924930000000 1.0
C      1  0.5738080000000  0.4368440000000  0.4862360000000 1.0
C      1  0.4107260000000  0.4700200000000  0.4898970000000 1.0
C      1  0.5243030000000  0.4037060000000  0.5086890000000 1.0
C      1  0.5729720000000  0.5657080000000  0.5108590000000 1.0
C      1  0.3993490000000  0.5333890000000  0.5036500000000 1.0
C      1  0.5592350000000  0.5839770000000  0.4952140000000 1.0
C      1  0.5426630000000  0.4020560000000  0.4873280000000 1.0
C      1  0.3911790000000  0.5107760000000  0.4896790000000 1.0
C      1  0.5670190000000  0.4123420000000  0.4973710000000 1.0
C      1  0.5388280000000  0.5967990000000  0.5083530000000 1.0
C      1  0.3966910000000  0.4881740000000  0.5044540000000 1.0
C      1  0.4315990000000  0.4142280000000  0.5061450000000 1.0
C      1  0.4604530000000  0.6082400000000  0.5102520000000 1.0
C      1  0.6050000000000  0.4897960000000  0.5087870000000 1.0
C      1  0.4414370000000  0.5875460000000  0.4949630000000 1.0
C      1  0.4543610000000  0.4040970000000  0.4946740000000 1.0
C      1  0.6082710000000  0.5127470000000  0.4934510000000 1.0
C      1  0.4293230000000  0.5121420000000  0.4777140000000 1.0
C      1  0.5385000000000  0.5439130000000  0.4800730000000 1.0
C      1  0.5170140000000  0.4465250000000  0.4927190000000 1.0
C      1  0.4335680000000  0.4852410000000  0.5196020000000 1.0
C      1  0.5356230000000  0.4549200000000  0.5154340000000 1.0
C      1  0.5159890000000  0.5607480000000  0.5230190000000 1.0
C      1  0.5570510000000  0.4869900000000  0.5257250000000 1.0
C      1  0.4586750000000  0.4461020000000  0.5204220000000 1.0
C      1  0.4760870000000  0.5628290000000  0.5216230000000 1.0
C      1  0.5610870000000  0.5111390000000  0.4765230000000 1.0
C      1  0.4566870000000  0.5505720000000  0.4813860000000 1.0
C      1  0.4746740000000  0.4380110000000  0.4869560000000 1.0
C      1  0.5978550000000  0.4592890000000  0.5381730000000 1.0
C      1  0.4090350000000  0.4368370000000  0.5447660000000 1.0
C      1  0.4820650000000  0.6132390000000  0.5354670000000 1.0
C      1  0.5970630000000  0.5407400000000  0.4558890000000 1.0
C      1  0.4174320000000  0.5617550000000  0.4623530000000 1.0
C      1  0.4820610000000  0.3932350000000  0.4550200000000 1.0
C      1  0.4051500000000  0.5407620000000  0.4608820000000 1.0
C      1  0.5841490000000  0.5615210000000  0.4586770000000 1.0
C      1  0.5063820000000  0.3895070000000  0.4526640000000 1.0
C      1  0.3961490000000  0.4578440000000  0.5450120000000 1.0
C      1  0.5924400000000  0.4354910000000  0.5356870000000 1.0
C      1  0.5081950000000  0.6098960000000  0.5423400000000 1.0
C      1  0.5151380000000  0.5744180000000  0.5818050000000 1.0
C      1  0.5582190000000  0.4488440000000  0.5816410000000 1.0
C      1  0.4298840000000  0.4723890000000  0.5749600000000 1.0
C      1  0.5068370000000  0.4260400000000  0.4307100000000 1.0
C      1  0.5626780000000  0.5483320000000  0.4276600000000 1.0
C      1  0.4308530000000  0.5203620000000  0.4145460000000 1.0
C      1  0.4751240000000  0.4235560000000  0.4300440000000 1.0
C      1  0.4443130000000  0.5487270000000  0.4234990000000 1.0
C      1  0.5827600000000  0.5210400000000  0.4230730000000 1.0
C      1  0.4824830000000  0.5790640000000  0.5801730000000 1.0
C      1  0.4403630000000  0.4419220000000  0.5791150000000 1.0
C      1  0.5765350000000  0.4758060000000  0.5817550000000 1.0
C      1  0.4782930000000  0.5272310000000  0.4849090000000 1.0
C      1  0.5321750000000  0.4996030000000  0.4852210000000 1.0
C      1  0.4797480000000  0.4717500000000  0.4849510000000 1.0
C      1  0.4782240000000  0.4736560000000  0.5246200000000 1.0
C      1  0.5290920000000  0.5003650000000  0.5168400000000 1.0
C      1  0.4813080000000  0.5311070000000  0.5245100000000 1.0
C      1  0.5113640000000  0.4750590000000  0.5282040000000 1.0
C      1  0.4626670000000  0.5033210000000  0.5181200000000 1.0
C      1  0.5150240000000  0.5266860000000  0.5273720000000 1.0
C      1  0.5123040000000  0.5272590000000  0.4875930000000 1.0
C      1  0.4597150000000  0.4989600000000  0.4785710000000 1.0
C      1  0.5127910000000  0.4743530000000  0.4756240000000 1.0
C      1  0.4850160000000  0.4731180000000  0.5580790000000 1.0
C      1  0.4890560000000  0.5269580000000  0.5577560000000 1.0
C      1  0.5308190000000  0.4981050000000  0.5720590000000 1.0
C      1  0.4914300000000  0.5277960000000  0.4441340000000 1.0
C      1  0.4833620000000  0.4807630000000  0.4395420000000 1.0
C      1  0.5257550000000  0.4938090000000  0.4334990000000 1.0
C      1  0.5177220000000  0.5208050000000  0.4382970000000 1.0
C      1  0.5093370000000  0.4748080000000  0.4451620000000 1.0
C      1  0.4767250000000  0.5039770000000  0.4524120000000 1.0
C      1  0.5157730000000  0.4721610000000  0.5617520000000 1.0
C      1  0.5208900000000  0.5221900000000  0.5608100000000 1.0
C      1  0.4724150000000  0.5029050000000  0.5512250000000 1.0
C      1  0.4394260000000  0.5161840000000  0.4461430000000 1.0
C      1  0.5404220000000  0.5369570000000  0.4500170000000 1.0
C      1  0.5139010000000  0.4367640000000  0.4622940000000 1.0
C      1  0.4474910000000  0.4835210000000  0.5489980000000 1.0
C      1  0.5390540000000  0.4532760000000  0.5468820000000 1.0
C      1  0.5181930000000  0.5539300000000  0.5559620000000 1.0
C      1  0.5544620000000  0.4804860000000  0.5574830000000 1.0
C      1  0.4582770000000  0.4536010000000  0.5526590000000 1.0
C      1  0.4857340000000  0.5593400000000  0.5524560000000 1.0
C      1  0.5597840000000  0.5119230000000  0.4439620000000 1.0
C      1  0.4614990000000  0.5405530000000  0.4512160000000 1.0
C      1  0.4821840000000  0.4443560000000  0.4560000000000 1.0
C      1  0.4788190000000  0.4322430000000  0.5792920000000 1.0
C      1  0.4571070000000  0.5484450000000  0.5799730000000 1.0
C      1  0.5688700000000  0.5280940000000  0.5826010000000 1.0
C      1  0.4808650000000  0.5622890000000  0.4159360000000 1.0
C      1  0.4498130000000  0.4496980000000  0.4147760000000 1.0
C      1  0.5774360000000  0.4711460000000  0.4137440000000 1.0
C      1  0.5128000000000  0.5668090000000  0.4204020000000 1.0
C      1  0.5502990000000  0.4505000000000  0.4104230000000 1.0
C      1  0.4354080000000  0.4807900000000  0.4158020000000 1.0
C      1  0.5129780000000  0.4331850000000  0.5806820000000 1.0
C      1  0.5481690000000  0.5525320000000  0.5852240000000 1.0
C      1  0.4381610000000  0.5216910000000  0.5757030000000 1.0
C      1  0.4909680000000  0.5209880000000  0.6088000000000 1.0
C      1  0.5340520000000  0.4958200000000  0.6118130000000 1.0
C      1  0.4920440000000  0.4726090000000  0.6074650000000 1.0
C      1  0.4928490000000  0.4686760000000  0.3863790000000 1.0
C      1  0.5346970000000  0.4970150000000  0.3929720000000 1.0
C      1  0.4893580000000  0.5176960000000  0.3904670000000 1.0
C      1  0.5226640000000  0.4724050000000  0.3895950000000 1.0
C      1  0.4780740000000  0.4913830000000  0.3836690000000 1.0
C      1  0.5162220000000  0.5213700000000  0.3949100000000 1.0
C      1  0.5194540000000  0.5189120000000  0.6165050000000 1.0
C      1  0.4771930000000  0.4976600000000  0.6043270000000 1.0
C      1  0.5200800000000  0.4713400000000  0.6080470000000 1.0
C      1  0.4613760000000  0.5873450000000  0.5371520000000 1.0
C      1  0.5885120000000  0.4903960000000  0.5371090000000 1.0
C      1  0.4344960000000  0.4235910000000  0.5357660000000 1.0
C      1  0.4606070000000  0.4123350000000  0.4655380000000 1.0
C      1  0.5935920000000  0.5105630000000  0.4648490000000 1.0
C      1  0.4457460000000  0.5777180000000  0.4639650000000 1.0
C      1  0.5306020000000  0.4079800000000  0.4595610000000 1.0
C      1  0.4019390000000  0.5081710000000  0.4574340000000 1.0
C      1  0.5548060000000  0.5706050000000  0.4661580000000 1.0
C      1  0.5309510000000  0.5875260000000  0.5384300000000 1.0
C      1  0.4039810000000  0.4866310000000  0.5359820000000 1.0
C      1  0.5689530000000  0.4134080000000  0.5297350000000 1.0
C      1  0.4157010000000  0.4658060000000  0.4627460000000 1.0
C      1  0.5145420000000  0.6097630000000  0.4668030000000 1.0
C      1  0.5802050000000  0.4473890000000  0.4611530000000 1.0
C      1  0.3962090000000  0.5409250000000  0.5308530000000 1.0
C      1  0.5368140000000  0.4071660000000  0.5339230000000 1.0
C      1  0.5857020000000  0.5646510000000  0.5355500000000 1.0
C      1  0.6065020000000  0.5431860000000  0.5334110000000 1.0
C      1  0.4714890000000  0.4000650000000  0.5389950000000 1.0
C      1  0.4160210000000  0.5630530000000  0.5356090000000 1.0
C      1  0.5970010000000  0.4708890000000  0.4627960000000 1.0
C      1  0.4856160000000  0.6088990000000  0.4578070000000 1.0
C      1  0.4191630000000  0.4372020000000  0.4580500000000 1.0
C      1  0.5539530000000  0.4835710000000  0.4331820000000 1.0
C      1  0.4601020000000  0.4631200000000  0.4416950000000 1.0
C      1  0.4843630000000  0.5929910000000  0.4302950000000 1.0
C      1  0.5940060000000  0.5364160000000  0.5623230000000 1.0
C      1  0.4287840000000  0.5589660000000  0.5644990000000 1.0
C      1  0.4919280000000  0.4097600000000  0.5572640000000 1.0
C      1  0.4096120000000  0.5320980000000  0.5597930000000 1.0
C      1  0.5727220000000  0.5632580000000  0.5642070000000 1.0
C      1  0.5214260000000  0.4147590000000  0.5558790000000 1.0
C      1  0.4369420000000  0.4824380000000  0.4501260000000 1.0
C      1  0.5584890000000  0.4519610000000  0.4428760000000 1.0
C      1  0.5174330000000  0.5956970000000  0.4378540000000 1.0
C      1  0.4526030000000  0.5037850000000  0.3974990000000 1.0
C      1  0.5334290000000  0.5445720000000  0.4102770000000 1.0
C      1  0.5171070000000  0.4440430000000  0.4057910000000 1.0
C      1  0.4516960000000  0.4936040000000  0.5874640000000 1.0
C      1  0.5317700000000  0.4502350000000  0.5927620000000 1.0
C      1  0.5202140000000  0.5467500000000  0.6004050000000 1.0
C      1  0.5574560000000  0.5003300000000  0.5919760000000 1.0
C      1  0.4657190000000  0.4615800000000  0.5910270000000 1.0
C      1  0.4862510000000  0.5484100000000  0.5944010000000 1.0
C      1  0.5542970000000  0.5178030000000  0.4046690000000 1.0
C      1  0.4669320000000  0.5352120000000  0.4029770000000 1.0
C      1  0.4821500000000  0.4444000000000  0.4042620000000 1.0
C      1  0.4141690000000  0.5002170000000  0.5628800000000 1.0
C      1  0.5448630000000  0.5811170000000  0.5662390000000 1.0
C      1  0.5592250000000  0.4306810000000  0.5569360000000 1.0
C      1  0.4086200000000  0.4988200000000  0.4278810000000 1.0
C      1  0.5400920000000  0.4272370000000  0.4337260000000 1.0
C      1  0.5422150000000  0.5743110000000  0.4366040000000 1.0
C      1  0.5930330000000  0.4912320000000  0.4366630000000 1.0
C      1  0.4429430000000  0.4273210000000  0.4404180000000 1.0
C      1  0.4565620000000  0.5768990000000  0.4356580000000 1.0
C      1  0.5865310000000  0.5038660000000  0.5649760000000 1.0
C      1  0.4536560000000  0.5793670000000  0.5648430000000 1.0
C      1  0.4531430000000  0.4156410000000  0.5628220000000 1.0
C      1  0.4286930000000  0.5401680000000  0.4940670000000 1.0
C      1  0.4317680000000  0.4541860000000  0.5068540000000 1.0
C      1  0.5651470000000  0.4612260000000  0.5049600000000 1.0
C      1  0.5676840000000  0.5378280000000  0.4965580000000 1.0
C      1  0.4990980000000  0.4201150000000  0.5026130000000 1.0
C      1  0.4954510000000  0.5762690000000  0.5007120000000 1.0
C      1  0.4943900000000  0.4999000000000  0.4972480000000 1.0
END
