TITL C-2782238-9940-1175 -0.00215303738363863 125000 -321.908379741359 0 0 57 (Cs) n - 1
REM
REM in /home/nfs/bkarasulu/CARBON/AIRSS/Generating-Clusters/REBO/Higher-Symm/SD-CG/HFTN-CG
REM
REM
REM
REM
REM
REM ./C.cell (12c818d87b63d06a65506943cc24bca4)
REM
REM compiler GCC version 9.2.1 20190827 (Red Hat 9.2.1-1)
REM options -cpp -mtune=generic -march=x86-64 -g -O0 -fpre-include=/usr/include/finclude/math-vector-fortran.h
REM seed -363643380 -122306821 -1539531218 -1105328974 1449298457 1771343628 154805991 -1456222856 -1662086866 -530622849 221212939 314864307 815747343 1553494952 -1025193945 -840704928 -929964372 -967831104 1519211910 -598835683 1803430115 -2017983337 -679272029 1129689550 -745029355 1226594573 -1829533407 1737084691 -1660594330 -1479672503 -18365304 368789528 -246918102
REM
CELL 1.54180   50.00000   50.00000   50.00000   90.00000   90.00000   90.00000
LATT -1
SFAC C  
C      1  0.4830490000000  0.4652110000000  0.5613300000000 1.0
C      1  0.4827580000000  0.5730850000000  0.4956300000000 1.0
C      1  0.4828430000000  0.4667150000000  0.4388940000000 1.0
C      1  0.5146210000000  0.4652120000000  0.5613250000000 1.0
C      1  0.5148840000000  0.5730860000000  0.4956250000000 1.0
C      1  0.5147850000000  0.4667160000000  0.4388880000000 1.0
C      1  0.4829590000000  0.5432250000000  0.5466710000000 1.0
C      1  0.4826690000000  0.4346090000000  0.5104550000000 1.0
C      1  0.4827480000000  0.5258100000000  0.4334420000000 1.0
C      1  0.5147030000000  0.5432260000000  0.5466650000000 1.0
C      1  0.5149850000000  0.4346100000000  0.5104490000000 1.0
C      1  0.5148740000000  0.5258110000000  0.4334370000000 1.0
C      1  0.5659300000000  0.5200630000000  0.4720010000000 1.0
C      1  0.5655070000000  0.4590800000000  0.5002770000000 1.0
C      1  0.5673830000000  0.5170580000000  0.5360550000000 1.0
C      1  0.4317070000000  0.5200600000000  0.4720250000000 1.0
C      1  0.4321430000000  0.4590770000000  0.5003010000000 1.0
C      1  0.4302760000000  0.5170550000000  0.5360790000000 1.0
C      1  0.5656370000000  0.4961980000000  0.4655690000000 1.0
C      1  0.5654020000000  0.5358950000000  0.5199580000000 1.0
C      1  0.5678670000000  0.4663800000000  0.5239710000000 1.0
C      1  0.4319990000000  0.4961950000000  0.4655920000000 1.0
C      1  0.4322510000000  0.5358920000000  0.5199820000000 1.0
C      1  0.4297900000000  0.4663770000000  0.5239950000000 1.0
C      1  0.4753820000000  0.5170190000000  0.5538390000000 1.0
C      1  0.4739090000000  0.5429170000000  0.4543700000000 1.0
C      1  0.4716210000000  0.4393180000000  0.4837590000000 1.0
C      1  0.5222840000000  0.5170200000000  0.5538310000000 1.0
C      1  0.5237200000000  0.5429190000000  0.4543610000000 1.0
C      1  0.5260230000000  0.4393200000000  0.4837490000000 1.0
C      1  0.4661570000000  0.4872870000000  0.5624660000000 1.0
C      1  0.4641470000000  0.4531190000000  0.4543760000000 1.0
C      1  0.4637940000000  0.5613260000000  0.4783580000000 1.0
C      1  0.5315120000000  0.4872890000000  0.5624540000000 1.0
C      1  0.5334870000000  0.4531210000000  0.4543640000000 1.0
C      1  0.5338420000000  0.5613280000000  0.4783460000000 1.0
C      1  0.4439900000000  0.4894790000000  0.5388770000000 1.0
C      1  0.5536710000000  0.4894810000000  0.5388580000000 1.0
C      1  0.4457700000000  0.5388120000000  0.4925400000000 1.0
C      1  0.5517120000000  0.4703170000000  0.4751550000000 1.0
C      1  0.4459270000000  0.4703140000000  0.4751730000000 1.0
C      1  0.5518730000000  0.5388150000000  0.4925220000000 1.0
C      1  0.4727690000000  0.4912710000000  0.5234470000000 1.0
C      1  0.4784460000000  0.4785290000000  0.4816220000000 1.0
C      1  0.5191960000000  0.4785300000000  0.4816150000000 1.0
C      1  0.5248870000000  0.4912730000000  0.5234370000000 1.0
C      1  0.5195540000000  0.5279080000000  0.4946310000000 1.0
C      1  0.4780910000000  0.5279070000000  0.4946380000000 1.0
C      1  0.4988200000000  0.4554110000000  0.4737410000000 1.0
C      1  0.4988310000000  0.4958190000000  0.5411250000000 1.0
C      1  0.4988180000000  0.5425190000000  0.4756830000000 1.0
C      1  0.4988320000000  0.4457180000000  0.5382860000000 1.0
C      1  0.4988260000000  0.5629740000000  0.5239110000000 1.0
C      1  0.4988120000000  0.4958330000000  0.4313140000000 1.0
C      1  0.4594940000000  0.5016020000000  0.4954170000000 1.0
C      1  0.5381520000000  0.5016040000000  0.4954040000000 1.0
C      1  0.4988240000000  0.4998850000000  0.5013410000000 1.0
END
