TITL C-2782238-9940-421 -0.000213274244225599 125000 -873.754291744317 0 0 152 (C1) n - 1
REM
REM in /home/nfs/bkarasulu/CARBON/AIRSS/Generating-Clusters/REBO/Higher-Symm/SD-CG/HFTN-CG
REM
REM
REM
REM
REM
REM ./C.cell (12c818d87b63d06a65506943cc24bca4)
REM
REM compiler GCC version 9.2.1 20190827 (Red Hat 9.2.1-1)
REM options -cpp -mtune=generic -march=x86-64 -g -O0 -fpre-include=/usr/include/finclude/math-vector-fortran.h
REM seed 963893837 283740272 -123323410 2091031884 -567866445 -533142648 789444611 1968717606 417603816 1037567624 -462877452 -1629119728 -302641253 543999308 1998620206 536626520 -1147414867 -580156986 2013926644 -517941279 -2001683500 390138439 -775485065 -78316847 1315249266 -1870001674 -1792770033 798201539 -1444046108 -381360567 831690343 1633195681 2074692367
REM
CELL 1.54180   50.00000   50.00000   50.00000   90.00000   90.00000   90.00000
LATT -1
SFAC C  
C      1  0.4361430000000  0.4811510000000  0.5687850000000 1.0
C      1  0.5026330000000  0.5424060000000  0.5940980000000 1.0
C      1  0.4760400000000  0.5274810000000  0.3989440000000 1.0
C      1  0.4706910000000  0.4155140000000  0.5032810000000 1.0
C      1  0.5742580000000  0.4087490000000  0.4904490000000 1.0
C      1  0.5049740000000  0.5339640000000  0.4106760000000 1.0
C      1  0.5539570000000  0.5764710000000  0.4869670000000 1.0
C      1  0.4597550000000  0.4696450000000  0.5869990000000 1.0
C      1  0.5563720000000  0.4238840000000  0.4764820000000 1.0
C      1  0.5176710000000  0.5027140000000  0.4149340000000 1.0
C      1  0.4122610000000  0.5294860000000  0.4491070000000 1.0
C      1  0.4370780000000  0.4396120000000  0.5030890000000 1.0
C      1  0.4765090000000  0.5475400000000  0.5740450000000 1.0
C      1  0.5829780000000  0.4426220000000  0.5261240000000 1.0
C      1  0.5277980000000  0.4180630000000  0.4637490000000 1.0
C      1  0.5059990000000  0.5651930000000  0.5162970000000 1.0
C      1  0.5228560000000  0.5401900000000  0.5273820000000 1.0
C      1  0.5480350000000  0.5421020000000  0.4651400000000 1.0
C      1  0.5369880000000  0.4993930000000  0.4877810000000 1.0
C      1  0.4965650000000  0.5401400000000  0.4527580000000 1.0
C      1  0.5326280000000  0.4752740000000  0.4498360000000 1.0
C      1  0.4277740000000  0.4356200000000  0.4769970000000 1.0
C      1  0.4483970000000  0.4040890000000  0.5172790000000 1.0
C      1  0.5546640000000  0.5470710000000  0.5042270000000 1.0
C      1  0.5474600000000  0.5065490000000  0.4300050000000 1.0
C      1  0.4681450000000  0.4937050000000  0.4389000000000 1.0
C      1  0.4789380000000  0.4416970000000  0.4579930000000 1.0
C      1  0.4573060000000  0.4755740000000  0.4121290000000 1.0
C      1  0.5891890000000  0.5321010000000  0.4917840000000 1.0
C      1  0.4324700000000  0.5140290000000  0.5695990000000 1.0
C      1  0.5555760000000  0.4611470000000  0.5214470000000 1.0
C      1  0.4423970000000  0.5466370000000  0.5136550000000 1.0
C      1  0.4963530000000  0.4080130000000  0.5130560000000 1.0
C      1  0.4926480000000  0.4833820000000  0.5451910000000 1.0
C      1  0.5633730000000  0.4875150000000  0.5056640000000 1.0
C      1  0.4585040000000  0.5242240000000  0.5864850000000 1.0
C      1  0.5542800000000  0.4866970000000  0.5930450000000 1.0
C      1  0.5898330000000  0.4994780000000  0.5529020000000 1.0
C      1  0.4431890000000  0.5411150000000  0.5529250000000 1.0
C      1  0.4208770000000  0.5267010000000  0.5317950000000 1.0
C      1  0.5273080000000  0.4564570000000  0.4755690000000 1.0
C      1  0.5722180000000  0.4751160000000  0.5678620000000 1.0
C      1  0.4203110000000  0.5625850000000  0.4960030000000 1.0
C      1  0.4952990000000  0.4159860000000  0.4653580000000 1.0
C      1  0.4201190000000  0.4978200000000  0.5036790000000 1.0
C      1  0.4489410000000  0.5069160000000  0.3998710000000 1.0
C      1  0.4458260000000  0.4931060000000  0.5225980000000 1.0
C      1  0.5335840000000  0.5789920000000  0.4619640000000 1.0
C      1  0.5215750000000  0.4110420000000  0.4967990000000 1.0
C      1  0.4889150000000  0.5145610000000  0.5306260000000 1.0
C      1  0.5248270000000  0.4070530000000  0.5516650000000 1.0
C      1  0.4565800000000  0.5268320000000  0.4935080000000 1.0
C      1  0.4767370000000  0.4965950000000  0.3845690000000 1.0
C      1  0.5718640000000  0.4145250000000  0.5173380000000 1.0
C      1  0.4062320000000  0.5438330000000  0.4779230000000 1.0
C      1  0.3940410000000  0.4826220000000  0.4705750000000 1.0
C      1  0.6088720000000  0.4979170000000  0.4883130000000 1.0
C      1  0.5309780000000  0.4290180000000  0.4317190000000 1.0
C      1  0.4782950000000  0.5072960000000  0.4663740000000 1.0
C      1  0.5275060000000  0.5465980000000  0.4882130000000 1.0
C      1  0.5698800000000  0.5489510000000  0.5528760000000 1.0
C      1  0.5558300000000  0.5030570000000  0.5566390000000 1.0
C      1  0.5321360000000  0.5605630000000  0.5518200000000 1.0
C      1  0.4293780000000  0.4620190000000  0.4570330000000 1.0
C      1  0.5597190000000  0.4752750000000  0.4284290000000 1.0
C      1  0.4892810000000  0.4636430000000  0.5725750000000 1.0
C      1  0.4580580000000  0.5144080000000  0.5388720000000 1.0
C      1  0.4642130000000  0.5318210000000  0.4500850000000 1.0
C      1  0.5801220000000  0.5038070000000  0.4734090000000 1.0
C      1  0.5983320000000  0.4616790000000  0.4754930000000 1.0
C      1  0.5410070000000  0.4685890000000  0.5437400000000 1.0
C      1  0.4888790000000  0.6056560000000  0.4493720000000 1.0
C      1  0.4836550000000  0.5561880000000  0.4256380000000 1.0
C      1  0.4877140000000  0.5746320000000  0.4903980000000 1.0
C      1  0.5108950000000  0.6134700000000  0.5390110000000 1.0
C      1  0.5422950000000  0.4134810000000  0.5236930000000 1.0
C      1  0.4341110000000  0.5160960000000  0.4710060000000 1.0
C      1  0.6056830000000  0.5191220000000  0.5395510000000 1.0
C      1  0.4851690000000  0.5147970000000  0.4983720000000 1.0
C      1  0.4142150000000  0.4967950000000  0.5466810000000 1.0
C      1  0.5423020000000  0.5569490000000  0.4396420000000 1.0
C      1  0.5521600000000  0.5282890000000  0.5394010000000 1.0
C      1  0.4719330000000  0.5811280000000  0.4457240000000 1.0
C      1  0.5073360000000  0.4482410000000  0.4981180000000 1.0
C      1  0.5160730000000  0.5201460000000  0.5019400000000 1.0
C      1  0.5277990000000  0.4855230000000  0.5993190000000 1.0
C      1  0.4535310000000  0.5930460000000  0.4984570000000 1.0
C      1  0.5076980000000  0.4837530000000  0.4798070000000 1.0
C      1  0.5149250000000  0.4713660000000  0.4051470000000 1.0
C      1  0.4066950000000  0.5255180000000  0.5015170000000 1.0
C      1  0.4219570000000  0.4473190000000  0.5298490000000 1.0
C      1  0.4272480000000  0.4730710000000  0.4282570000000 1.0
C      1  0.3899750000000  0.4739020000000  0.4935030000000 1.0
C      1  0.4835490000000  0.3934100000000  0.4725230000000 1.0
C      1  0.5149940000000  0.4442860000000  0.5613460000000 1.0
C      1  0.5518120000000  0.5130870000000  0.4609100000000 1.0
C      1  0.4610680000000  0.4382360000000  0.5836990000000 1.0
C      1  0.5016790000000  0.4858630000000  0.4399100000000 1.0
C      1  0.4336940000000  0.4851150000000  0.4751390000000 1.0
C      1  0.4967170000000  0.4101100000000  0.5431810000000 1.0
C      1  0.5545450000000  0.4522890000000  0.4890780000000 1.0
C      1  0.4423140000000  0.4691660000000  0.5406850000000 1.0
C      1  0.5244870000000  0.4892880000000  0.5566720000000 1.0
C      1  0.5462370000000  0.4311040000000  0.5596780000000 1.0
C      1  0.4764410000000  0.4975540000000  0.5975810000000 1.0
C      1  0.4372190000000  0.5048970000000  0.4299090000000 1.0
C      1  0.4709740000000  0.4574690000000  0.5363420000000 1.0
C      1  0.4872350000000  0.4701410000000  0.3966000000000 1.0
C      1  0.4417260000000  0.4211150000000  0.5383970000000 1.0
C      1  0.5378230000000  0.4558700000000  0.4154550000000 1.0
C      1  0.5214190000000  0.5150450000000  0.5731350000000 1.0
C      1  0.4538430000000  0.5402070000000  0.4212000000000 1.0
C      1  0.5063980000000  0.5613890000000  0.4714610000000 1.0
C      1  0.5101990000000  0.5120510000000  0.4610110000000 1.0
C      1  0.4591130000000  0.5675990000000  0.5546870000000 1.0
C      1  0.4085190000000  0.4958180000000  0.4461080000000 1.0
C      1  0.5052240000000  0.5093090000000  0.6021770000000 1.0
C      1  0.4988970000000  0.5317460000000  0.5558410000000 1.0
C      1  0.4908460000000  0.4542320000000  0.4336220000000 1.0
C      1  0.5497770000000  0.5814430000000  0.5415950000000 1.0
C      1  0.5711280000000  0.4461220000000  0.5565290000000 1.0
C      1  0.5809780000000  0.5717030000000  0.5316160000000 1.0
C      1  0.5896110000000  0.4657870000000  0.5018790000000 1.0
C      1  0.4615880000000  0.5904450000000  0.5314950000000 1.0
C      1  0.5081990000000  0.4694210000000  0.5212490000000 1.0
C      1  0.5361700000000  0.5371260000000  0.4199730000000 1.0
C      1  0.4705510000000  0.4289560000000  0.5540850000000 1.0
C      1  0.5155750000000  0.4615490000000  0.5906500000000 1.0
C      1  0.4829580000000  0.4603810000000  0.4815000000000 1.0
C      1  0.5864550000000  0.4668280000000  0.4478130000000 1.0
C      1  0.4706800000000  0.5009040000000  0.5648290000000 1.0
C      1  0.5825010000000  0.5645550000000  0.4999650000000 1.0
C      1  0.5998870000000  0.5466290000000  0.5460830000000 1.0
C      1  0.4566800000000  0.4842250000000  0.4956470000000 1.0
C      1  0.5616370000000  0.4753110000000  0.4679700000000 1.0
C      1  0.4054610000000  0.4746070000000  0.5238250000000 1.0
C      1  0.5284580000000  0.5482800000000  0.5766870000000 1.0
C      1  0.5653880000000  0.5174460000000  0.5113020000000 1.0
C      1  0.5120220000000  0.6013590000000  0.4734170000000 1.0
C      1  0.4717320000000  0.5629220000000  0.5170600000000 1.0
C      1  0.4681410000000  0.4473690000000  0.5060540000000 1.0
C      1  0.5200510000000  0.4386570000000  0.5280250000000 1.0
C      1  0.5257950000000  0.5879020000000  0.4999890000000 1.0
C      1  0.6109890000000  0.5153400000000  0.5120150000000 1.0
C      1  0.4792500000000  0.6048310000000  0.4814750000000 1.0
C      1  0.5332110000000  0.6003440000000  0.5274140000000 1.0
C      1  0.4839090000000  0.6107910000000  0.5393040000000 1.0
C      1  0.4542240000000  0.5764210000000  0.4687960000000 1.0
C      1  0.5040900000000  0.4352130000000  0.4192380000000 1.0
C      1  0.4499350000000  0.4359390000000  0.4545120000000 1.0
C      1  0.4255010000000  0.5425860000000  0.4238090000000 1.0
C      1  0.4467080000000  0.5481060000000  0.4699500000000 1.0
END
