TITL C-2782237-5345-1045 -0.000254380466465714 125000 -901.175714863979 0 0 157 (C1) n - 1
REM
REM in /home/nfs/bkarasulu/CARBON/AIRSS/Generating-Clusters/REBO/Higher-Symm/SD-CG/HFTN-CG
REM
REM
REM
REM
REM
REM ./C.cell (12c818d87b63d06a65506943cc24bca4)
REM
REM compiler GCC version 9.2.1 20190827 (Red Hat 9.2.1-1)
REM options -cpp -mtune=generic -march=x86-64 -g -O0 -fpre-include=/usr/include/finclude/math-vector-fortran.h
REM seed 1058444324 -109781329 710838601 -496751975 -1786438679 -168681576 -140873857 151720416 -883721364 1702722437 -135550685 429228250 879415420 1627688028 1191702117 615874450 866689756 1284578824 -440228769 185743005 -304993410 874693871 2054123743 615222280 45884728 1991991223 2144531273 210339474 668642355 -891918352 -1021554008 -1729874881 -647325121
REM
CELL 1.54180   50.00000   50.00000   50.00000   90.00000   90.00000   90.00000
LATT -1
SFAC C  
C      1  0.4606050000000  0.4838120000000  0.5413020000000 1.0
C      1  0.4851130000000  0.4874970000000  0.4370320000000 1.0
C      1  0.5668640000000  0.4929730000000  0.5144850000000 1.0
C      1  0.4548320000000  0.5153300000000  0.5458430000000 1.0
C      1  0.4832040000000  0.5188740000000  0.4400760000000 1.0
C      1  0.5660920000000  0.5250550000000  0.5114410000000 1.0
C      1  0.4591940000000  0.4783980000000  0.4510590000000 1.0
C      1  0.4763480000000  0.4907570000000  0.5685740000000 1.0
C      1  0.5635510000000  0.4831740000000  0.4843940000000 1.0
C      1  0.4570670000000  0.5097910000000  0.4547900000000 1.0
C      1  0.4789440000000  0.5222150000000  0.5641810000000 1.0
C      1  0.5666490000000  0.5151570000000  0.4813130000000 1.0
C      1  0.4474690000000  0.5619210000000  0.4770490000000 1.0
C      1  0.5456860000000  0.5615120000000  0.4721180000000 1.0
C      1  0.5027790000000  0.5567840000000  0.5587470000000 1.0
C      1  0.4531730000000  0.4356120000000  0.4668460000000 1.0
C      1  0.5509330000000  0.4453450000000  0.4734900000000 1.0
C      1  0.4955440000000  0.4379220000000  0.5530010000000 1.0
C      1  0.4526590000000  0.5649740000000  0.5348380000000 1.0
C      1  0.5503080000000  0.5591770000000  0.5248920000000 1.0
C      1  0.4937890000000  0.5566940000000  0.4466810000000 1.0
C      1  0.4489650000000  0.4408410000000  0.5240150000000 1.0
C      1  0.5463410000000  0.4435700000000  0.5293390000000 1.0
C      1  0.5023070000000  0.4353510000000  0.4436600000000 1.0
C      1  0.4715430000000  0.5425670000000  0.5873370000000 1.0
C      1  0.4475010000000  0.5381070000000  0.4374940000000 1.0
C      1  0.5900380000000  0.5400980000000  0.4835190000000 1.0
C      1  0.4717410000000  0.4635010000000  0.5864420000000 1.0
C      1  0.4417540000000  0.4598780000000  0.4315250000000 1.0
C      1  0.5907110000000  0.4649510000000  0.4807340000000 1.0
C      1  0.4747810000000  0.5387810000000  0.4163910000000 1.0
C      1  0.4430800000000  0.5389270000000  0.5680140000000 1.0
C      1  0.5952950000000  0.5389730000000  0.5176440000000 1.0
C      1  0.4739460000000  0.4606780000000  0.4186230000000 1.0
C      1  0.4458750000000  0.4641130000000  0.5636780000000 1.0
C      1  0.5861170000000  0.4651360000000  0.5148670000000 1.0
C      1  0.4984830000000  0.5374950000000  0.5330650000000 1.0
C      1  0.4671260000000  0.5403670000000  0.4883680000000 1.0
C      1  0.5234610000000  0.5403550000000  0.4850560000000 1.0
C      1  0.4968420000000  0.4576330000000  0.5272350000000 1.0
C      1  0.4747290000000  0.4567350000000  0.4802160000000 1.0
C      1  0.5280520000000  0.4649140000000  0.4851790000000 1.0
C      1  0.4927480000000  0.5381820000000  0.4735470000000 1.0
C      1  0.4713460000000  0.5418430000000  0.5208630000000 1.0
C      1  0.5252820000000  0.5399380000000  0.5140440000000 1.0
C      1  0.5001600000000  0.4588400000000  0.4666360000000 1.0
C      1  0.4719490000000  0.4591350000000  0.5121330000000 1.0
C      1  0.5265790000000  0.4648850000000  0.5156100000000 1.0
C      1  0.5306060000000  0.4846390000000  0.5790120000000 1.0
C      1  0.4184660000000  0.4915700000000  0.4831730000000 1.0
C      1  0.5605650000000  0.4787470000000  0.4337800000000 1.0
C      1  0.5285530000000  0.5172310000000  0.5838670000000 1.0
C      1  0.4133510000000  0.5251930000000  0.4855000000000 1.0
C      1  0.5585690000000  0.5126160000000  0.4361960000000 1.0
C      1  0.5325320000000  0.4889960000000  0.4171150000000 1.0
C      1  0.4153650000000  0.4781030000000  0.5145220000000 1.0
C      1  0.5614240000000  0.4777850000000  0.5663820000000 1.0
C      1  0.5318940000000  0.5211760000000  0.4167740000000 1.0
C      1  0.4132290000000  0.5115200000000  0.5170830000000 1.0
C      1  0.5569590000000  0.5111040000000  0.5651660000000 1.0
C      1  0.4181240000000  0.5552980000000  0.4892320000000 1.0
C      1  0.5444430000000  0.5495450000000  0.4419000000000 1.0
C      1  0.5287540000000  0.5461610000000  0.5741980000000 1.0
C      1  0.4243190000000  0.4420860000000  0.4805350000000 1.0
C      1  0.5553280000000  0.4505340000000  0.4418760000000 1.0
C      1  0.5205510000000  0.4468790000000  0.5713180000000 1.0
C      1  0.4229180000000  0.5617010000000  0.5207050000000 1.0
C      1  0.5542630000000  0.5498630000000  0.5557780000000 1.0
C      1  0.5162330000000  0.5470280000000  0.4269440000000 1.0
C      1  0.4202780000000  0.4490290000000  0.5115050000000 1.0
C      1  0.5493260000000  0.4510100000000  0.5602940000000 1.0
C      1  0.5290870000000  0.4415460000000  0.4267360000000 1.0
C      1  0.5698010000000  0.4106650000000  0.4673900000000 1.0
C      1  0.4915890000000  0.4086260000000  0.5798520000000 1.0
C      1  0.4343530000000  0.4033490000000  0.4527500000000 1.0
C      1  0.5688250000000  0.5902350000000  0.4566630000000 1.0
C      1  0.5087910000000  0.5908300000000  0.5788260000000 1.0
C      1  0.4298450000000  0.5955920000000  0.4651370000000 1.0
C      1  0.5646700000000  0.4100640000000  0.5409080000000 1.0
C      1  0.5017640000000  0.4021710000000  0.4214540000000 1.0
C      1  0.4298140000000  0.4078380000000  0.5357000000000 1.0
C      1  0.5744110000000  0.5895730000000  0.5345550000000 1.0
C      1  0.4960770000000  0.5905750000000  0.4256170000000 1.0
C      1  0.4366530000000  0.5979000000000  0.5505680000000 1.0
C      1  0.5052670000000  0.6102960000000  0.4642230000000 1.0
C      1  0.5296200000000  0.6128090000000  0.5090370000000 1.0
C      1  0.4771320000000  0.6137040000000  0.5084600000000 1.0
C      1  0.5088700000000  0.3811370000000  0.4698760000000 1.0
C      1  0.5254430000000  0.3894660000000  0.5194980000000 1.0
C      1  0.4767960000000  0.3883220000000  0.5096820000000 1.0
C      1  0.5027910000000  0.6090840000000  0.5235940000000 1.0
C      1  0.5308870000000  0.6158720000000  0.4790650000000 1.0
C      1  0.4781500000000  0.6120480000000  0.4781470000000 1.0
C      1  0.4984300000000  0.3818890000000  0.5296490000000 1.0
C      1  0.5286560000000  0.3931020000000  0.4893710000000 1.0
C      1  0.4808360000000  0.3838800000000  0.4797220000000 1.0
C      1  0.4265720000000  0.5935600000000  0.5248960000000 1.0
C      1  0.5212650000000  0.5789670000000  0.4279770000000 1.0
C      1  0.5590090000000  0.5825570000000  0.5560630000000 1.0
C      1  0.4220600000000  0.4151160000000  0.5096070000000 1.0
C      1  0.5278930000000  0.4090470000000  0.4279350000000 1.0
C      1  0.5459910000000  0.4182490000000  0.5602860000000 1.0
C      1  0.4224030000000  0.5890910000000  0.4920130000000 1.0
C      1  0.5329530000000  0.5789640000000  0.5726570000000 1.0
C      1  0.5499790000000  0.5824100000000  0.4384220000000 1.0
C      1  0.4248040000000  0.4097410000000  0.4779050000000 1.0
C      1  0.5183530000000  0.4142090000000  0.5755620000000 1.0
C      1  0.5538660000000  0.4169170000000  0.4455590000000 1.0
C      1  0.4698490000000  0.5699160000000  0.4286380000000 1.0
C      1  0.5784980000000  0.5663980000000  0.5113360000000 1.0
C      1  0.4520100000000  0.5717130000000  0.5661570000000 1.0
C      1  0.4789810000000  0.4272870000000  0.4229270000000 1.0
C      1  0.5754870000000  0.4340120000000  0.5194190000000 1.0
C      1  0.4439370000000  0.4319980000000  0.5548130000000 1.0
C      1  0.4814140000000  0.5726000000000  0.5791760000000 1.0
C      1  0.5754240000000  0.5689210000000  0.4804250000000 1.0
C      1  0.4435230000000  0.5707960000000  0.4461720000000 1.0
C      1  0.4703350000000  0.4337420000000  0.5721470000000 1.0
C      1  0.5786440000000  0.4354100000000  0.4881820000000 1.0
C      1  0.4502890000000  0.4281230000000  0.4357450000000 1.0
C      1  0.4988980000000  0.4838320000000  0.5915740000000 1.0
C      1  0.4267660000000  0.4840560000000  0.4509340000000 1.0
C      1  0.5820970000000  0.4878050000000  0.4567200000000 1.0
C      1  0.4954820000000  0.5179980000000  0.5919000000000 1.0
C      1  0.4251890000000  0.5181600000000  0.4543750000000 1.0
C      1  0.5857560000000  0.5216210000000  0.4549130000000 1.0
C      1  0.5003870000000  0.4804790000000  0.4091490000000 1.0
C      1  0.4277110000000  0.4860810000000  0.5442170000000 1.0
C      1  0.5816460000000  0.4850220000000  0.5426400000000 1.0
C      1  0.4989280000000  0.5146950000000  0.4112880000000 1.0
C      1  0.4222740000000  0.5194300000000  0.5490550000000 1.0
C      1  0.5804200000000  0.5191430000000  0.5414460000000 1.0
C      1  0.5036720000000  0.5050790000000  0.5384450000000 1.0
C      1  0.4489860000000  0.5128980000000  0.4918840000000 1.0
C      1  0.5358370000000  0.5214720000000  0.4596040000000 1.0
C      1  0.5100420000000  0.4751640000000  0.5541900000000 1.0
C      1  0.4432600000000  0.4691610000000  0.4859590000000 1.0
C      1  0.5231440000000  0.4915010000000  0.4669720000000 1.0
C      1  0.5008420000000  0.5092190000000  0.4744060000000 1.0
C      1  0.4385810000000  0.5333590000000  0.5153690000000 1.0
C      1  0.5389270000000  0.5238270000000  0.5397010000000 1.0
C      1  0.5208430000000  0.4706420000000  0.4420110000000 1.0
C      1  0.4648190000000  0.4887120000000  0.5020140000000 1.0
C      1  0.5315640000000  0.4929580000000  0.5286970000000 1.0
C      1  0.5253600000000  0.5820750000000  0.4840380000000 1.0
C      1  0.5024940000000  0.5772460000000  0.5347140000000 1.0
C      1  0.4703280000000  0.5802060000000  0.4881460000000 1.0
C      1  0.5294800000000  0.4250640000000  0.4839500000000 1.0
C      1  0.4977690000000  0.4165090000000  0.5295340000000 1.0
C      1  0.4726060000000  0.4166300000000  0.4818640000000 1.0
C      1  0.5285510000000  0.5796450000000  0.5167700000000 1.0
C      1  0.4967860000000  0.5778050000000  0.4701490000000 1.0
C      1  0.4739810000000  0.5817250000000  0.5201470000000 1.0
C      1  0.5270280000000  0.4229980000000  0.5157530000000 1.0
C      1  0.5029350000000  0.4151170000000  0.4681340000000 1.0
C      1  0.4690860000000  0.4193920000000  0.5131910000000 1.0
C      1  0.4841620000000  0.5042000000000  0.5163310000000 1.0
END
