TITL C-2782240-8521-965 5.59536085939047e-07 125000 -210.970613990455 0 0 35 (D2) n - 1
REM
REM in /home/nfs/bkarasulu/CARBON/AIRSS/Generating-Clusters/REBO/Higher-Symm/SD-CG/HFTN-CG
REM
REM
REM
REM
REM
REM ./C.cell (12c818d87b63d06a65506943cc24bca4)
REM
REM compiler GCC version 9.2.1 20190827 (Red Hat 9.2.1-1)
REM options -cpp -mtune=generic -march=x86-64 -g -O0 -fpre-include=/usr/include/finclude/math-vector-fortran.h
REM seed 362381695 1975565653 221349578 -1552730662 795168641 810545077 -1640672357 -946293552 887163873 -1549363568 -1452817268 1063976984 1910232229 -1922811612 734945999 202179704 822609742 -1323044913 972314076 1281922225 -399594279 -1716871129 501162107 151750941 1207927511 -1720545527 417339904 -1414241714 204601707 -714783541 1760699110 1257030200 -952441562
REM
CELL 1.54180   50.00000   50.00000   50.00000   90.00000   90.00000   90.00000
LATT -1
SFAC C  
C      1  0.4538880000000  0.4969490000000  0.4721200000000 1.0
C      1  0.4536580000000  0.5033630000000  0.5274120000000 1.0
C      1  0.5423840000000  0.4982820000000  0.5276950000000 1.0
C      1  0.5424720000000  0.5040920000000  0.4723350000000 1.0
C      1  0.4438640000000  0.4468190000000  0.4703820000000 1.0
C      1  0.4424620000000  0.5532460000000  0.5290900000000 1.0
C      1  0.5535680000000  0.4484200000000  0.5299810000000 1.0
C      1  0.5525060000000  0.5542010000000  0.4701090000000 1.0
C      1  0.5454520000000  0.5672500000000  0.4929700000000 1.0
C      1  0.5469470000000  0.4352120000000  0.5070810000000 1.0
C      1  0.4492140000000  0.5662040000000  0.5060860000000 1.0
C      1  0.4507870000000  0.4340200000000  0.4934250000000 1.0
C      1  0.4460800000000  0.4722330000000  0.4607390000000 1.0
C      1  0.4452140000000  0.5278900000000  0.5387470000000 1.0
C      1  0.5507610000000  0.4738800000000  0.5393450000000 1.0
C      1  0.5503450000000  0.5286830000000  0.4607310000000 1.0
C      1  0.4814550000000  0.4632670000000  0.5212340000000 1.0
C      1  0.4807100000000  0.5376800000000  0.4784520000000 1.0
C      1  0.5156120000000  0.4634320000000  0.4789570000000 1.0
C      1  0.5146230000000  0.5383070000000  0.5209200000000 1.0
C      1  0.4640900000000  0.5597780000000  0.4841020000000 1.0
C      1  0.4653850000000  0.4407890000000  0.5154910000000 1.0
C      1  0.5307270000000  0.5607220000000  0.5150250000000 1.0
C      1  0.5321990000000  0.4413970000000  0.4849440000000 1.0
C      1  0.4750570000000  0.5139730000000  0.4616730000000 1.0
C      1  0.4751580000000  0.4868350000000  0.5379780000000 1.0
C      1  0.5208230000000  0.5149230000000  0.5379560000000 1.0
C      1  0.5213620000000  0.4869550000000  0.4619540000000 1.0
C      1  0.4977750000000  0.5286980000000  0.4997370000000 1.0
C      1  0.4984250000000  0.4726450000000  0.5000440000000 1.0
C      1  0.4480200000000  0.5000890000000  0.4997500000000 1.0
C      1  0.5481800000000  0.5012540000000  0.5000310000000 1.0
C      1  0.4982400000000  0.5004060000000  0.4512140000000 1.0
C      1  0.4979600000000  0.5009370000000  0.5485670000000 1.0
C      1  0.4981000000000  0.5006710000000  0.4998900000000 1.0
END
