TITL C-2782232-2968-127 4.55924338950855e-05 125000 -430.376265280572 0 0 75 (C1) n - 1
REM
REM in /home/nfs/bkarasulu/CARBON/AIRSS/Generating-Clusters/REBO/Higher-Symm/SD-CG/HFTN-CG
REM
REM
REM
REM
REM
REM ./C.cell (12c818d87b63d06a65506943cc24bca4)
REM
REM compiler GCC version 9.2.1 20190827 (Red Hat 9.2.1-1)
REM options -cpp -mtune=generic -march=x86-64 -g -O0 -fpre-include=/usr/include/finclude/math-vector-fortran.h
REM seed -113497089 -1977780382 1313890873 -568418544 2125646743 -1754928209 1922787801 803767641 1306435614 1621639775 -119369709 1546299919 -2122497697 1354691897 -1426748483 1275633080 2008017159 -1507257720 -1449531522 554444013 -1159722905 -412287424 1983368896 -981373005 556923658 -1192795045 -461893781 726422955 1269795803 -1483990414 564734311 -979400279 1870574690
REM
CELL 1.54180   50.00000   50.00000   50.00000   90.00000   90.00000   90.00000
LATT -1
SFAC C  
C      1  0.4779120000000  0.4844820000000  0.5240430000000 1.0
C      1  0.4788610000000  0.5166740000000  0.4764040000000 1.0
C      1  0.5199650000000  0.4838220000000  0.5234640000000 1.0
C      1  0.5196780000000  0.5156190000000  0.4761270000000 1.0
C      1  0.4778330000000  0.4841620000000  0.4765930000000 1.0
C      1  0.4786080000000  0.5170020000000  0.5236630000000 1.0
C      1  0.5192490000000  0.4831360000000  0.4763900000000 1.0
C      1  0.5185690000000  0.5162910000000  0.5252050000000 1.0
C      1  0.5466820000000  0.4377460000000  0.5328980000000 1.0
C      1  0.5467650000000  0.5622210000000  0.4664880000000 1.0
C      1  0.4527220000000  0.4365320000000  0.5358770000000 1.0
C      1  0.4530400000000  0.5618730000000  0.4664990000000 1.0
C      1  0.5452750000000  0.4371260000000  0.4651670000000 1.0
C      1  0.5452060000000  0.5627510000000  0.5364710000000 1.0
C      1  0.4513310000000  0.4365140000000  0.4655010000000 1.0
C      1  0.4516800000000  0.5617480000000  0.5332360000000 1.0
C      1  0.5452690000000  0.4826360000000  0.4404720000000 1.0
C      1  0.5453010000000  0.5169530000000  0.5602230000000 1.0
C      1  0.4521740000000  0.4853160000000  0.4452490000000 1.0
C      1  0.4523750000000  0.5169000000000  0.5593320000000 1.0
C      1  0.5460390000000  0.4858150000000  0.5547260000000 1.0
C      1  0.5460080000000  0.5138820000000  0.4455630000000 1.0
C      1  0.4527260000000  0.4855570000000  0.5554240000000 1.0
C      1  0.4529080000000  0.5166760000000  0.4411990000000 1.0
C      1  0.5153640000000  0.4347220000000  0.5476350000000 1.0
C      1  0.5156430000000  0.5653060000000  0.4511820000000 1.0
C      1  0.4847120000000  0.4351280000000  0.5494260000000 1.0
C      1  0.4846910000000  0.5659290000000  0.4526120000000 1.0
C      1  0.5133090000000  0.4336250000000  0.4522440000000 1.0
C      1  0.5134320000000  0.5662710000000  0.5500450000000 1.0
C      1  0.4829530000000  0.4342740000000  0.4514520000000 1.0
C      1  0.4829200000000  0.5667980000000  0.5474620000000 1.0
C      1  0.5590150000000  0.5148530000000  0.5306350000000 1.0
C      1  0.5593250000000  0.4851300000000  0.4697920000000 1.0
C      1  0.4390980000000  0.5129500000000  0.5297520000000 1.0
C      1  0.4379140000000  0.4832170000000  0.4745580000000 1.0
C      1  0.5596050000000  0.5148510000000  0.4754100000000 1.0
C      1  0.5598570000000  0.4851550000000  0.5251110000000 1.0
C      1  0.4394130000000  0.5131980000000  0.4707660000000 1.0
C      1  0.4380450000000  0.4829850000000  0.5265620000000 1.0
C      1  0.5375280000000  0.5487760000000  0.5666260000000 1.0
C      1  0.5372030000000  0.4506910000000  0.4349340000000 1.0
C      1  0.4590220000000  0.5491470000000  0.5640950000000 1.0
C      1  0.4587130000000  0.4531880000000  0.4366440000000 1.0
C      1  0.5401470000000  0.5461790000000  0.4370960000000 1.0
C      1  0.5398250000000  0.4533300000000  0.5624830000000 1.0
C      1  0.4604540000000  0.5487730000000  0.4358860000000 1.0
C      1  0.4602500000000  0.4536490000000  0.5644210000000 1.0
C      1  0.5133140000000  0.4728720000000  0.4448490000000 1.0
C      1  0.5132240000000  0.5269040000000  0.5571190000000 1.0
C      1  0.4841180000000  0.4737710000000  0.4453290000000 1.0
C      1  0.4838820000000  0.5275980000000  0.5550090000000 1.0
C      1  0.5141400000000  0.4740250000000  0.5546880000000 1.0
C      1  0.5141720000000  0.5258660000000  0.4446780000000 1.0
C      1  0.4849920000000  0.4746850000000  0.5552670000000 1.0
C      1  0.4848590000000  0.5267460000000  0.4448980000000 1.0
C      1  0.4795130000000  0.5472960000000  0.4800480000000 1.0
C      1  0.4781620000000  0.4534780000000  0.5221040000000 1.0
C      1  0.5199390000000  0.5464440000000  0.4784180000000 1.0
C      1  0.5200770000000  0.4531070000000  0.5197390000000 1.0
C      1  0.4788490000000  0.5477300000000  0.5200190000000 1.0
C      1  0.4775410000000  0.4530570000000  0.4788400000000 1.0
C      1  0.5188200000000  0.5471550000000  0.5231570000000 1.0
C      1  0.5192230000000  0.4522960000000  0.4797610000000 1.0
C      1  0.5574940000000  0.5395530000000  0.5165080000000 1.0
C      1  0.5580890000000  0.4605990000000  0.4840690000000 1.0
C      1  0.4408420000000  0.5367870000000  0.5141740000000 1.0
C      1  0.4386630000000  0.4579850000000  0.4866480000000 1.0
C      1  0.5580470000000  0.5396120000000  0.4884050000000 1.0
C      1  0.5586000000000  0.4605390000000  0.5120260000000 1.0
C      1  0.4413070000000  0.5371360000000  0.4860120000000 1.0
C      1  0.4391550000000  0.4578180000000  0.5145610000000 1.0
C      1  0.4974100000000  0.4437480000000  0.5003170000000 1.0
C      1  0.5014050000000  0.5565150000000  0.5002490000000 1.0
C      1  0.4990450000000  0.5000210000000  0.5002240000000 1.0
END
