TITL C-2782226-7400-266 0.00163971320677826 125000 -559.470121223722 0 0 96 (C1) n - 1
REM
REM in /home/nfs/bkarasulu/CARBON/AIRSS/Generating-Clusters/REBO/Higher-Symm/SD-CG/HFTN-CG
REM
REM
REM
REM
REM
REM ./C.cell (12c818d87b63d06a65506943cc24bca4)
REM
REM compiler GCC version 9.2.1 20190827 (Red Hat 9.2.1-1)
REM options -cpp -mtune=generic -march=x86-64 -g -O0 -fpre-include=/usr/include/finclude/math-vector-fortran.h
REM seed -332523849 1261441017 1981701295 1883073916 587618657 1678621513 -839059009 -1812722786 618249953 544701804 -602132386 -1099500354 2056256644 728035494 1022584617 -674959948 -947393430 690309091 -757792981 723936172 1768009673 -311504892 -2103378967 628934234 -2091905928 392487528 766784534 752695394 99134113 1781227187 372321118 -905995362 1583694139
REM
CELL 1.54180   50.00000   50.00000   50.00000   90.00000   90.00000   90.00000
LATT -1
SFAC C  
C      1  0.5195800000000  0.4933580000000  0.4291590000000 1.0
C      1  0.5242360000000  0.4215810000000  0.5356770000000 1.0
C      1  0.4801850000000  0.4390170000000  0.4708830000000 1.0
C      1  0.4853820000000  0.5088410000000  0.4707700000000 1.0
C      1  0.5329070000000  0.4922540000000  0.5905380000000 1.0
C      1  0.5465180000000  0.5107840000000  0.4650100000000 1.0
C      1  0.4395540000000  0.5563540000000  0.4460670000000 1.0
C      1  0.5069530000000  0.5137250000000  0.5562000000000 1.0
C      1  0.5434670000000  0.5806490000000  0.4913010000000 1.0
C      1  0.5417080000000  0.4406310000000  0.5529180000000 1.0
C      1  0.5632870000000  0.5757840000000  0.5093720000000 1.0
C      1  0.5734940000000  0.4744680000000  0.5017830000000 1.0
C      1  0.5738710000000  0.5267000000000  0.5626530000000 1.0
C      1  0.5104050000000  0.4510960000000  0.4729240000000 1.0
C      1  0.5620170000000  0.5486490000000  0.4696650000000 1.0
C      1  0.4573000000000  0.4554750000000  0.5289380000000 1.0
C      1  0.5212860000000  0.4565940000000  0.5032210000000 1.0
C      1  0.5344840000000  0.5512950000000  0.5466000000000 1.0
C      1  0.4344530000000  0.5112240000000  0.4795710000000 1.0
C      1  0.5604710000000  0.4679620000000  0.5537550000000 1.0
C      1  0.5017790000000  0.4325870000000  0.5575820000000 1.0
C      1  0.5439770000000  0.5301610000000  0.4892760000000 1.0
C      1  0.5438920000000  0.4913120000000  0.4995560000000 1.0
C      1  0.4856850000000  0.4175300000000  0.5717790000000 1.0
C      1  0.5127980000000  0.4869800000000  0.4898910000000 1.0
C      1  0.4562770000000  0.4607540000000  0.4751850000000 1.0
C      1  0.5495940000000  0.4256710000000  0.4824400000000 1.0
C      1  0.5742080000000  0.5076820000000  0.5024510000000 1.0
C      1  0.5281720000000  0.5164030000000  0.5782260000000 1.0
C      1  0.5649360000000  0.5521970000000  0.5312780000000 1.0
C      1  0.5368460000000  0.4724120000000  0.4210560000000 1.0
C      1  0.4910560000000  0.5464770000000  0.4356490000000 1.0
C      1  0.4585160000000  0.5588300000000  0.5345440000000 1.0
C      1  0.4584660000000  0.4918220000000  0.4781610000000 1.0
C      1  0.5529100000000  0.4908290000000  0.5317380000000 1.0
C      1  0.5344060000000  0.4391360000000  0.4574840000000 1.0
C      1  0.4495300000000  0.5716880000000  0.5105180000000 1.0
C      1  0.4343930000000  0.4345860000000  0.4494370000000 1.0
C      1  0.5393220000000  0.5387410000000  0.5151340000000 1.0
C      1  0.4146810000000  0.5260580000000  0.5031950000000 1.0
C      1  0.4961880000000  0.5588080000000  0.5058220000000 1.0
C      1  0.4623340000000  0.4983700000000  0.5697640000000 1.0
C      1  0.4546280000000  0.5259450000000  0.5707290000000 1.0
C      1  0.4057550000000  0.4972630000000  0.4867460000000 1.0
C      1  0.4233400000000  0.5214230000000  0.5326920000000 1.0
C      1  0.5717070000000  0.4679770000000  0.4580570000000 1.0
C      1  0.5329800000000  0.4670590000000  0.5727330000000 1.0
C      1  0.5100290000000  0.5376270000000  0.4581630000000 1.0
C      1  0.4872630000000  0.4900400000000  0.5629650000000 1.0
C      1  0.4421980000000  0.4791030000000  0.5170820000000 1.0
C      1  0.4953820000000  0.4176800000000  0.4885660000000 1.0
C      1  0.4244730000000  0.4943270000000  0.5376680000000 1.0
C      1  0.5050820000000  0.5242470000000  0.5234880000000 1.0
C      1  0.4904240000000  0.4912540000000  0.4218500000000 1.0
C      1  0.4945630000000  0.4204580000000  0.5202520000000 1.0
C      1  0.5042590000000  0.4630410000000  0.5572880000000 1.0
C      1  0.5263700000000  0.4167510000000  0.5023910000000 1.0
C      1  0.4956940000000  0.5545890000000  0.5801140000000 1.0
C      1  0.5237780000000  0.4980320000000  0.5333320000000 1.0
C      1  0.4760720000000  0.5798260000000  0.4906610000000 1.0
C      1  0.5754970000000  0.4478730000000  0.4822270000000 1.0
C      1  0.4525830000000  0.5342010000000  0.4937270000000 1.0
C      1  0.5787880000000  0.5212030000000  0.5291890000000 1.0
C      1  0.4825900000000  0.5240200000000  0.4194030000000 1.0
C      1  0.4195300000000  0.4464800000000  0.4691660000000 1.0
C      1  0.4266170000000  0.5566540000000  0.4974640000000 1.0
C      1  0.4965060000000  0.4783110000000  0.4611580000000 1.0
C      1  0.4426580000000  0.5375890000000  0.5468280000000 1.0
C      1  0.4673520000000  0.5058730000000  0.4419770000000 1.0
C      1  0.5785910000000  0.4960190000000  0.5522830000000 1.0
C      1  0.4702600000000  0.5630120000000  0.4433060000000 1.0
C      1  0.4992980000000  0.5308810000000  0.4900620000000 1.0
C      1  0.5100410000000  0.5807120000000  0.4862560000000 1.0
C      1  0.4726850000000  0.4366690000000  0.5304440000000 1.0
C      1  0.4436140000000  0.4733480000000  0.4461470000000 1.0
C      1  0.4267980000000  0.4707310000000  0.4904420000000 1.0
C      1  0.4753560000000  0.4669630000000  0.4386950000000 1.0
C      1  0.4263300000000  0.5347720000000  0.4369460000000 1.0
C      1  0.5499760000000  0.4578380000000  0.4422360000000 1.0
C      1  0.4715840000000  0.5428900000000  0.5862130000000 1.0
C      1  0.4872630000000  0.5583060000000  0.5342690000000 1.0
C      1  0.4617600000000  0.5043290000000  0.5077710000000 1.0
C      1  0.5061490000000  0.5573270000000  0.5540620000000 1.0
C      1  0.4586660000000  0.5592860000000  0.4738130000000 1.0
C      1  0.5063790000000  0.4721130000000  0.5263050000000 1.0
C      1  0.5731930000000  0.4957720000000  0.4633280000000 1.0
C      1  0.4611400000000  0.4369800000000  0.4437240000000 1.0
C      1  0.4905310000000  0.4984150000000  0.5115720000000 1.0
C      1  0.5815740000000  0.5253890000000  0.4765140000000 1.0
C      1  0.5379630000000  0.4636640000000  0.3953040000000 1.0
C      1  0.5475590000000  0.5350150000000  0.5695300000000 1.0
C      1  0.5507090000000  0.4495540000000  0.5062120000000 1.0
C      1  0.5300460000000  0.5604930000000  0.4673370000000 1.0
C      1  0.5248910000000  0.5126940000000  0.4480850000000 1.0
C      1  0.4360200000000  0.5060030000000  0.4400300000000 1.0
C      1  0.4139830000000  0.4865110000000  0.4560260000000 1.0
END
