TITL C-2782239-8622-1467 0.00253792471976613 125000 -1190.40590355118 0 0 198 (C1) n - 1
REM
REM in /home/nfs/bkarasulu/CARBON/AIRSS/Generating-Clusters/REBO/Higher-Symm/SD-CG/HFTN-CG
REM
REM
REM
REM
REM
REM ./C.cell (12c818d87b63d06a65506943cc24bca4)
REM
REM compiler GCC version 9.2.1 20190827 (Red Hat 9.2.1-1)
REM options -cpp -mtune=generic -march=x86-64 -g -O0 -fpre-include=/usr/include/finclude/math-vector-fortran.h
REM seed 1644531835 1293991689 -436617176 358739118 430236444 1936552006 -161550473 -1491348746 483330380 39487505 1098913964 -1321590374 179732433 678762276 1151221769 394426459 1878015185 -1599173578 293889746 1053897005 1011770534 515907343 -533713426 -1878320874 1047704115 -1146976211 -1072632271 895395006 -301917468 -1764715948 -1927400465 -917917680 953117547
REM
CELL 1.54180   50.00000   50.00000   50.00000   90.00000   90.00000   90.00000
LATT -1
SFAC C  
C      1  0.4660880000000  0.6232540000000  0.5254610000000 1.0
C      1  0.4905920000000  0.6375000000000  0.5319660000000 1.0
C      1  0.5114140000000  0.6232370000000  0.5464420000000 1.0
C      1  0.5353060000000  0.6154500000000  0.5322250000000 1.0
C      1  0.5370560000000  0.6254340000000  0.5051990000000 1.0
C      1  0.5480340000000  0.6116920000000  0.4824950000000 1.0
C      1  0.5365050000000  0.6100210000000  0.4560840000000 1.0
C      1  0.5121220000000  0.6213050000000  0.4447460000000 1.0
C      1  0.4850860000000  0.6160180000000  0.4545560000000 1.0
C      1  0.4781320000000  0.6291920000000  0.4788310000000 1.0
C      1  0.4591700000000  0.6197420000000  0.4979110000000 1.0
C      1  0.3963860000000  0.5383140000000  0.5221030000000 1.0
C      1  0.4158090000000  0.5369400000000  0.5714630000000 1.0
C      1  0.4770920000000  0.5396490000000  0.6071470000000 1.0
C      1  0.5400410000000  0.5338110000000  0.5899410000000 1.0
C      1  0.5824820000000  0.5392030000000  0.5687540000000 1.0
C      1  0.6102600000000  0.5333040000000  0.5038620000000 1.0
C      1  0.5980760000000  0.5324110000000  0.4460450000000 1.0
C      1  0.5503900000000  0.5418570000000  0.4119880000000 1.0
C      1  0.4869940000000  0.5397460000000  0.3943990000000 1.0
C      1  0.4343130000000  0.5463350000000  0.4216730000000 1.0
C      1  0.3821480000000  0.5305170000000  0.4658770000000 1.0
C      1  0.6028330000000  0.5078820000000  0.5236950000000 1.0
C      1  0.6086490000000  0.5045430000000  0.4591700000000 1.0
C      1  0.5638640000000  0.5106270000000  0.4125860000000 1.0
C      1  0.5041310000000  0.5110520000000  0.3940780000000 1.0
C      1  0.4427310000000  0.5158200000000  0.4091570000000 1.0
C      1  0.3989270000000  0.5087430000000  0.4492050000000 1.0
C      1  0.3850330000000  0.5076650000000  0.5126650000000 1.0
C      1  0.4091990000000  0.5043410000000  0.5692440000000 1.0
C      1  0.4603470000000  0.5103570000000  0.6023610000000 1.0
C      1  0.5230760000000  0.5103970000000  0.6062650000000 1.0
C      1  0.5800850000000  0.5068020000000  0.5785730000000 1.0
C      1  0.4098420000000  0.4163900000000  0.5130110000000 1.0
C      1  0.4486350000000  0.4408940000000  0.5459510000000 1.0
C      1  0.4707290000000  0.4153300000000  0.5959430000000 1.0
C      1  0.5267150000000  0.4169420000000  0.6013230000000 1.0
C      1  0.5737680000000  0.4151730000000  0.5701070000000 1.0
C      1  0.5994280000000  0.4170960000000  0.5189420000000 1.0
C      1  0.5930030000000  0.4178450000000  0.4622330000000 1.0
C      1  0.5590550000000  0.4177610000000  0.4158400000000 1.0
C      1  0.5043440000000  0.4189810000000  0.3971420000000 1.0
C      1  0.4515750000000  0.4205330000000  0.4190300000000 1.0
C      1  0.4385530000000  0.4403900000000  0.4711040000000 1.0
C      1  0.5432000000000  0.4418010000000  0.5069520000000 1.0
C      1  0.5499660000000  0.4242360000000  0.4867170000000 1.0
C      1  0.5417620000000  0.4264180000000  0.4586480000000 1.0
C      1  0.5179290000000  0.4326320000000  0.4430340000000 1.0
C      1  0.4955520000000  0.4462640000000  0.4528140000000 1.0
C      1  0.4796320000000  0.4301470000000  0.4681870000000 1.0
C      1  0.4664390000000  0.4213160000000  0.4921420000000 1.0
C      1  0.4735040000000  0.4250440000000  0.5190600000000 1.0
C      1  0.4872250000000  0.4311540000000  0.5435380000000 1.0
C      1  0.5107410000000  0.4448100000000  0.5414850000000 1.0
C      1  0.5310240000000  0.4303440000000  0.5295370000000 1.0
C      1  0.4599520000000  0.5160480000000  0.4708350000000 1.0
C      1  0.4470240000000  0.5271580000000  0.4927670000000 1.0
C      1  0.4518720000000  0.5136560000000  0.5164770000000 1.0
C      1  0.4676320000000  0.5273350000000  0.5346990000000 1.0
C      1  0.4899780000000  0.5143520000000  0.5438420000000 1.0
C      1  0.5144050000000  0.5274850000000  0.5410710000000 1.0
C      1  0.5368990000000  0.5147710000000  0.5245040000000 1.0
C      1  0.5543700000000  0.5172920000000  0.4981950000000 1.0
C      1  0.5342680000000  0.5203040000000  0.4733160000000 1.0
C      1  0.5081370000000  0.5257810000000  0.4547700000000 1.0
C      1  0.4782720000000  0.5323870000000  0.4583540000000 1.0
C      1  0.5803450000000  0.4616850000000  0.4359150000000 1.0
C      1  0.5328960000000  0.4637140000000  0.4037400000000 1.0
C      1  0.4742770000000  0.4637430000000  0.3999200000000 1.0
C      1  0.4245160000000  0.4675730000000  0.4310350000000 1.0
C      1  0.3922250000000  0.4593170000000  0.4817400000000 1.0
C      1  0.4022070000000  0.4618970000000  0.5402890000000 1.0
C      1  0.4365780000000  0.4605600000000  0.5901080000000 1.0
C      1  0.4939700000000  0.4620020000000  0.6041200000000 1.0
C      1  0.5526520000000  0.4607060000000  0.5927920000000 1.0
C      1  0.5882090000000  0.4610290000000  0.5472130000000 1.0
C      1  0.5962660000000  0.4643080000000  0.4918430000000 1.0
C      1  0.5417490000000  0.4067170000000  0.5724850000000 1.0
C      1  0.5802110000000  0.4002010000000  0.5403730000000 1.0
C      1  0.5872320000000  0.4033930000000  0.4913170000000 1.0
C      1  0.5699390000000  0.4023300000000  0.4439180000000 1.0
C      1  0.5289140000000  0.4052490000000  0.4149480000000 1.0
C      1  0.4795780000000  0.4029670000000  0.4131540000000 1.0
C      1  0.4475040000000  0.4139980000000  0.4511080000000 1.0
C      1  0.4268560000000  0.4129390000000  0.4851080000000 1.0
C      1  0.4378700000000  0.4118220000000  0.5314150000000 1.0
C      1  0.4578390000000  0.4165920000000  0.5656500000000 1.0
C      1  0.5007720000000  0.4024710000000  0.5881380000000 1.0
C      1  0.6004390000000  0.4763590000000  0.5211400000000 1.0
C      1  0.5943390000000  0.4760490000000  0.4629360000000 1.0
C      1  0.5613290000000  0.4772090000000  0.4166130000000 1.0
C      1  0.5051710000000  0.4776950000000  0.3959080000000 1.0
C      1  0.4473230000000  0.4819110000000  0.4099220000000 1.0
C      1  0.4023610000000  0.4768820000000  0.4540200000000 1.0
C      1  0.3890920000000  0.4738110000000  0.5108560000000 1.0
C      1  0.4116950000000  0.4722050000000  0.5694590000000 1.0
C      1  0.4625640000000  0.4762260000000  0.6031330000000 1.0
C      1  0.5238250000000  0.4766420000000  0.6022150000000 1.0
C      1  0.5754830000000  0.4738680000000  0.5761280000000 1.0
C      1  0.4061670000000  0.5542970000000  0.4978120000000 1.0
C      1  0.4220350000000  0.5747730000000  0.5395360000000 1.0
C      1  0.4577220000000  0.5612740000000  0.5709030000000 1.0
C      1  0.4925820000000  0.5790040000000  0.5788210000000 1.0
C      1  0.5438820000000  0.5700320000000  0.5566630000000 1.0
C      1  0.5703410000000  0.5578880000000  0.5258020000000 1.0
C      1  0.5781840000000  0.5690310000000  0.4883950000000 1.0
C      1  0.5575610000000  0.5563430000000  0.4392430000000 1.0
C      1  0.5156200000000  0.5751090000000  0.4259320000000 1.0
C      1  0.4607190000000  0.5649180000000  0.4248800000000 1.0
C      1  0.4283630000000  0.5841890000000  0.4557930000000 1.0
C      1  0.4378080000000  0.5566600000000  0.4956250000000 1.0
C      1  0.4442330000000  0.5694090000000  0.5236790000000 1.0
C      1  0.4662510000000  0.5571710000000  0.5402490000000 1.0
C      1  0.4927240000000  0.5705210000000  0.5524290000000 1.0
C      1  0.5180530000000  0.5584610000000  0.5427360000000 1.0
C      1  0.5406050000000  0.5481090000000  0.5194860000000 1.0
C      1  0.5544740000000  0.5504390000000  0.4894760000000 1.0
C      1  0.5370880000000  0.5520650000000  0.4620740000000 1.0
C      1  0.5058990000000  0.5599680000000  0.4518080000000 1.0
C      1  0.4720360000000  0.5627860000000  0.4541630000000 1.0
C      1  0.4479780000000  0.5726550000000  0.4713850000000 1.0
C      1  0.5810610000000  0.5045900000000  0.4383330000000 1.0
C      1  0.5311040000000  0.5165920000000  0.4060030000000 1.0
C      1  0.4730600000000  0.5134500000000  0.4079300000000 1.0
C      1  0.4242990000000  0.5188450000000  0.4375960000000 1.0
C      1  0.3930980000000  0.5031960000000  0.4826650000000 1.0
C      1  0.4058190000000  0.5117110000000  0.5394490000000 1.0
C      1  0.4395400000000  0.5136430000000  0.5804340000000 1.0
C      1  0.4943380000000  0.5130220000000  0.5998230000000 1.0
C      1  0.5497950000000  0.5026050000000  0.5866210000000 1.0
C      1  0.5844360000000  0.5141130000000  0.5457710000000 1.0
C      1  0.6030820000000  0.5042440000000  0.4897630000000 1.0
C      1  0.4682750000000  0.5998670000000  0.4400960000000 1.0
C      1  0.4961190000000  0.6490930000000  0.4875300000000 1.0
C      1  0.4368870000000  0.6060050000000  0.4904770000000 1.0
C      1  0.4511840000000  0.6118440000000  0.5452300000000 1.0
C      1  0.4943670000000  0.6635170000000  0.5247670000000 1.0
C      1  0.5069560000000  0.6145940000000  0.5719880000000 1.0
C      1  0.5506170000000  0.5950720000000  0.5451350000000 1.0
C      1  0.5205660000000  0.6475840000000  0.4990840000000 1.0
C      1  0.5711260000000  0.5958640000000  0.4863810000000 1.0
C      1  0.5509060000000  0.5944790000000  0.4383040000000 1.0
C      1  0.5143560000000  0.6343390000000  0.4207240000000 1.0
C      1  0.4717500000000  0.3967190000000  0.4613690000000 1.0
C      1  0.4507300000000  0.3922800000000  0.4874380000000 1.0
C      1  0.4596920000000  0.3925690000000  0.5189890000000 1.0
C      1  0.4756580000000  0.3978040000000  0.5474890000000 1.0
C      1  0.5042860000000  0.3942940000000  0.5591220000000 1.0
C      1  0.5316910000000  0.4019010000000  0.5428440000000 1.0
C      1  0.5549050000000  0.3896920000000  0.5260150000000 1.0
C      1  0.5575370000000  0.3934460000000  0.4951980000000 1.0
C      1  0.5460970000000  0.3922750000000  0.4631570000000 1.0
C      1  0.5191450000000  0.3975330000000  0.4431740000000 1.0
C      1  0.4899040000000  0.3895170000000  0.4388770000000 1.0
C      1  0.5891940000000  0.5535860000000  0.5414290000000 1.0
C      1  0.6024250000000  0.5573420000000  0.4959320000000 1.0
C      1  0.5844590000000  0.5553910000000  0.4454090000000 1.0
C      1  0.5335740000000  0.5687310000000  0.4097590000000 1.0
C      1  0.4782690000000  0.5633770000000  0.4036060000000 1.0
C      1  0.4200710000000  0.5729420000000  0.4321590000000 1.0
C      1  0.3893460000000  0.5542910000000  0.4764030000000 1.0
C      1  0.4063130000000  0.5533320000000  0.5475430000000 1.0
C      1  0.4390650000000  0.5532760000000  0.5853050000000 1.0
C      1  0.4842250000000  0.5644770000000  0.6006610000000 1.0
C      1  0.5553490000000  0.5524980000000  0.5759160000000 1.0
C      1  0.5156410000000  0.4938360000000  0.4503520000000 1.0
C      1  0.4893140000000  0.4762570000000  0.4506180000000 1.0
C      1  0.4630340000000  0.4853730000000  0.4649010000000 1.0
C      1  0.4468420000000  0.4684360000000  0.4853030000000 1.0
C      1  0.4465800000000  0.4827030000000  0.5162250000000 1.0
C      1  0.4595590000000  0.4706160000000  0.5426010000000 1.0
C      1  0.4880030000000  0.4859170000000  0.5533250000000 1.0
C      1  0.5151920000000  0.4731260000000  0.5471850000000 1.0
C      1  0.5403550000000  0.4859580000000  0.5312090000000 1.0
C      1  0.5451640000000  0.4722950000000  0.5033050000000 1.0
C      1  0.5396390000000  0.4874930000000  0.4736220000000 1.0
C      1  0.5313100000000  0.4906880000000  0.4243000000000 1.0
C      1  0.4853270000000  0.4871040000000  0.4210520000000 1.0
C      1  0.4432730000000  0.4931250000000  0.4417890000000 1.0
C      1  0.4179380000000  0.4806400000000  0.4840460000000 1.0
C      1  0.4169010000000  0.4864980000000  0.5237370000000 1.0
C      1  0.4433940000000  0.4839390000000  0.5670400000000 1.0
C      1  0.4864630000000  0.4870930000000  0.5832600000000 1.0
C      1  0.5347990000000  0.4784100000000  0.5700570000000 1.0
C      1  0.5662830000000  0.4868960000000  0.5469010000000 1.0
C      1  0.5732330000000  0.4899330000000  0.4951870000000 1.0
C      1  0.5628540000000  0.4826290000000  0.4561540000000 1.0
C      1  0.5542030000000  0.4317190000000  0.5924550000000 1.0
C      1  0.5903760000000  0.4323780000000  0.5469510000000 1.0
C      1  0.5990770000000  0.4353670000000  0.4907510000000 1.0
C      1  0.5815760000000  0.4331440000000  0.4348240000000 1.0
C      1  0.5338940000000  0.4352500000000  0.4009250000000 1.0
C      1  0.4748340000000  0.4347990000000  0.4006300000000 1.0
C      1  0.4332170000000  0.4411060000000  0.4380730000000 1.0
C      1  0.3974510000000  0.4301330000000  0.4850500000000 1.0
C      1  0.4164560000000  0.4369640000000  0.5373400000000 1.0
C      1  0.4417570000000  0.4312610000000  0.5913730000000 1.0
C      1  0.4970300000000  0.4329680000000  0.6042750000000 1.0
END
