TITL C-2782233-7966-802 0.00350665056058674 125000 -296.839151996393 0 0 53 (C1) n - 1
REM
REM in /home/nfs/bkarasulu/CARBON/AIRSS/Generating-Clusters/REBO/Higher-Symm/SD-CG/HFTN-CG
REM
REM
REM
REM
REM
REM ./C.cell (12c818d87b63d06a65506943cc24bca4)
REM
REM compiler GCC version 9.2.1 20190827 (Red Hat 9.2.1-1)
REM options -cpp -mtune=generic -march=x86-64 -g -O0 -fpre-include=/usr/include/finclude/math-vector-fortran.h
REM seed -1469305436 -33257733 1779155469 437335316 2082519209 1019785131 -849503424 744239348 903265162 -1975239917 1120271099 1576587807 -1117672679 421548142 1461707482 -600483012 -1675094132 1715165097 -961168769 2015979653 944929250 321481262 -1069704412 973583733 1248049643 -837429005 998414949 -981816055 -1836077761 -1748939051 -1510560275 -1085640066 929810599
REM
CELL 1.54180   50.00000   50.00000   50.00000   90.00000   90.00000   90.00000
LATT -1
SFAC C  
C      1  0.5149210000000  0.5090940000000  0.5282710000000 1.0
C      1  0.5342790000000  0.5110570000000  0.5065170000000 1.0
C      1  0.5318620000000  0.5087370000000  0.4745710000000 1.0
C      1  0.4998380000000  0.5090370000000  0.4640530000000 1.0
C      1  0.4679120000000  0.5082280000000  0.4749190000000 1.0
C      1  0.4654280000000  0.5099070000000  0.5068950000000 1.0
C      1  0.4857390000000  0.5088940000000  0.5284920000000 1.0
C      1  0.5378940000000  0.5474830000000  0.4919690000000 1.0
C      1  0.5185200000000  0.5452960000000  0.4658880000000 1.0
C      1  0.4853400000000  0.5459550000000  0.4643100000000 1.0
C      1  0.4644130000000  0.5454540000000  0.4887190000000 1.0
C      1  0.4704880000000  0.5464420000000  0.5213500000000 1.0
C      1  0.4985280000000  0.5456530000000  0.5363050000000 1.0
C      1  0.5281600000000  0.5462550000000  0.5245440000000 1.0
C      1  0.5002200000000  0.4798060000000  0.4364280000000 1.0
C      1  0.4526040000000  0.4815440000000  0.4618830000000 1.0
C      1  0.4404680000000  0.4796090000000  0.5146540000000 1.0
C      1  0.4741330000000  0.4797270000000  0.5531140000000 1.0
C      1  0.5251350000000  0.4799660000000  0.5536040000000 1.0
C      1  0.5589790000000  0.4802610000000  0.5159090000000 1.0
C      1  0.5478030000000  0.4815850000000  0.4629980000000 1.0
C      1  0.5490840000000  0.4940250000000  0.5409980000000 1.0
C      1  0.5654010000000  0.4935590000000  0.4897350000000 1.0
C      1  0.5264680000000  0.4933470000000  0.4387420000000 1.0
C      1  0.4739200000000  0.4939090000000  0.4382350000000 1.0
C      1  0.4342830000000  0.4930590000000  0.4886280000000 1.0
C      1  0.4506430000000  0.4933830000000  0.5397340000000 1.0
C      1  0.4995980000000  0.4936480000000  0.5622450000000 1.0
C      1  0.4963650000000  0.5244760000000  0.5596520000000 1.0
C      1  0.5446150000000  0.5250670000000  0.5420490000000 1.0
C      1  0.5625520000000  0.5252450000000  0.4934380000000 1.0
C      1  0.5300030000000  0.5252340000000  0.4441990000000 1.0
C      1  0.4795730000000  0.5246440000000  0.4409070000000 1.0
C      1  0.4392370000000  0.5259940000000  0.4824610000000 1.0
C      1  0.4499590000000  0.5247950000000  0.5338500000000 1.0
C      1  0.4625620000000  0.4329750000000  0.4905340000000 1.0
C      1  0.4703460000000  0.4297740000000  0.5225510000000 1.0
C      1  0.4998420000000  0.4293150000000  0.5371890000000 1.0
C      1  0.5295430000000  0.4295560000000  0.5231620000000 1.0
C      1  0.5375030000000  0.4332780000000  0.4913160000000 1.0
C      1  0.5169970000000  0.4341780000000  0.4654630000000 1.0
C      1  0.4837340000000  0.4334000000000  0.4653570000000 1.0
C      1  0.5000010000000  0.4532600000000  0.4443220000000 1.0
C      1  0.4556860000000  0.4519480000000  0.4637940000000 1.0
C      1  0.4480750000000  0.4530670000000  0.5127440000000 1.0
C      1  0.4775950000000  0.4532900000000  0.5458970000000 1.0
C      1  0.5219080000000  0.4536360000000  0.5459200000000 1.0
C      1  0.5509270000000  0.4539090000000  0.5138450000000 1.0
C      1  0.5454290000000  0.4519180000000  0.4647560000000 1.0
C      1  0.5001910000000  0.4720310000000  0.5072000000000 1.0
C      1  0.5000380000000  0.5296920000000  0.4976900000000 1.0
C      1  0.5005880000000  0.5583140000000  0.4987220000000 1.0
C      1  0.5000540000000  0.4955760000000  0.4938860000000 1.0
END
