TITL C-2782240-8521-1365 0.00135306701802481 125000 -974.677080237094 0 0 167 (C1) n - 1
REM
REM in /home/nfs/bkarasulu/CARBON/AIRSS/Generating-Clusters/REBO/Higher-Symm/SD-CG/HFTN-CG
REM
REM
REM
REM
REM
REM ./C.cell (12c818d87b63d06a65506943cc24bca4)
REM
REM compiler GCC version 9.2.1 20190827 (Red Hat 9.2.1-1)
REM options -cpp -mtune=generic -march=x86-64 -g -O0 -fpre-include=/usr/include/finclude/math-vector-fortran.h
REM seed -394603622 510705577 -173822075 1901708088 674222725 2123352831 1900556700 -1975444103 847451336 446395486 102251945 -70390715 -1686092503 1172711157 -1448095973 -272420856 -719587136 -1220196589 -752934533 -1959909618 -626424628 -1470382099 76725808 -1536116892 -1227493785 503108886 181277825 418841368 1086389844 -2140982066 -1202318336 -1316718440 657690380
REM
CELL 1.54180   50.00000   50.00000   50.00000   90.00000   90.00000   90.00000
LATT -1
SFAC C  
C      1  0.5240310000000  0.4659010000000  0.5553270000000 1.0
C      1  0.4174680000000  0.5049330000000  0.4808390000000 1.0
C      1  0.4508110000000  0.5055090000000  0.4741550000000 1.0
C      1  0.5464670000000  0.4878470000000  0.5576420000000 1.0
C      1  0.4762630000000  0.5263130000000  0.4675670000000 1.0
C      1  0.5102020000000  0.5205550000000  0.5398570000000 1.0
C      1  0.4188860000000  0.5787350000000  0.4675260000000 1.0
C      1  0.4510160000000  0.5531270000000  0.5753920000000 1.0
C      1  0.4197980000000  0.5611970000000  0.4968030000000 1.0
C      1  0.4658220000000  0.5820760000000  0.5162270000000 1.0
C      1  0.5660670000000  0.4121830000000  0.5010830000000 1.0
C      1  0.4863100000000  0.5920000000000  0.5617920000000 1.0
C      1  0.4437790000000  0.5928290000000  0.4942630000000 1.0
C      1  0.5068460000000  0.4218280000000  0.4180630000000 1.0
C      1  0.4914500000000  0.5637450000000  0.4626080000000 1.0
C      1  0.4978400000000  0.6087240000000  0.4920580000000 1.0
C      1  0.5134070000000  0.5196030000000  0.4806300000000 1.0
C      1  0.5250330000000  0.4865240000000  0.4614190000000 1.0
C      1  0.4297010000000  0.4623580000000  0.5156450000000 1.0
C      1  0.5823480000000  0.4812430000000  0.4358610000000 1.0
C      1  0.5104510000000  0.5480970000000  0.4041930000000 1.0
C      1  0.5610150000000  0.4906090000000  0.5292400000000 1.0
C      1  0.4953030000000  0.4384870000000  0.4687640000000 1.0
C      1  0.4032120000000  0.4856110000000  0.5332240000000 1.0
C      1  0.4514360000000  0.6065200000000  0.4318330000000 1.0
C      1  0.4853950000000  0.5044850000000  0.5519420000000 1.0
C      1  0.4288880000000  0.5020610000000  0.5448070000000 1.0
C      1  0.5839970000000  0.4473500000000  0.5071900000000 1.0
C      1  0.5199930000000  0.5564350000000  0.4542570000000 1.0
C      1  0.4847070000000  0.4356000000000  0.4383430000000 1.0
C      1  0.5529530000000  0.5529880000000  0.4245600000000 1.0
C      1  0.5209060000000  0.4515070000000  0.4816220000000 1.0
C      1  0.5178410000000  0.5100200000000  0.5126010000000 1.0
C      1  0.5364460000000  0.5756010000000  0.5407260000000 1.0
C      1  0.5533820000000  0.5276590000000  0.4104000000000 1.0
C      1  0.6000560000000  0.4384330000000  0.4786410000000 1.0
C      1  0.4326020000000  0.5797300000000  0.5222840000000 1.0
C      1  0.5712700000000  0.4656910000000  0.4839170000000 1.0
C      1  0.4451990000000  0.5329880000000  0.5220000000000 1.0
C      1  0.4899670000000  0.6130320000000  0.5429850000000 1.0
C      1  0.4792410000000  0.4230050000000  0.4907610000000 1.0
C      1  0.4938870000000  0.4516480000000  0.5877020000000 1.0
C      1  0.4958750000000  0.4522880000000  0.4111520000000 1.0
C      1  0.5699140000000  0.5089530000000  0.4233080000000 1.0
C      1  0.5685220000000  0.4480150000000  0.5901490000000 1.0
C      1  0.4237480000000  0.4764430000000  0.4321710000000 1.0
C      1  0.4683600000000  0.4756120000000  0.4728420000000 1.0
C      1  0.4604180000000  0.5823030000000  0.5661270000000 1.0
C      1  0.5401320000000  0.4804260000000  0.4061100000000 1.0
C      1  0.4678150000000  0.4193310000000  0.5345010000000 1.0
C      1  0.5293350000000  0.5578960000000  0.5133530000000 1.0
C      1  0.4902260000000  0.4003650000000  0.4578430000000 1.0
C      1  0.4535320000000  0.6004750000000  0.4650750000000 1.0
C      1  0.4201870000000  0.5500240000000  0.5634150000000 1.0
C      1  0.4316590000000  0.5784940000000  0.5522190000000 1.0
C      1  0.5644350000000  0.5257280000000  0.4922050000000 1.0
C      1  0.4572930000000  0.4462840000000  0.4777390000000 1.0
C      1  0.5385420000000  0.4512450000000  0.4124710000000 1.0
C      1  0.3932150000000  0.5441820000000  0.4988840000000 1.0
C      1  0.4849990000000  0.5200930000000  0.4366770000000 1.0
C      1  0.4500620000000  0.4055680000000  0.4864350000000 1.0
C      1  0.5594140000000  0.4865180000000  0.5850200000000 1.0
C      1  0.4940450000000  0.4800670000000  0.4075740000000 1.0
C      1  0.5609550000000  0.4464190000000  0.4373050000000 1.0
C      1  0.4728900000000  0.4918680000000  0.4256730000000 1.0
C      1  0.5968070000000  0.4766550000000  0.5469190000000 1.0
C      1  0.4615150000000  0.4748530000000  0.5857040000000 1.0
C      1  0.4793580000000  0.4480230000000  0.5362330000000 1.0
C      1  0.5185780000000  0.5597760000000  0.5870500000000 1.0
C      1  0.5181040000000  0.4341520000000  0.5809680000000 1.0
C      1  0.5536270000000  0.5907250000000  0.4687390000000 1.0
C      1  0.5487630000000  0.4635120000000  0.5167130000000 1.0
C      1  0.5342770000000  0.5174000000000  0.5575600000000 1.0
C      1  0.5047310000000  0.4892770000000  0.4890440000000 1.0
C      1  0.4507370000000  0.4672090000000  0.4296130000000 1.0
C      1  0.4287910000000  0.4384680000000  0.4600650000000 1.0
C      1  0.5437960000000  0.5137760000000  0.4556100000000 1.0
C      1  0.4995020000000  0.4107020000000  0.5121820000000 1.0
C      1  0.4539570000000  0.4349510000000  0.4396300000000 1.0
C      1  0.4112460000000  0.4621170000000  0.4536390000000 1.0
C      1  0.4638210000000  0.4075560000000  0.4574330000000 1.0
C      1  0.5937060000000  0.5068260000000  0.5455390000000 1.0
C      1  0.4709070000000  0.5344660000000  0.5444120000000 1.0
C      1  0.5308920000000  0.4268860000000  0.5500450000000 1.0
C      1  0.4970250000000  0.4695510000000  0.4553750000000 1.0
C      1  0.5936660000000  0.5422790000000  0.4999650000000 1.0
C      1  0.4490400000000  0.4839920000000  0.5240160000000 1.0
C      1  0.5151010000000  0.4037780000000  0.4682100000000 1.0
C      1  0.5072260000000  0.4077430000000  0.5621260000000 1.0
C      1  0.4631640000000  0.4410420000000  0.5864760000000 1.0
C      1  0.5697600000000  0.5541450000000  0.5426730000000 1.0
C      1  0.4534640000000  0.4485710000000  0.5570780000000 1.0
C      1  0.5537680000000  0.4488670000000  0.5531630000000 1.0
C      1  0.5503350000000  0.4487430000000  0.4690350000000 1.0
C      1  0.5705820000000  0.4944170000000  0.4987650000000 1.0
C      1  0.5217750000000  0.4589560000000  0.5084430000000 1.0
C      1  0.4576980000000  0.5335980000000  0.3945770000000 1.0
C      1  0.5923830000000  0.4859830000000  0.4664920000000 1.0
C      1  0.4871860000000  0.5958330000000  0.4664530000000 1.0
C      1  0.4620200000000  0.4812530000000  0.5527990000000 1.0
C      1  0.5092210000000  0.5721680000000  0.5600060000000 1.0
C      1  0.4302120000000  0.4342450000000  0.5437070000000 1.0
C      1  0.5822070000000  0.5440910000000  0.4695890000000 1.0
C      1  0.4472680000000  0.5076490000000  0.4406520000000 1.0
C      1  0.4861790000000  0.6046880000000  0.5163810000000 1.0
C      1  0.5493240000000  0.4785400000000  0.4389050000000 1.0
C      1  0.3911220000000  0.5330320000000  0.5235110000000 1.0
C      1  0.5815040000000  0.4601750000000  0.5646530000000 1.0
C      1  0.5404600000000  0.4530570000000  0.5960120000000 1.0
C      1  0.4020840000000  0.4770070000000  0.4750650000000 1.0
C      1  0.4374030000000  0.5213240000000  0.5715100000000 1.0
C      1  0.4345860000000  0.5292860000000  0.4098040000000 1.0
C      1  0.5856850000000  0.4886420000000  0.5924260000000 1.0
C      1  0.5451610000000  0.5548760000000  0.5662860000000 1.0
C      1  0.4697180000000  0.5569510000000  0.4373580000000 1.0
C      1  0.4079020000000  0.4552260000000  0.5383660000000 1.0
C      1  0.5789250000000  0.4172230000000  0.4770560000000 1.0
C      1  0.4177620000000  0.5316120000000  0.5383880000000 1.0
C      1  0.5528980000000  0.5462290000000  0.4552100000000 1.0
C      1  0.5616530000000  0.5869340000000  0.4946680000000 1.0
C      1  0.5047900000000  0.4577080000000  0.5311770000000 1.0
C      1  0.4350070000000  0.4400280000000  0.4992680000000 1.0
C      1  0.4905890000000  0.4824230000000  0.6017250000000 1.0
C      1  0.5628890000000  0.5214390000000  0.5440970000000 1.0
C      1  0.5278620000000  0.5688760000000  0.4172180000000 1.0
C      1  0.5249920000000  0.4205250000000  0.5189440000000 1.0
C      1  0.5380650000000  0.4168450000000  0.4729620000000 1.0
C      1  0.4508730000000  0.5668740000000  0.4728440000000 1.0
C      1  0.5370340000000  0.5333390000000  0.4982790000000 1.0
C      1  0.4882570000000  0.5129270000000  0.6102210000000 1.0
C      1  0.5620010000000  0.4341110000000  0.5248980000000 1.0
C      1  0.4603320000000  0.5062270000000  0.5914490000000 1.0
C      1  0.4681790000000  0.5158130000000  0.5095940000000 1.0
C      1  0.4179860000000  0.4160270000000  0.4820940000000 1.0
C      1  0.4749160000000  0.5326820000000  0.5782210000000 1.0
C      1  0.4187860000000  0.5490590000000  0.4571690000000 1.0
C      1  0.5258850000000  0.5237030000000  0.3997970000000 1.0
C      1  0.6043690000000  0.4671990000000  0.5211940000000 1.0
C      1  0.4742720000000  0.4883560000000  0.5016120000000 1.0
C      1  0.4417630000000  0.4145620000000  0.5183620000000 1.0
C      1  0.5379160000000  0.5823130000000  0.4468830000000 1.0
C      1  0.4983070000000  0.4798780000000  0.5691800000000 1.0
C      1  0.4760920000000  0.5882170000000  0.4351740000000 1.0
C      1  0.5953680000000  0.5111360000000  0.5125020000000 1.0
C      1  0.5125220000000  0.5254410000000  0.4507140000000 1.0
C      1  0.5208120000000  0.5083020000000  0.6047340000000 1.0
C      1  0.6109220000000  0.4685250000000  0.4878060000000 1.0
C      1  0.4421590000000  0.5412980000000  0.4396200000000 1.0
C      1  0.5772400000000  0.5145320000000  0.4561350000000 1.0
C      1  0.5623890000000  0.4159150000000  0.4498990000000 1.0
C      1  0.4966370000000  0.5425510000000  0.5990210000000 1.0
C      1  0.4052860000000  0.5314860000000  0.4744660000000 1.0
C      1  0.4824400000000  0.5414240000000  0.4126630000000 1.0
C      1  0.5054650000000  0.5514210000000  0.5345020000000 1.0
C      1  0.4432580000000  0.5374860000000  0.4882070000000 1.0
C      1  0.5968870000000  0.5387180000000  0.5332130000000 1.0
C      1  0.4894220000000  0.3999240000000  0.5404620000000 1.0
C      1  0.4003060000000  0.4892220000000  0.5052570000000 1.0
C      1  0.5326630000000  0.4188270000000  0.4335490000000 1.0
C      1  0.4826410000000  0.5459550000000  0.4879440000000 1.0
C      1  0.5172460000000  0.4960270000000  0.4007660000000 1.0
C      1  0.4784780000000  0.5545440000000  0.5175190000000 1.0
C      1  0.5215680000000  0.4501910000000  0.4414110000000 1.0
C      1  0.5626420000000  0.5784600000000  0.5200760000000 1.0
C      1  0.5320500000000  0.5295920000000  0.5857580000000 1.0
C      1  0.4196880000000  0.5040750000000  0.4210030000000 1.0
C      1  0.5349040000000  0.4834040000000  0.6031160000000 1.0
END
